MODEL 1
REMARK VINA RESULT:      -3.4      0.000      0.000
REMARK  Name = 86769013
REMARK  6 active torsions:
REMARK  status: ('A' for Active; 'I' for Inactive)
REMARK    1  A    between atoms: O_3  and  C_18
REMARK    2  A    between atoms: O_3  and  C_22
REMARK    3  A    between atoms: N_5  and  C_15
REMARK    4  A    between atoms: N_7  and  C_20
REMARK    5  A    between atoms: C_15  and  C_17
REMARK    6  A    between atoms: C_16  and  C_18
REMARK                            x       y       z     vdW  Elec       q    Type
REMARK                         _______ _______ _______ _____ _____    ______ ____
ROOT
ATOM      1  O   UNL     1     -10.316 -10.334  12.026  0.00  0.00    -0.252 OA
ATOM      2  O   UNL     1      -5.271 -10.686  16.807  0.00  0.00    -0.273 OA
ATOM      4  N   UNL     1      -8.167 -10.587  12.942  0.00  0.00    -0.278 N 
ATOM      5  N   UNL     1      -8.355 -10.331  10.716  0.00  0.00    -0.276 N 
ATOM      6  N   UNL     1      -6.054 -10.131  14.693  0.00  0.00    -0.296 N 
ATOM      9  C   UNL     1      -6.814 -10.747  12.439  0.00  0.00    +0.112 C 
ATOM     10  C   UNL     1      -6.924 -10.360  10.966  0.00  0.00    +0.134 C 
ATOM     11  C   UNL     1      -5.840  -9.898  13.252  0.00  0.00    +0.132 C 
ATOM     12  C   UNL     1      -8.430 -10.722  14.362  0.00  0.00    +0.128 C 
ATOM     13  C   UNL     1      -7.428  -9.888  15.157  0.00  0.00    +0.127 C 
ATOM     14  C   UNL     1      -9.100 -10.411  11.909  0.00  0.00    +0.306 C 
ATOM     16  C   UNL     1      -5.072 -10.522  15.601  0.00  0.00    +0.241 C 
ENDROOT
BRANCH   5  15
ATOM     15  C   UNL     1      -8.896 -10.104   9.395  0.00  0.00    +0.183 C 
BRANCH  15  17
ATOM      7  N   UNL     1      -8.214  -7.836   8.560  0.00  0.00    -0.336 N 
ATOM      8  N   UNL     1     -10.256  -7.992   9.415  0.00  0.00    -0.239 NA
ATOM     17  C   UNL     1      -9.151  -8.647   9.135  0.00  0.00    +0.127 A 
ATOM     19  C   UNL     1      -8.756  -6.584   8.466  0.00  0.00    +0.106 A 
ATOM     20  C   UNL     1      -6.889  -8.213   8.124  0.00  0.00    +0.150 C 
ATOM     21  C   UNL     1     -10.017  -6.707   9.001  0.00  0.00    +0.130 A 
ENDBRANCH  15  17
ENDBRANCH   5  15
BRANCH  16  18
ATOM     18  C   UNL     1      -3.691 -10.753  15.042  0.00  0.00    +0.255 C 
BRANCH  18   3
ATOM      3  O   UNL     1      -2.809 -10.756  16.138  0.00  0.00    -0.374 OA
ATOM     22  C   UNL     1      -1.456 -10.539  15.739  0.00  0.00    +0.194 C 
ENDBRANCH  18   3
ENDBRANCH  16  18
TORSDOF 4
ENDMDL
MODEL 2
REMARK VINA RESULT:      -3.4     26.836     28.141
REMARK  Name = 86769013
REMARK  6 active torsions:
REMARK  status: ('A' for Active; 'I' for Inactive)
REMARK    1  A    between atoms: O_3  and  C_18
REMARK    2  A    between atoms: O_3  and  C_22
REMARK    3  A    between atoms: N_5  and  C_15
REMARK    4  A    between atoms: N_7  and  C_20
REMARK    5  A    between atoms: C_15  and  C_17
REMARK    6  A    between atoms: C_16  and  C_18
REMARK                            x       y       z     vdW  Elec       q    Type
REMARK                         _______ _______ _______ _____ _____    ______ ____
ROOT
ATOM      1  O   UNL     1      15.239  -9.937  28.244  0.00  0.00    -0.252 OA
ATOM      2  O   UNL     1      17.405  -5.980  22.944  0.00  0.00    -0.273 OA
ATOM      4  N   UNL     1      15.777  -8.008  27.016  0.00  0.00    -0.278 N 
ATOM      5  N   UNL     1      15.397  -7.797  29.221  0.00  0.00    -0.276 N 
ATOM      6  N   UNL     1      17.184  -6.423  25.212  0.00  0.00    -0.296 N 
ATOM      9  C   UNL     1      15.838  -6.577  27.263  0.00  0.00    +0.112 C 
ATOM     10  C   UNL     1      15.794  -6.469  28.785  0.00  0.00    +0.134 C 
ATOM     11  C   UNL     1      17.084  -5.978  26.615  0.00  0.00    +0.132 C 
ATOM     12  C   UNL     1      15.950  -8.515  25.667  0.00  0.00    +0.128 C 
ATOM     13  C   UNL     1      17.185  -7.882  25.029  0.00  0.00    +0.127 C 
ATOM     14  C   UNL     1      15.442  -8.732  28.168  0.00  0.00    +0.306 C 
ATOM     16  C   UNL     1      17.298  -5.583  24.106  0.00  0.00    +0.241 C 
ENDROOT
BRANCH   5  15
ATOM     15  C   UNL     1      15.134  -8.099  30.611  0.00  0.00    +0.183 C 
BRANCH  15  17
ATOM      7  N   UNL     1      12.688  -8.441  31.063  0.00  0.00    -0.336 N 
ATOM      8  N   UNL     1      13.478  -6.401  31.437  0.00  0.00    -0.239 NA
ATOM     17  C   UNL     1      13.778  -7.618  31.043  0.00  0.00    +0.127 A 
ATOM     19  C   UNL     1      11.624  -7.702  31.499  0.00  0.00    +0.106 A 
ATOM     20  C   UNL     1      12.646  -9.837  30.696  0.00  0.00    +0.150 C 
ATOM     21  C   UNL     1      12.138  -6.446  31.723  0.00  0.00    +0.130 A 
ENDBRANCH  15  17
ENDBRANCH   5  15
BRANCH  16  18
ATOM     18  C   UNL     1      17.285  -4.100  24.382  0.00  0.00    +0.255 C 
BRANCH  18   3
ATOM      3  O   UNL     1      17.028  -3.465  23.153  0.00  0.00    -0.374 OA
ATOM     22  C   UNL     1      15.730  -2.873  23.118  0.00  0.00    +0.194 C 
ENDBRANCH  18   3
ENDBRANCH  16  18
TORSDOF 4
ENDMDL
MODEL 3
REMARK VINA RESULT:      -2.1     16.533     18.221
REMARK  Name = 86769013
REMARK  6 active torsions:
REMARK  status: ('A' for Active; 'I' for Inactive)
REMARK    1  A    between atoms: O_3  and  C_18
REMARK    2  A    between atoms: O_3  and  C_22
REMARK    3  A    between atoms: N_5  and  C_15
REMARK    4  A    between atoms: N_7  and  C_20
REMARK    5  A    between atoms: C_15  and  C_17
REMARK    6  A    between atoms: C_16  and  C_18
REMARK                            x       y       z     vdW  Elec       q    Type
REMARK                         _______ _______ _______ _____ _____    ______ ____
ROOT
ATOM      1  O   UNL     1      -0.823  -2.501  24.694  0.00  0.00    -0.252 OA
ATOM      2  O   UNL     1      -5.419   2.589  25.886  0.00  0.00    -0.273 OA
ATOM      4  N   UNL     1      -1.707  -0.330  24.865  0.00  0.00    -0.278 N 
ATOM      5  N   UNL     1       0.263  -0.601  23.817  0.00  0.00    -0.276 N 
ATOM      6  N   UNL     1      -3.628   1.677  24.722  0.00  0.00    -0.296 N 
ATOM      9  C   UNL     1      -1.266   1.020  24.560  0.00  0.00    +0.112 C 
ATOM     10  C   UNL     1      -0.046   0.811  23.667  0.00  0.00    +0.134 C 
ATOM     11  C   UNL     1      -2.399   1.817  23.919  0.00  0.00    +0.132 C 
ATOM     12  C   UNL     1      -2.951  -0.538  25.582  0.00  0.00    +0.128 C 
ATOM     13  C   UNL     1      -4.063   0.290  24.942  0.00  0.00    +0.127 C 
ATOM     14  C   UNL     1      -0.762  -1.296  24.488  0.00  0.00    +0.306 C 
ATOM     16  C   UNL     1      -4.380   2.731  25.237  0.00  0.00    +0.241 C 
ENDROOT
BRANCH   5  15
ATOM     15  C   UNL     1       1.431  -1.198  23.208  0.00  0.00    +0.183 C 
BRANCH  15  17
ATOM      7  N   UNL     1       3.848  -0.539  23.390  0.00  0.00    -0.336 N 
ATOM      8  N   UNL     1       2.457   1.027  22.655  0.00  0.00    -0.239 NA
ATOM     17  C   UNL     1       2.558  -0.215  23.073  0.00  0.00    +0.127 A 
ATOM     19  C   UNL     1       4.617   0.566  23.158  0.00  0.00    +0.106 A 
ATOM     20  C   UNL     1       4.328  -1.810  23.881  0.00  0.00    +0.150 C 
ATOM     21  C   UNL     1       3.736   1.520  22.705  0.00  0.00    +0.130 A 
ENDBRANCH  15  17
ENDBRANCH   5  15
BRANCH  16  18
ATOM     18  C   UNL     1      -3.862   4.122  24.969  0.00  0.00    +0.255 C 
BRANCH  18   3
ATOM      3  O   UNL     1      -2.839   4.357  25.906  0.00  0.00    -0.374 OA
ATOM     22  C   UNL     1      -1.669   4.904  25.297  0.00  0.00    +0.194 C 
ENDBRANCH  18   3
ENDBRANCH  16  18
TORSDOF 4
ENDMDL
MODEL 4
REMARK VINA RESULT:      -2.1      1.620      2.180
REMARK  Name = 86769013
REMARK  6 active torsions:
REMARK  status: ('A' for Active; 'I' for Inactive)
REMARK    1  A    between atoms: O_3  and  C_18
REMARK    2  A    between atoms: O_3  and  C_22
REMARK    3  A    between atoms: N_5  and  C_15
REMARK    4  A    between atoms: N_7  and  C_20
REMARK    5  A    between atoms: C_15  and  C_17
REMARK    6  A    between atoms: C_16  and  C_18
REMARK                            x       y       z     vdW  Elec       q    Type
REMARK                         _______ _______ _______ _____ _____    ______ ____
ROOT
ATOM      1  O   UNL     1      -8.731  -9.081  10.665  0.00  0.00    -0.252 OA
ATOM      2  O   UNL     1      -3.945 -10.743  15.437  0.00  0.00    -0.273 OA
ATOM      4  N   UNL     1      -6.664  -9.729  11.574  0.00  0.00    -0.278 N 
ATOM      5  N   UNL     1      -6.737  -9.136   9.408  0.00  0.00    -0.276 N 
ATOM      6  N   UNL     1      -4.577  -9.797  13.413  0.00  0.00    -0.296 N 
ATOM      9  C   UNL     1      -5.322  -9.984  11.079  0.00  0.00    +0.112 C 
ATOM     10  C   UNL     1      -5.330  -9.379   9.678  0.00  0.00    +0.134 C 
ATOM     11  C   UNL     1      -4.283  -9.388  12.027  0.00  0.00    +0.132 C 
ATOM     12  C   UNL     1      -6.993 -10.033  12.955  0.00  0.00    +0.128 C 
ATOM     13  C   UNL     1      -5.928  -9.453  13.882  0.00  0.00    +0.127 C 
ATOM     14  C   UNL     1      -7.530  -9.292  10.562  0.00  0.00    +0.306 C 
ATOM     16  C   UNL     1      -3.684 -10.434  14.273  0.00  0.00    +0.241 C 
ENDROOT
BRANCH   5  15
ATOM     15  C   UNL     1      -7.198  -8.655   8.124  0.00  0.00    +0.183 C 
BRANCH  15  17
ATOM      7  N   UNL     1      -9.500  -7.668   8.294  0.00  0.00    -0.336 N 
ATOM      8  N   UNL     1      -7.809  -6.232   8.368  0.00  0.00    -0.239 NA
ATOM     17  C   UNL     1      -8.145  -7.498   8.264  0.00  0.00    +0.127 A 
ATOM     19  C   UNL     1     -10.066  -6.431   8.427  0.00  0.00    +0.106 A 
ATOM     20  C   UNL     1     -10.221  -8.916   8.203  0.00  0.00    +0.150 C 
ATOM     21  C   UNL     1      -9.002  -5.561   8.471  0.00  0.00    +0.130 A 
ENDBRANCH  15  17
ENDBRANCH   5  15
BRANCH  16  18
ATOM     18  C   UNL     1      -2.321 -10.753  13.712  0.00  0.00    +0.255 C 
BRANCH  18   3
ATOM      3  O   UNL     1      -1.452  -9.746  14.171  0.00  0.00    -0.374 OA
ATOM     22  C   UNL     1      -0.940 -10.031  15.472  0.00  0.00    +0.194 C 
ENDBRANCH  18   3
ENDBRANCH  16  18
TORSDOF 4
ENDMDL
MODEL 5
REMARK VINA RESULT:      -1.5      1.994      2.264
REMARK  Name = 86769013
REMARK  6 active torsions:
REMARK  status: ('A' for Active; 'I' for Inactive)
REMARK    1  A    between atoms: O_3  and  C_18
REMARK    2  A    between atoms: O_3  and  C_22
REMARK    3  A    between atoms: N_5  and  C_15
REMARK    4  A    between atoms: N_7  and  C_20
REMARK    5  A    between atoms: C_15  and  C_17
REMARK    6  A    between atoms: C_16  and  C_18
REMARK                            x       y       z     vdW  Elec       q    Type
REMARK                         _______ _______ _______ _____ _____    ______ ____
ROOT
ATOM      1  O   UNL     1      -9.048 -10.576  13.267  0.00  0.00    -0.252 OA
ATOM      2  O   UNL     1      -2.242 -10.475  14.723  0.00  0.00    -0.273 OA
ATOM      4  N   UNL     1      -6.724 -10.668  12.930  0.00  0.00    -0.278 N 
ATOM      5  N   UNL     1      -8.057 -10.488  11.129  0.00  0.00    -0.276 N 
ATOM      6  N   UNL     1      -4.046 -10.030  13.330  0.00  0.00    -0.296 N 
ATOM      9  C   UNL     1      -5.821 -10.757  11.795  0.00  0.00    +0.112 C 
ATOM     10  C   UNL     1      -6.707 -10.420  10.598  0.00  0.00    +0.134 C 
ATOM     11  C   UNL     1      -4.628  -9.825  11.990  0.00  0.00    +0.132 C 
ATOM     12  C   UNL     1      -6.200 -10.779  14.278  0.00  0.00    +0.128 C 
ATOM     13  C   UNL     1      -4.992  -9.861  14.443  0.00  0.00    +0.127 C 
ATOM     14  C   UNL     1      -8.067 -10.580  12.535  0.00  0.00    +0.306 C 
ATOM     16  C   UNL     1      -2.711 -10.333  13.591  0.00  0.00    +0.241 C 
ENDROOT
BRANCH   5  15
ATOM     15  C   UNL     1      -9.221 -10.333  10.284  0.00  0.00    +0.183 C 
BRANCH  15  17
ATOM      7  N   UNL     1      -8.451  -8.517   8.728  0.00  0.00    -0.336 N 
ATOM      8  N   UNL     1     -10.183  -8.027  10.028  0.00  0.00    -0.239 NA
ATOM     17  C   UNL     1      -9.310  -8.953   9.698  0.00  0.00    +0.127 A 
ATOM     19  C   UNL     1      -8.799  -7.232   8.419  0.00  0.00    +0.106 A 
ATOM     20  C   UNL     1      -7.369  -9.263   8.128  0.00  0.00    +0.150 C 
ATOM     21  C   UNL     1      -9.871  -6.952   9.234  0.00  0.00    +0.130 A 
ENDBRANCH  15  17
ENDBRANCH   5  15
BRANCH  16  18
ATOM     18  C   UNL     1      -1.809 -10.493  12.393  0.00  0.00    +0.255 C 
BRANCH  18   3
ATOM      3  O   UNL     1      -1.208  -9.240  12.172  0.00  0.00    -0.374 OA
ATOM     22  C   UNL     1      -0.351  -9.251  11.032  0.00  0.00    +0.194 C 
ENDBRANCH  18   3
ENDBRANCH  16  18
TORSDOF 4
ENDMDL
MODEL 6
REMARK VINA RESULT:      -0.2     16.084     17.523
REMARK  Name = 86769013
REMARK  6 active torsions:
REMARK  status: ('A' for Active; 'I' for Inactive)
REMARK    1  A    between atoms: O_3  and  C_18
REMARK    2  A    between atoms: O_3  and  C_22
REMARK    3  A    between atoms: N_5  and  C_15
REMARK    4  A    between atoms: N_7  and  C_20
REMARK    5  A    between atoms: C_15  and  C_17
REMARK    6  A    between atoms: C_16  and  C_18
REMARK                            x       y       z     vdW  Elec       q    Type
REMARK                         _______ _______ _______ _____ _____    ______ ____
ROOT
ATOM      1  O   UNL     1      -3.968  -0.146  24.099  0.00  0.00    -0.252 OA
ATOM      2  O   UNL     1       2.855  -1.393  23.525  0.00  0.00    -0.273 OA
ATOM      4  N   UNL     1      -1.713   0.180  23.526  0.00  0.00    -0.278 N 
ATOM      5  N   UNL     1      -3.119   1.925  23.356  0.00  0.00    -0.276 N 
ATOM      6  N   UNL     1       1.052   0.042  23.806  0.00  0.00    -0.296 N 
ATOM      9  C   UNL     1      -0.911   1.241  22.942  0.00  0.00    +0.112 C 
ATOM     10  C   UNL     1      -1.812   2.470  23.032  0.00  0.00    +0.134 C 
ATOM     11  C   UNL     1       0.420   1.369  23.678  0.00  0.00    +0.132 C 
ATOM     12  C   UNL     1      -1.124  -1.127  23.754  0.00  0.00    +0.128 C 
ATOM     13  C   UNL     1       0.218  -0.974  24.466  0.00  0.00    +0.127 C 
ATOM     14  C   UNL     1      -3.050   0.562  23.707  0.00  0.00    +0.306 C 
ATOM     16  C   UNL     1       2.340  -0.282  23.384  0.00  0.00    +0.241 C 
ENDROOT
BRANCH   5  15
ATOM     15  C   UNL     1      -4.299   2.758  23.431  0.00  0.00    +0.183 C 
BRANCH  15  17
ATOM      7  N   UNL     1      -4.622   3.152  25.890  0.00  0.00    -0.336 N 
ATOM      8  N   UNL     1      -6.128   1.858  24.898  0.00  0.00    -0.239 NA
ATOM     17  C   UNL     1      -5.038   2.572  24.725  0.00  0.00    +0.127 A 
ATOM     19  C   UNL     1      -5.503   2.786  26.868  0.00  0.00    +0.106 A 
ATOM     20  C   UNL     1      -3.466   4.000  26.074  0.00  0.00    +0.150 C 
ATOM     21  C   UNL     1      -6.424   1.988  26.231  0.00  0.00    +0.130 A 
ENDBRANCH  15  17
ENDBRANCH   5  15
BRANCH  16  18
ATOM     18  C   UNL     1       3.126   0.817  22.714  0.00  0.00    +0.255 C 
BRANCH  18   3
ATOM      3  O   UNL     1       4.428   0.320  22.522  0.00  0.00    -0.374 OA
ATOM     22  C   UNL     1       5.267   0.567  23.650  0.00  0.00    +0.194 C 
ENDBRANCH  18   3
ENDBRANCH  16  18
TORSDOF 4
ENDMDL
MODEL 7
REMARK VINA RESULT:       0.1      2.816      3.512
REMARK  Name = 86769013
REMARK  6 active torsions:
REMARK  status: ('A' for Active; 'I' for Inactive)
REMARK    1  A    between atoms: O_3  and  C_18
REMARK    2  A    between atoms: O_3  and  C_22
REMARK    3  A    between atoms: N_5  and  C_15
REMARK    4  A    between atoms: N_7  and  C_20
REMARK    5  A    between atoms: C_15  and  C_17
REMARK    6  A    between atoms: C_16  and  C_18
REMARK                            x       y       z     vdW  Elec       q    Type
REMARK                         _______ _______ _______ _____ _____    ______ ____
ROOT
ATOM      1  O   UNL     1      -7.931  -9.514  10.900  0.00  0.00    -0.252 OA
ATOM      2  O   UNL     1      -1.691 -10.781  13.711  0.00  0.00    -0.273 OA
ATOM      4  N   UNL     1      -5.611  -9.865  11.041  0.00  0.00    -0.278 N 
ATOM      5  N   UNL     1      -6.453  -9.058   9.119  0.00  0.00    -0.276 N 
ATOM      6  N   UNL     1      -3.061  -9.749  12.146  0.00  0.00    -0.296 N 
ATOM      9  C   UNL     1      -4.475  -9.809  10.137  0.00  0.00    +0.112 C 
ATOM     10  C   UNL     1      -5.014  -9.064   8.919  0.00  0.00    +0.134 C 
ATOM     11  C   UNL     1      -3.284  -9.141  10.821  0.00  0.00    +0.132 C 
ATOM     12  C   UNL     1      -5.438 -10.376  12.387  0.00  0.00    +0.128 C 
ATOM     13  C   UNL     1      -4.227  -9.716  13.041  0.00  0.00    +0.127 C 
ATOM     14  C   UNL     1      -6.807  -9.486  10.414  0.00  0.00    +0.306 C 
ATOM     16  C   UNL     1      -1.860 -10.301  12.588  0.00  0.00    +0.241 C 
ENDROOT
BRANCH   5  15
ATOM     15  C   UNL     1      -7.361  -8.531   8.124  0.00  0.00    +0.183 C 
BRANCH  15  17
ATOM      7  N   UNL     1      -9.421  -7.277   8.828  0.00  0.00    -0.336 N 
ATOM      8  N   UNL     1      -9.533  -9.492   8.941  0.00  0.00    -0.239 NA
ATOM     17  C   UNL     1      -8.773  -8.465   8.632  0.00  0.00    +0.127 A 
ATOM     19  C   UNL     1     -10.674  -7.565   9.290  0.00  0.00    +0.106 A 
ATOM     20  C   UNL     1      -8.894  -5.953   8.594  0.00  0.00    +0.150 C 
ATOM     21  C   UNL     1     -10.719  -8.938   9.352  0.00  0.00    +0.130 A 
ENDBRANCH  15  17
ENDBRANCH   5  15
BRANCH  16  18
ATOM     18  C   UNL     1      -0.715 -10.298  11.606  0.00  0.00    +0.255 C 
BRANCH  18   3
ATOM      3  O   UNL     1      -0.322  -8.956  11.452  0.00  0.00    -0.374 OA
ATOM     22  C   UNL     1       0.920  -8.838  10.759  0.00  0.00    +0.194 C 
ENDBRANCH  18   3
ENDBRANCH  16  18
TORSDOF 4
ENDMDL
MODEL 8
REMARK VINA RESULT:       0.3     27.195     29.076
REMARK  Name = 86769013
REMARK  6 active torsions:
REMARK  status: ('A' for Active; 'I' for Inactive)
REMARK    1  A    between atoms: O_3  and  C_18
REMARK    2  A    between atoms: O_3  and  C_22
REMARK    3  A    between atoms: N_5  and  C_15
REMARK    4  A    between atoms: N_7  and  C_20
REMARK    5  A    between atoms: C_15  and  C_17
REMARK    6  A    between atoms: C_16  and  C_18
REMARK                            x       y       z     vdW  Elec       q    Type
REMARK                         _______ _______ _______ _____ _____    ______ ____
ROOT
ATOM      1  O   UNL     1      16.020  -7.488  28.463  0.00  0.00    -0.252 OA
ATOM      2  O   UNL     1      16.439  -4.362  22.258  0.00  0.00    -0.273 OA
ATOM      4  N   UNL     1      16.207  -5.766  26.875  0.00  0.00    -0.278 N 
ATOM      5  N   UNL     1      16.623  -5.280  29.030  0.00  0.00    -0.276 N 
ATOM      6  N   UNL     1      16.990  -4.532  24.508  0.00  0.00    -0.296 N 
ATOM      9  C   UNL     1      16.428  -4.330  26.891  0.00  0.00    +0.112 C 
ATOM     10  C   UNL     1      16.916  -4.052  28.310  0.00  0.00    +0.134 C 
ATOM     11  C   UNL     1      17.405  -3.929  25.788  0.00  0.00    +0.132 C 
ATOM     12  C   UNL     1      15.876  -6.431  25.629  0.00  0.00    +0.128 C 
ATOM     13  C   UNL     1      16.848  -5.995  24.534  0.00  0.00    +0.127 C 
ATOM     14  C   UNL     1      16.251  -6.324  28.161  0.00  0.00    +0.306 C 
ATOM     16  C   UNL     1      16.762  -3.832  23.324  0.00  0.00    +0.241 C 
ENDROOT
BRANCH   5  15
ATOM     15  C   UNL     1      16.838  -5.402  30.455  0.00  0.00    +0.183 C 
BRANCH  15  17
ATOM      7  N   UNL     1      14.877  -6.129  31.844  0.00  0.00    -0.336 N 
ATOM      8  N   UNL     1      15.034  -3.953  31.431  0.00  0.00    -0.239 NA
ATOM     17  C   UNL     1      15.586  -5.130  31.238  0.00  0.00    +0.127 A 
ATOM     19  C   UNL     1      13.804  -5.552  32.465  0.00  0.00    +0.106 A 
ATOM     20  C   UNL     1      15.187  -7.539  31.841  0.00  0.00    +0.150 C 
ATOM     21  C   UNL     1      13.923  -4.208  32.195  0.00  0.00    +0.130 A 
ENDBRANCH  15  17
ENDBRANCH   5  15
BRANCH  16  18
ATOM     18  C   UNL     1      16.926  -2.334  23.384  0.00  0.00    +0.255 C 
BRANCH  18   3
ATOM      3  O   UNL     1      15.854  -1.843  24.151  0.00  0.00    -0.374 OA
ATOM     22  C   UNL     1      16.299  -1.037  25.240  0.00  0.00    +0.194 C 
ENDBRANCH  18   3
ENDBRANCH  16  18
TORSDOF 4
ENDMDL
MODEL 9
REMARK VINA RESULT:       0.5     16.137     18.400
REMARK  Name = 86769013
REMARK  6 active torsions:
REMARK  status: ('A' for Active; 'I' for Inactive)
REMARK    1  A    between atoms: O_3  and  C_18
REMARK    2  A    between atoms: O_3  and  C_22
REMARK    3  A    between atoms: N_5  and  C_15
REMARK    4  A    between atoms: N_7  and  C_20
REMARK    5  A    between atoms: C_15  and  C_17
REMARK    6  A    between atoms: C_16  and  C_18
REMARK                            x       y       z     vdW  Elec       q    Type
REMARK                         _______ _______ _______ _____ _____    ______ ____
ROOT
ATOM      1  O   UNL     1       1.046   2.314  24.397  0.00  0.00    -0.252 OA
ATOM      2  O   UNL     1      -5.544   4.337  25.355  0.00  0.00    -0.273 OA
ATOM      4  N   UNL     1      -1.302   2.218  24.433  0.00  0.00    -0.278 N 
ATOM      5  N   UNL     1      -0.161   0.304  24.135  0.00  0.00    -0.276 N 
ATOM      6  N   UNL     1      -3.876   2.721  25.359  0.00  0.00    -0.296 N 
ATOM      9  C   UNL     1      -2.325   1.215  24.192  0.00  0.00    +0.112 C 
ATOM     10  C   UNL     1      -1.554  -0.102  24.207  0.00  0.00    +0.134 C 
ATOM     11  C   UNL     1      -3.430   1.321  25.240  0.00  0.00    +0.132 C 
ATOM     12  C   UNL     1      -1.683   3.603  24.640  0.00  0.00    +0.128 C 
ATOM     13  C   UNL     1      -2.808   3.683  25.670  0.00  0.00    +0.127 C 
ATOM     14  C   UNL     1      -0.006   1.692  24.327  0.00  0.00    +0.306 C 
ATOM     16  C   UNL     1      -5.192   3.163  25.227  0.00  0.00    +0.241 C 
ENDROOT
BRANCH   5  15
ATOM     15  C   UNL     1       0.913  -0.658  24.019  0.00  0.00    +0.183 C 
BRANCH  15  17
ATOM      7  N   UNL     1       2.077  -0.140  21.855  0.00  0.00    -0.336 N 
ATOM      8  N   UNL     1       3.164   0.412  23.711  0.00  0.00    -0.239 NA
ATOM     17  C   UNL     1       2.066  -0.121  23.222  0.00  0.00    +0.127 A 
ATOM     19  C   UNL     1       3.256   0.416  21.447  0.00  0.00    +0.106 A 
ATOM     20  C   UNL     1       1.042  -0.651  20.986  0.00  0.00    +0.150 C 
ATOM     21  C   UNL     1       3.910   0.749  22.610  0.00  0.00    +0.130 A 
ENDBRANCH  15  17
ENDBRANCH   5  15
BRANCH  16  18
ATOM     18  C   UNL     1      -6.226   2.113  24.904  0.00  0.00    +0.255 C 
BRANCH  18   3
ATOM      3  O   UNL     1      -6.148   1.146  25.923  0.00  0.00    -0.374 OA
ATOM     22  C   UNL     1      -6.737   1.602  27.140  0.00  0.00    +0.194 C 
ENDBRANCH  18   3
ENDBRANCH  16  18
TORSDOF 4
ENDMDL
