MODEL 1
REMARK VINA RESULT:       5.4      0.000      0.000
REMARK  Name = 11884002
REMARK  7 active torsions:
REMARK  status: ('A' for Active; 'I' for Inactive)
REMARK    1  A    between atoms: O_3  and  C_13
REMARK    2  A    between atoms: O_3  and  C_17
REMARK    3  A    between atoms: N_7  and  C_12
REMARK    4  A    between atoms: N_8  and  C_18
REMARK    5  A    between atoms: N_9  and  C_19
REMARK    6  A    between atoms: C_30  and  C_34
REMARK    7  A    between atoms: C_34  and  C_35
REMARK                            x       y       z     vdW  Elec       q    Type
REMARK                         _______ _______ _______ _____ _____    ______ ____
ROOT
ATOM      1  O   UNL     1      -3.828   3.600  23.994  0.00  0.00    -0.368 OA
ATOM      2  O   UNL     1      -2.635   4.959  26.469  0.00  0.00    -0.368 OA
ATOM     10  C   UNL     1      -2.066   4.035  25.519  0.00  0.00    +0.173 C 
ATOM     11  C   UNL     1      -3.163   3.058  25.147  0.00  0.00    +0.192 C 
ATOM     12  C   UNL     1      -1.758   4.746  24.223  0.00  0.00    +0.131 C 
ATOM     13  C   UNL     1      -4.051   3.083  26.368  0.00  0.00    +0.235 C 
ATOM     14  C   UNL     1      -3.111   4.754  23.531  0.00  0.00    +0.185 C 
ATOM     15  C   UNL     1      -3.965   4.530  26.796  0.00  0.00    +0.207 C 
ENDROOT
BRANCH  12   7
ATOM      4  O   UNL     1       0.080   2.777  25.199  0.00  0.00    -0.252 OA
ATOM      7  N   UNL     1      -0.778   4.023  23.450  0.00  0.00    -0.292 N 
ATOM      8  N   UNL     1       0.923   2.539  23.021  0.00  0.00    -0.269 N 
ATOM     16  C   UNL     1       0.087   3.072  24.006  0.00  0.00    +0.304 C 
ATOM     36  H   UNL     1      -0.756   4.163  22.444  0.00  0.00    +0.151 HD
ATOM     37  H   UNL     1       0.800   2.896  22.076  0.00  0.00    +0.156 HD
BRANCH   8  18
ATOM     18  C   UNL     1       1.929   1.557  23.175  0.00  0.00    +0.035 A 
ATOM     21  C   UNL     1       3.275   1.919  23.095  0.00  0.00    +0.024 A 
ATOM     22  C   UNL     1       1.577   0.227  23.405  0.00  0.00    +0.024 A 
ATOM     28  C   UNL     1       4.267   0.951  23.246  0.00  0.00    +0.013 A 
ATOM     29  C   UNL     1       2.570  -0.741  23.555  0.00  0.00    +0.013 A 
ATOM     30  C   UNL     1       3.915  -0.379  23.476  0.00  0.00    +0.017 A 
BRANCH  30  34
ATOM      6  O   UNL     1       4.667  -2.582  23.856  0.00  0.00    -0.292 OA
ATOM     34  C   UNL     1       4.950  -1.389  23.632  0.00  0.00    +0.160 C 
ATOM     35  C   UNL     1       6.422  -1.003  23.526  0.00  0.00    +0.091 C 
ENDBRANCH  30  34
ENDBRANCH   8  18
ENDBRANCH  12   7
BRANCH  13   3
ATOM      3  O   UNL     1      -5.378   2.684  26.107  0.00  0.00    -0.442 OA
BRANCH   3  17
ATOM      5  O   UNL     1      -6.620   1.150  24.951  0.00  0.00    -0.226 OA
ATOM      9  N   UNL     1      -4.360   0.786  25.441  0.00  0.00    -0.251 N 
ATOM     17  C   UNL     1      -5.551   1.487  25.443  0.00  0.00    +0.405 C 
ATOM     38  H   UNL     1      -3.596   1.258  25.910  0.00  0.00    +0.158 HD
BRANCH   9  19
ATOM     19  C   UNL     1      -4.097  -0.482  24.872  0.00  0.00    +0.044 A 
ATOM     20  C   UNL     1      -2.844  -1.101  24.992  0.00  0.00    +0.003 A 
ATOM     23  C   UNL     1      -5.136  -1.104  24.177  0.00  0.00    +0.024 A 
ATOM     24  C   UNL     1      -2.639  -2.371  24.401  0.00  0.00    -0.016 A 
ATOM     25  C   UNL     1      -1.787  -0.489  25.687  0.00  0.00    +0.010 A 
ATOM     26  C   UNL     1      -4.936  -2.352  23.595  0.00  0.00    +0.002 A 
ATOM     27  C   UNL     1      -3.695  -2.983  23.705  0.00  0.00    +0.008 A 
ATOM     31  C   UNL     1      -1.385  -2.990  24.521  0.00  0.00    +0.008 A 
ATOM     32  C   UNL     1      -0.548  -1.121  25.796  0.00  0.00    +0.001 A 
ATOM     33  C   UNL     1      -0.346  -2.368  25.215  0.00  0.00    +0.001 A 
ENDBRANCH   9  19
ENDBRANCH   3  17
ENDBRANCH  13   3
TORSDOF 6
ENDMDL
MODEL 2
REMARK VINA RESULT:       7.6      1.969      4.617
REMARK  Name = 11884002
REMARK  7 active torsions:
REMARK  status: ('A' for Active; 'I' for Inactive)
REMARK    1  A    between atoms: O_3  and  C_13
REMARK    2  A    between atoms: O_3  and  C_17
REMARK    3  A    between atoms: N_7  and  C_12
REMARK    4  A    between atoms: N_8  and  C_18
REMARK    5  A    between atoms: N_9  and  C_19
REMARK    6  A    between atoms: C_30  and  C_34
REMARK    7  A    between atoms: C_34  and  C_35
REMARK                            x       y       z     vdW  Elec       q    Type
REMARK                         _______ _______ _______ _____ _____    ______ ____
ROOT
ATOM      1  O   UNL     1      -3.320   0.132  25.527  0.00  0.00    -0.368 OA
ATOM      2  O   UNL     1      -4.711  -1.958  23.767  0.00  0.00    -0.368 OA
ATOM     10  C   UNL     1      -3.658  -1.015  23.479  0.00  0.00    +0.173 C 
ATOM     11  C   UNL     1      -3.977   0.248  24.254  0.00  0.00    +0.192 C 
ATOM     12  C   UNL     1      -2.356  -1.490  24.081  0.00  0.00    +0.131 C 
ATOM     13  C   UNL     1      -5.479   0.178  24.391  0.00  0.00    +0.235 C 
ATOM     14  C   UNL     1      -2.484  -1.035  25.525  0.00  0.00    +0.185 C 
ATOM     15  C   UNL     1      -5.714  -1.306  24.559  0.00  0.00    +0.207 C 
ENDROOT
BRANCH  12   7
ATOM      4  O   UNL     1       0.395  -1.734  24.842  0.00  0.00    -0.252 OA
ATOM      7  N   UNL     1      -1.225  -0.872  23.434  0.00  0.00    -0.292 N 
ATOM      8  N   UNL     1       0.975  -0.328  23.055  0.00  0.00    -0.269 N 
ATOM     16  C   UNL     1       0.095  -1.044  23.872  0.00  0.00    +0.304 C 
ATOM     36  H   UNL     1      -1.385  -0.340  22.584  0.00  0.00    +0.151 HD
ATOM     37  H   UNL     1       0.561   0.198  22.288  0.00  0.00    +0.156 HD
BRANCH   8  18
ATOM     18  C   UNL     1       2.382  -0.242  23.162  0.00  0.00    +0.035 A 
ATOM     21  C   UNL     1       3.043   0.919  22.757  0.00  0.00    +0.024 A 
ATOM     22  C   UNL     1       3.111  -1.318  23.670  0.00  0.00    +0.024 A 
ATOM     28  C   UNL     1       4.431   1.004  22.863  0.00  0.00    +0.013 A 
ATOM     29  C   UNL     1       4.500  -1.233  23.774  0.00  0.00    +0.013 A 
ATOM     30  C   UNL     1       5.159  -0.072  23.370  0.00  0.00    +0.017 A 
BRANCH  30  34
ATOM      6  O   UNL     1       7.153   0.853  24.227  0.00  0.00    -0.292 OA
ATOM     34  C   UNL     1       6.607   0.017  23.479  0.00  0.00    +0.160 C 
ATOM     35  C   UNL     1       7.498  -0.920  22.671  0.00  0.00    +0.091 C 
ENDBRANCH  30  34
ENDBRANCH   8  18
ENDBRANCH  12   7
BRANCH  13   3
ATOM      3  O   UNL     1      -5.981   0.922  25.478  0.00  0.00    -0.442 OA
BRANCH   3  17
ATOM      5  O   UNL     1      -5.808   2.925  26.569  0.00  0.00    -0.226 OA
ATOM      9  N   UNL     1      -4.314   2.315  24.872  0.00  0.00    -0.251 N 
ATOM     17  C   UNL     1      -5.393   2.147  25.719  0.00  0.00    +0.405 C 
ATOM     38  H   UNL     1      -4.150   1.536  24.245  0.00  0.00    +0.158 HD
BRANCH   9  19
ATOM     19  C   UNL     1      -3.439   3.423  24.786  0.00  0.00    +0.044 A 
ATOM     20  C   UNL     1      -2.082   3.321  25.131  0.00  0.00    +0.003 A 
ATOM     23  C   UNL     1      -3.974   4.633  24.344  0.00  0.00    +0.024 A 
ATOM     24  C   UNL     1      -1.254   4.464  25.026  0.00  0.00    -0.016 A 
ATOM     25  C   UNL     1      -1.528   2.110  25.578  0.00  0.00    +0.010 A 
ATOM     26  C   UNL     1      -3.160   5.758  24.241  0.00  0.00    +0.002 A 
ATOM     27  C   UNL     1      -1.808   5.675  24.579  0.00  0.00    +0.008 A 
ATOM     31  C   UNL     1       0.103   4.363  25.371  0.00  0.00    +0.008 A 
ATOM     32  C   UNL     1      -0.176   2.029  25.916  0.00  0.00    +0.001 A 
ATOM     33  C   UNL     1       0.638   3.152  25.813  0.00  0.00    +0.001 A 
ENDBRANCH   9  19
ENDBRANCH   3  17
ENDBRANCH  13   3
TORSDOF 6
ENDMDL
