MODEL 1
REMARK VINA RESULT:      -6.6      0.000      0.000
REMARK  Name = 75367059
REMARK  10 active torsions:
REMARK  status: ('A' for Active; 'I' for Inactive)
REMARK    1  A    between atoms: O_2  and  C_11
REMARK    2  A    between atoms: N_4  and  C_6
REMARK    3  A    between atoms: N_4  and  C_7
REMARK    4  A    between atoms: N_5  and  C_14
REMARK    5  A    between atoms: C_12  and  C_14
REMARK    6  A    between atoms: C_15  and  C_16
REMARK    7  A    between atoms: C_15  and  C_18
REMARK    8  A    between atoms: C_15  and  C_19
REMARK    9  A    between atoms: C_15  and  C_20
REMARK   10  A    between atoms: C_16  and  C_17
REMARK                            x       y       z     vdW  Elec       q    Type
REMARK                         _______ _______ _______ _____ _____    ______ ____
ROOT
ATOM      1  O   UNL     1      -1.116   2.025  23.040  0.00  0.00    -0.371 OA
ATOM      7  C   UNL     1      -2.940   3.362  23.767  0.00  0.00    +0.111 C 
ATOM     11  C   UNL     1      -2.082   2.999  24.966  0.00  0.00    +0.164 C 
ATOM     12  C   UNL     1      -0.766   2.645  24.288  0.00  0.00    +0.165 C 
ATOM     13  C   UNL     1      -2.495   2.320  22.753  0.00  0.00    +0.181 C 
ENDROOT
BRANCH  11   2
ATOM      2  O   UNL     1      -1.935   4.072  25.876  0.00  0.00    -0.388 OA
ATOM     22  H   UNL     1      -1.058   4.001  26.292  0.00  0.00    +0.210 HD
ENDBRANCH  11   2
BRANCH   7   4
ATOM      4  N   UNL     1      -4.368   3.315  24.036  0.00  0.00    -0.306 NA
ATOM     21  H   UNL     1      -4.848   3.070  23.170  0.00  0.00    +0.123 HD
BRANCH   4   6
ATOM      6  C   UNL     1      -4.630   2.375  25.116  0.00  0.00    +0.054 C 
ATOM      8  C   UNL     1      -5.875   1.532  24.766  0.00  0.00    +0.019 C 
ATOM      9  C   UNL     1      -5.491   3.065  26.195  0.00  0.00    +0.019 C 
ATOM     10  C   UNL     1      -6.340   1.774  26.220  0.00  0.00    +0.003 C 
ENDBRANCH   4   6
ENDBRANCH   7   4
BRANCH  12  14
ATOM     14  C   UNL     1       0.096   1.699  25.106  0.00  0.00    +0.138 C 
BRANCH  14   5
ATOM      3  O   UNL     1       0.173  -0.755  23.570  0.00  0.00    -0.276 OA
ATOM      5  N   UNL     1      -0.599   0.464  25.392  0.00  0.00    -0.313 N 
ATOM     17  C   UNL     1      -0.500  -0.663  24.594  0.00  0.00    +0.214 C 
ATOM     23  H   UNL     1      -1.176   0.434  26.227  0.00  0.00    +0.149 HD
BRANCH  17  16
ATOM     16  C   UNL     1      -1.332  -1.828  25.105  0.00  0.00    +0.102 C 
BRANCH  16  15
ATOM     15  C   UNL     1      -2.859  -1.667  24.907  0.00  0.00    -0.029 C 
ATOM     18  C   UNL     1      -3.537  -1.119  26.173  0.00  0.00    +0.011 C 
ATOM     19  C   UNL     1      -3.168  -0.735  23.723  0.00  0.00    +0.011 C 
ATOM     20  C   UNL     1      -3.449  -3.057  24.600  0.00  0.00    +0.011 C 
ENDBRANCH  16  15
ENDBRANCH  17  16
ENDBRANCH  14   5
ENDBRANCH  12  14
TORSDOF 7
ENDMDL
MODEL 2
REMARK VINA RESULT:      -6.5      1.504      4.680
REMARK  Name = 75367059
REMARK  10 active torsions:
REMARK  status: ('A' for Active; 'I' for Inactive)
REMARK    1  A    between atoms: O_2  and  C_11
REMARK    2  A    between atoms: N_4  and  C_6
REMARK    3  A    between atoms: N_4  and  C_7
REMARK    4  A    between atoms: N_5  and  C_14
REMARK    5  A    between atoms: C_12  and  C_14
REMARK    6  A    between atoms: C_15  and  C_16
REMARK    7  A    between atoms: C_15  and  C_18
REMARK    8  A    between atoms: C_15  and  C_19
REMARK    9  A    between atoms: C_15  and  C_20
REMARK   10  A    between atoms: C_16  and  C_17
REMARK                            x       y       z     vdW  Elec       q    Type
REMARK                         _______ _______ _______ _____ _____    ______ ____
ROOT
ATOM      1  O   UNL     1      -0.820   1.331  25.888  0.00  0.00    -0.371 OA
ATOM      7  C   UNL     1      -0.551  -0.861  25.014  0.00  0.00    +0.111 C 
ATOM     11  C   UNL     1      -0.208   0.148  23.934  0.00  0.00    +0.164 C 
ATOM     12  C   UNL     1       0.082   1.386  24.771  0.00  0.00    +0.165 C 
ATOM     13  C   UNL     1      -1.347  -0.004  25.984  0.00  0.00    +0.181 C 
ENDROOT
BRANCH  11   2
ATOM      2  O   UNL     1       0.910  -0.239  23.159  0.00  0.00    -0.388 OA
ATOM     22  H   UNL     1       0.937  -1.211  23.125  0.00  0.00    +0.210 HD
ENDBRANCH  11   2
BRANCH   7   4
ATOM      4  N   UNL     1      -1.301  -2.007  24.525  0.00  0.00    -0.306 NA
ATOM     21  H   UNL     1      -0.892  -2.851  24.928  0.00  0.00    +0.123 HD
BRANCH   4   6
ATOM      6  C   UNL     1      -2.708  -1.846  24.856  0.00  0.00    +0.054 C 
ATOM      8  C   UNL     1      -3.465  -3.146  24.510  0.00  0.00    +0.019 C 
ATOM      9  C   UNL     1      -3.439  -1.189  23.664  0.00  0.00    +0.019 C 
ATOM     10  C   UNL     1      -4.550  -2.243  23.878  0.00  0.00    +0.003 C 
ENDBRANCH   4   6
ENDBRANCH   7   4
BRANCH  12  14
ATOM     14  C   UNL     1      -0.121   2.686  24.011  0.00  0.00    +0.138 C 
BRANCH  14   5
ATOM      3  O   UNL     1      -2.509   2.017  22.516  0.00  0.00    -0.276 OA
ATOM      5  N   UNL     1      -1.453   3.211  24.207  0.00  0.00    -0.313 N 
ATOM     17  C   UNL     1      -2.539   2.829  23.438  0.00  0.00    +0.214 C 
ATOM     23  H   UNL     1      -1.585   3.885  24.955  0.00  0.00    +0.149 HD
BRANCH  17  16
ATOM     16  C   UNL     1      -3.827   3.531  23.837  0.00  0.00    +0.102 C 
BRANCH  16  15
ATOM     15  C   UNL     1      -4.354   3.163  25.244  0.00  0.00    -0.029 C 
ATOM     18  C   UNL     1      -4.578   1.648  25.384  0.00  0.00    +0.011 C 
ATOM     19  C   UNL     1      -3.383   3.635  26.341  0.00  0.00    +0.011 C 
ATOM     20  C   UNL     1      -5.704   3.876  25.450  0.00  0.00    +0.011 C 
ENDBRANCH  16  15
ENDBRANCH  17  16
ENDBRANCH  14   5
ENDBRANCH  12  14
TORSDOF 7
ENDMDL
MODEL 3
REMARK VINA RESULT:      -6.2      1.301      1.750
REMARK  Name = 75367059
REMARK  10 active torsions:
REMARK  status: ('A' for Active; 'I' for Inactive)
REMARK    1  A    between atoms: O_2  and  C_11
REMARK    2  A    between atoms: N_4  and  C_6
REMARK    3  A    between atoms: N_4  and  C_7
REMARK    4  A    between atoms: N_5  and  C_14
REMARK    5  A    between atoms: C_12  and  C_14
REMARK    6  A    between atoms: C_15  and  C_16
REMARK    7  A    between atoms: C_15  and  C_18
REMARK    8  A    between atoms: C_15  and  C_19
REMARK    9  A    between atoms: C_15  and  C_20
REMARK   10  A    between atoms: C_16  and  C_17
REMARK                            x       y       z     vdW  Elec       q    Type
REMARK                         _______ _______ _______ _____ _____    ______ ____
ROOT
ATOM      1  O   UNL     1      -0.851   2.346  23.199  0.00  0.00    -0.371 OA
ATOM      7  C   UNL     1      -1.792   3.334  25.144  0.00  0.00    +0.111 C 
ATOM     11  C   UNL     1      -0.908   2.171  25.557  0.00  0.00    +0.164 C 
ATOM     12  C   UNL     1      -0.021   2.026  24.327  0.00  0.00    +0.165 C 
ATOM     13  C   UNL     1      -2.027   3.025  23.674  0.00  0.00    +0.181 C 
ENDROOT
BRANCH  11   2
ATOM      2  O   UNL     1      -0.153   2.445  26.722  0.00  0.00    -0.388 OA
ATOM     22  H   UNL     1      -0.715   2.944  27.339  0.00  0.00    +0.210 HD
ENDBRANCH  11   2
BRANCH   7   4
ATOM      4  N   UNL     1      -3.025   3.428  25.907  0.00  0.00    -0.306 NA
ATOM     21  H   UNL     1      -3.078   4.362  26.315  0.00  0.00    +0.123 HD
BRANCH   4   6
ATOM      6  C   UNL     1      -4.156   3.121  25.044  0.00  0.00    +0.054 C 
ATOM      8  C   UNL     1      -5.427   3.787  25.615  0.00  0.00    +0.019 C 
ATOM      9  C   UNL     1      -4.765   1.766  25.465  0.00  0.00    +0.019 C 
ATOM     10  C   UNL     1      -6.147   2.447  25.338  0.00  0.00    +0.003 C 
ENDBRANCH   4   6
ENDBRANCH   7   4
BRANCH  12  14
ATOM     14  C   UNL     1       0.553   0.629  24.162  0.00  0.00    +0.138 C 
BRANCH  14   5
ATOM      3  O   UNL     1      -0.140  -1.698  25.741  0.00  0.00    -0.276 OA
ATOM      5  N   UNL     1      -0.484  -0.339  23.887  0.00  0.00    -0.313 N 
ATOM     17  C   UNL     1      -0.743  -1.426  24.705  0.00  0.00    +0.214 C 
ATOM     23  H   UNL     1      -1.048  -0.197  23.054  0.00  0.00    +0.149 HD
BRANCH  17  16
ATOM     16  C   UNL     1      -1.876  -2.300  24.192  0.00  0.00    +0.102 C 
BRANCH  16  15
ATOM     15  C   UNL     1      -3.291  -1.709  24.398  0.00  0.00    -0.029 C 
ATOM     18  C   UNL     1      -3.476  -0.401  23.610  0.00  0.00    +0.011 C 
ATOM     19  C   UNL     1      -4.377  -2.713  23.975  0.00  0.00    +0.011 C 
ATOM     20  C   UNL     1      -3.468  -1.403  25.898  0.00  0.00    +0.011 C 
ENDBRANCH  16  15
ENDBRANCH  17  16
ENDBRANCH  14   5
ENDBRANCH  12  14
TORSDOF 7
ENDMDL
MODEL 4
REMARK VINA RESULT:      -5.8      1.683      4.200
REMARK  Name = 75367059
REMARK  10 active torsions:
REMARK  status: ('A' for Active; 'I' for Inactive)
REMARK    1  A    between atoms: O_2  and  C_11
REMARK    2  A    between atoms: N_4  and  C_6
REMARK    3  A    between atoms: N_4  and  C_7
REMARK    4  A    between atoms: N_5  and  C_14
REMARK    5  A    between atoms: C_12  and  C_14
REMARK    6  A    between atoms: C_15  and  C_16
REMARK    7  A    between atoms: C_15  and  C_18
REMARK    8  A    between atoms: C_15  and  C_19
REMARK    9  A    between atoms: C_15  and  C_20
REMARK   10  A    between atoms: C_16  and  C_17
REMARK                            x       y       z     vdW  Elec       q    Type
REMARK                         _______ _______ _______ _____ _____    ______ ____
ROOT
ATOM      1  O   UNL     1      -2.197  -2.090  25.282  0.00  0.00    -0.371 OA
ATOM      7  C   UNL     1      -3.947  -0.893  24.212  0.00  0.00    +0.111 C 
ATOM     11  C   UNL     1      -2.681  -0.059  24.173  0.00  0.00    +0.164 C 
ATOM     12  C   UNL     1      -1.618  -1.128  24.386  0.00  0.00    +0.165 C 
ATOM     13  C   UNL     1      -3.620  -1.884  25.317  0.00  0.00    +0.181 C 
ENDROOT
BRANCH  11   2
ATOM      2  O   UNL     1      -2.509   0.618  22.942  0.00  0.00    -0.388 OA
ATOM     22  H   UNL     1      -2.438  -0.047  22.235  0.00  0.00    +0.210 HD
ENDBRANCH  11   2
BRANCH   7   4
ATOM      4  N   UNL     1      -5.148  -0.120  24.483  0.00  0.00    -0.306 NA
ATOM     21  H   UNL     1      -5.802  -0.714  24.993  0.00  0.00    +0.123 HD
BRANCH   4   6
ATOM      6  C   UNL     1      -4.794   1.090  25.210  0.00  0.00    +0.054 C 
ATOM      8  C   UNL     1      -5.971   1.498  26.121  0.00  0.00    +0.019 C 
ATOM      9  C   UNL     1      -5.132   2.323  24.344  0.00  0.00    +0.019 C 
ATOM     10  C   UNL     1      -5.743   2.943  25.621  0.00  0.00    +0.003 C 
ENDBRANCH   4   6
ENDBRANCH   7   4
BRANCH  12  14
ATOM     14  C   UNL     1      -0.329  -0.584  24.979  0.00  0.00    +0.138 C 
BRANCH  14   5
ATOM      3  O   UNL     1       0.936   1.890  24.166  0.00  0.00    -0.276 OA
ATOM      5  N   UNL     1      -0.523   0.728  25.552  0.00  0.00    -0.313 N 
ATOM     17  C   UNL     1       0.130   1.859  25.093  0.00  0.00    +0.214 C 
ATOM     23  H   UNL     1      -1.181   0.810  26.321  0.00  0.00    +0.149 HD
BRANCH  17  16
ATOM     16  C   UNL     1      -0.238   3.114  25.867  0.00  0.00    +0.102 C 
BRANCH  16  15
ATOM     15  C   UNL     1      -1.368   3.958  25.230  0.00  0.00    -0.029 C 
ATOM     18  C   UNL     1      -1.854   3.343  23.908  0.00  0.00    +0.011 C 
ATOM     19  C   UNL     1      -2.561   4.103  26.191  0.00  0.00    +0.011 C 
ATOM     20  C   UNL     1      -0.806   5.363  24.937  0.00  0.00    +0.011 C 
ENDBRANCH  16  15
ENDBRANCH  17  16
ENDBRANCH  14   5
ENDBRANCH  12  14
TORSDOF 7
ENDMDL
MODEL 5
REMARK VINA RESULT:      -4.8      2.053      4.466
REMARK  Name = 75367059
REMARK  10 active torsions:
REMARK  status: ('A' for Active; 'I' for Inactive)
REMARK    1  A    between atoms: O_2  and  C_11
REMARK    2  A    between atoms: N_4  and  C_6
REMARK    3  A    between atoms: N_4  and  C_7
REMARK    4  A    between atoms: N_5  and  C_14
REMARK    5  A    between atoms: C_12  and  C_14
REMARK    6  A    between atoms: C_15  and  C_16
REMARK    7  A    between atoms: C_15  and  C_18
REMARK    8  A    between atoms: C_15  and  C_19
REMARK    9  A    between atoms: C_15  and  C_20
REMARK   10  A    between atoms: C_16  and  C_17
REMARK                            x       y       z     vdW  Elec       q    Type
REMARK                         _______ _______ _______ _____ _____    ______ ____
ROOT
ATOM      1  O   UNL     1      -0.688  -1.396  23.218  0.00  0.00    -0.371 OA
ATOM      7  C   UNL     1       0.303   0.154  24.721  0.00  0.00    +0.111 C 
ATOM     11  C   UNL     1      -0.962  -0.403  25.347  0.00  0.00    +0.164 C 
ATOM     12  C   UNL     1      -1.143  -1.688  24.549  0.00  0.00    +0.165 C 
ATOM     13  C   UNL     1       0.087  -0.185  23.255  0.00  0.00    +0.181 C 
ENDROOT
BRANCH  11   2
ATOM      2  O   UNL     1      -0.821  -0.657  26.731  0.00  0.00    -0.388 OA
ATOM     22  H   UNL     1      -0.079  -1.274  26.855  0.00  0.00    +0.210 HD
ENDBRANCH  11   2
BRANCH   7   4
ATOM      4  N   UNL     1       0.491   1.577  24.951  0.00  0.00    -0.306 NA
ATOM     21  H   UNL     1       1.199   1.915  24.299  0.00  0.00    +0.123 HD
BRANCH   4   6
ATOM      6  C   UNL     1      -0.784   2.265  24.810  0.00  0.00    +0.054 C 
ATOM      8  C   UNL     1      -0.546   3.652  24.175  0.00  0.00    +0.019 C 
ATOM      9  C   UNL     1      -1.112   3.005  26.125  0.00  0.00    +0.019 C 
ATOM     10  C   UNL     1      -1.512   4.211  25.245  0.00  0.00    +0.003 C 
ENDBRANCH   4   6
ENDBRANCH   7   4
BRANCH  12  14
ATOM     14  C   UNL     1      -2.582  -2.170  24.506  0.00  0.00    +0.138 C 
BRANCH  14   5
ATOM      3  O   UNL     1      -3.727   0.279  23.467  0.00  0.00    -0.276 OA
ATOM      5  N   UNL     1      -3.467  -1.257  25.192  0.00  0.00    -0.313 N 
ATOM     17  C   UNL     1      -3.967  -0.104  24.610  0.00  0.00    +0.214 C 
ATOM     23  H   UNL     1      -3.735  -1.490  26.144  0.00  0.00    +0.149 HD
BRANCH  17  16
ATOM     16  C   UNL     1      -4.868   0.690  25.542  0.00  0.00    +0.102 C 
BRANCH  16  15
ATOM     15  C   UNL     1      -5.273   2.087  25.014  0.00  0.00    -0.029 C 
ATOM     18  C   UNL     1      -5.179   3.155  26.116  0.00  0.00    +0.011 C 
ATOM     19  C   UNL     1      -4.392   2.507  23.825  0.00  0.00    +0.011 C 
ATOM     20  C   UNL     1      -6.735   2.010  24.533  0.00  0.00    +0.011 C 
ENDBRANCH  16  15
ENDBRANCH  17  16
ENDBRANCH  14   5
ENDBRANCH  12  14
TORSDOF 7
ENDMDL
MODEL 6
REMARK VINA RESULT:      -4.2      2.144      5.900
REMARK  Name = 75367059
REMARK  10 active torsions:
REMARK  status: ('A' for Active; 'I' for Inactive)
REMARK    1  A    between atoms: O_2  and  C_11
REMARK    2  A    between atoms: N_4  and  C_6
REMARK    3  A    between atoms: N_4  and  C_7
REMARK    4  A    between atoms: N_5  and  C_14
REMARK    5  A    between atoms: C_12  and  C_14
REMARK    6  A    between atoms: C_15  and  C_16
REMARK    7  A    between atoms: C_15  and  C_18
REMARK    8  A    between atoms: C_15  and  C_19
REMARK    9  A    between atoms: C_15  and  C_20
REMARK   10  A    between atoms: C_16  and  C_17
REMARK                            x       y       z     vdW  Elec       q    Type
REMARK                         _______ _______ _______ _____ _____    ______ ____
ROOT
ATOM      1  O   UNL     1      -3.227  -2.018  24.461  0.00  0.00    -0.371 OA
ATOM      7  C   UNL     1      -1.023  -1.504  25.183  0.00  0.00    +0.111 C 
ATOM     11  C   UNL     1      -1.851  -0.232  25.178  0.00  0.00    +0.164 C 
ATOM     12  C   UNL     1      -3.263  -0.802  25.226  0.00  0.00    +0.165 C 
ATOM     13  C   UNL     1      -1.854  -2.407  24.285  0.00  0.00    +0.181 C 
ENDROOT
BRANCH  11   2
ATOM      2  O   UNL     1      -1.580   0.601  26.288  0.00  0.00    -0.388 OA
ATOM     22  H   UNL     1      -0.990   0.121  26.893  0.00  0.00    +0.210 HD
ENDBRANCH  11   2
BRANCH   7   4
ATOM      4  N   UNL     1       0.335  -1.318  24.697  0.00  0.00    -0.306 NA
ATOM     21  H   UNL     1       0.693  -2.224  24.396  0.00  0.00    +0.123 HD
BRANCH   4   6
ATOM      6  C   UNL     1       0.340  -0.324  23.634  0.00  0.00    +0.054 C 
ATOM      8  C   UNL     1       1.540  -0.585  22.699  0.00  0.00    +0.019 C 
ATOM      9  C   UNL     1       1.086   0.938  24.119  0.00  0.00    +0.019 C 
ATOM     10  C   UNL     1       1.797   0.939  22.747  0.00  0.00    +0.003 C 
ENDBRANCH   4   6
ENDBRANCH   7   4
BRANCH  12  14
ATOM     14  C   UNL     1      -4.309   0.137  24.650  0.00  0.00    +0.138 C 
BRANCH  14   5
ATOM      3  O   UNL     1      -5.428   2.746  25.219  0.00  0.00    -0.276 OA
ATOM      5  N   UNL     1      -3.741   1.424  24.321  0.00  0.00    -0.313 N 
ATOM     17  C   UNL     1      -4.353   2.625  24.636  0.00  0.00    +0.214 C 
ATOM     23  H   UNL     1      -2.844   1.432  23.844  0.00  0.00    +0.149 HD
BRANCH  17  16
ATOM     16  C   UNL     1      -3.559   3.836  24.175  0.00  0.00    +0.102 C 
BRANCH  16  15
ATOM     15  C   UNL     1      -2.338   4.184  25.061  0.00  0.00    -0.029 C 
ATOM     18  C   UNL     1      -1.993   5.680  24.983  0.00  0.00    +0.011 C 
ATOM     19  C   UNL     1      -2.591   3.797  26.528  0.00  0.00    +0.011 C 
ATOM     20  C   UNL     1      -1.130   3.378  24.546  0.00  0.00    +0.011 C 
ENDBRANCH  16  15
ENDBRANCH  17  16
ENDBRANCH  14   5
ENDBRANCH  12  14
TORSDOF 7
ENDMDL
MODEL 7
REMARK VINA RESULT:      -4.0      1.566      4.504
REMARK  Name = 75367059
REMARK  10 active torsions:
REMARK  status: ('A' for Active; 'I' for Inactive)
REMARK    1  A    between atoms: O_2  and  C_11
REMARK    2  A    between atoms: N_4  and  C_6
REMARK    3  A    between atoms: N_4  and  C_7
REMARK    4  A    between atoms: N_5  and  C_14
REMARK    5  A    between atoms: C_12  and  C_14
REMARK    6  A    between atoms: C_15  and  C_16
REMARK    7  A    between atoms: C_15  and  C_18
REMARK    8  A    between atoms: C_15  and  C_19
REMARK    9  A    between atoms: C_15  and  C_20
REMARK   10  A    between atoms: C_16  and  C_17
REMARK                            x       y       z     vdW  Elec       q    Type
REMARK                         _______ _______ _______ _____ _____    ______ ____
ROOT
ATOM      1  O   UNL     1      -0.046   2.149  25.668  0.00  0.00    -0.371 OA
ATOM      7  C   UNL     1      -0.554   0.695  23.860  0.00  0.00    +0.111 C 
ATOM     11  C   UNL     1      -1.303   2.001  23.671  0.00  0.00    +0.164 C 
ATOM     12  C   UNL     1      -0.486   2.937  24.551  0.00  0.00    +0.165 C 
ATOM     13  C   UNL     1      -0.209   0.758  25.339  0.00  0.00    +0.181 C 
ENDROOT
BRANCH  11   2
ATOM      2  O   UNL     1      -1.325   2.428  22.323  0.00  0.00    -0.388 OA
ATOM     22  H   UNL     1      -0.709   3.175  22.229  0.00  0.00    +0.210 HD
ENDBRANCH  11   2
BRANCH   7   4
ATOM      4  N   UNL     1      -1.335  -0.481  23.512  0.00  0.00    -0.306 NA
ATOM     21  H   UNL     1      -0.696  -1.197  23.163  0.00  0.00    +0.123 HD
BRANCH   4   6
ATOM      6  C   UNL     1      -2.099  -0.920  24.670  0.00  0.00    +0.054 C 
ATOM      8  C   UNL     1      -1.856  -2.427  24.899  0.00  0.00    +0.019 C 
ATOM      9  C   UNL     1      -3.530  -1.292  24.225  0.00  0.00    +0.019 C 
ATOM     10  C   UNL     1      -3.383  -2.552  25.109  0.00  0.00    +0.003 C 
ENDBRANCH   4   6
ENDBRANCH   7   4
BRANCH  12  14
ATOM     14  C   UNL     1      -1.276   4.136  25.048  0.00  0.00    +0.138 C 
BRANCH  14   5
ATOM      3  O   UNL     1      -3.258   3.998  27.155  0.00  0.00    -0.276 OA
ATOM      5  N   UNL     1      -2.699   3.930  24.901  0.00  0.00    -0.313 N 
ATOM     17  C   UNL     1      -3.573   3.878  25.974  0.00  0.00    +0.214 C 
ATOM     23  H   UNL     1      -3.062   3.829  23.958  0.00  0.00    +0.149 HD
BRANCH  17  16
ATOM     16  C   UNL     1      -5.015   3.643  25.556  0.00  0.00    +0.102 C 
BRANCH  16  15
ATOM     15  C   UNL     1      -5.280   2.270  24.892  0.00  0.00    -0.029 C 
ATOM     18  C   UNL     1      -6.785   2.020  24.697  0.00  0.00    +0.011 C 
ATOM     19  C   UNL     1      -4.568   2.165  23.533  0.00  0.00    +0.011 C 
ATOM     20  C   UNL     1      -4.721   1.176  25.821  0.00  0.00    +0.011 C 
ENDBRANCH  16  15
ENDBRANCH  17  16
ENDBRANCH  14   5
ENDBRANCH  12  14
TORSDOF 7
ENDMDL
MODEL 8
REMARK VINA RESULT:      -3.9      3.478      5.580
REMARK  Name = 75367059
REMARK  10 active torsions:
REMARK  status: ('A' for Active; 'I' for Inactive)
REMARK    1  A    between atoms: O_2  and  C_11
REMARK    2  A    between atoms: N_4  and  C_6
REMARK    3  A    between atoms: N_4  and  C_7
REMARK    4  A    between atoms: N_5  and  C_14
REMARK    5  A    between atoms: C_12  and  C_14
REMARK    6  A    between atoms: C_15  and  C_16
REMARK    7  A    between atoms: C_15  and  C_18
REMARK    8  A    between atoms: C_15  and  C_19
REMARK    9  A    between atoms: C_15  and  C_20
REMARK   10  A    between atoms: C_16  and  C_17
REMARK                            x       y       z     vdW  Elec       q    Type
REMARK                         _______ _______ _______ _____ _____    ______ ____
ROOT
ATOM      1  O   UNL     1      -0.932   1.952  24.351  0.00  0.00    -0.371 OA
ATOM      7  C   UNL     1      -1.778   0.144  25.638  0.00  0.00    +0.111 C 
ATOM     11  C   UNL     1      -0.691  -0.373  24.713  0.00  0.00    +0.164 C 
ATOM     12  C   UNL     1       0.061   0.914  24.398  0.00  0.00    +0.165 C 
ATOM     13  C   UNL     1      -2.132   1.466  24.976  0.00  0.00    +0.181 C 
ENDROOT
BRANCH  11   2
ATOM      2  O   UNL     1       0.143  -1.333  25.333  0.00  0.00    -0.388 OA
ATOM     22  H   UNL     1      -0.359  -1.756  26.050  0.00  0.00    +0.210 HD
ENDBRANCH  11   2
BRANCH   7   4
ATOM      4  N   UNL     1      -2.917  -0.753  25.756  0.00  0.00    -0.306 NA
ATOM     21  H   UNL     1      -3.747  -0.191  25.946  0.00  0.00    +0.123 HD
BRANCH   4   6
ATOM      6  C   UNL     1      -3.037  -1.550  24.545  0.00  0.00    +0.054 C 
ATOM      8  C   UNL     1      -4.436  -1.333  23.930  0.00  0.00    +0.019 C 
ATOM      9  C   UNL     1      -3.503  -2.975  24.917  0.00  0.00    +0.019 C 
ATOM     10  C   UNL     1      -4.493  -2.866  23.735  0.00  0.00    +0.003 C 
ENDBRANCH   4   6
ENDBRANCH   7   4
BRANCH  12  14
ATOM     14  C   UNL     1       0.812   0.862  23.078  0.00  0.00    +0.138 C 
BRANCH  14   5
ATOM      3  O   UNL     1       2.950   0.025  21.315  0.00  0.00    -0.276 OA
ATOM      5  N   UNL     1       2.231   1.055  23.270  0.00  0.00    -0.313 N 
ATOM     17  C   UNL     1       3.184   0.617  22.366  0.00  0.00    +0.214 C 
ATOM     23  H   UNL     1       2.528   1.545  24.108  0.00  0.00    +0.149 HD
BRANCH  17  16
ATOM     16  C   UNL     1       4.606   0.933  22.801  0.00  0.00    +0.102 C 
BRANCH  16  15
ATOM     15  C   UNL     1       5.287  -0.174  23.640  0.00  0.00    -0.029 C 
ATOM     18  C   UNL     1       5.616   0.316  25.060  0.00  0.00    +0.011 C 
ATOM     19  C   UNL     1       4.398  -1.427  23.729  0.00  0.00    +0.011 C 
ATOM     20  C   UNL     1       6.604  -0.561  22.940  0.00  0.00    +0.011 C 
ENDBRANCH  16  15
ENDBRANCH  17  16
ENDBRANCH  14   5
ENDBRANCH  12  14
TORSDOF 7
ENDMDL
MODEL 9
REMARK VINA RESULT:      -3.7      1.592      2.195
REMARK  Name = 75367059
REMARK  10 active torsions:
REMARK  status: ('A' for Active; 'I' for Inactive)
REMARK    1  A    between atoms: O_2  and  C_11
REMARK    2  A    between atoms: N_4  and  C_6
REMARK    3  A    between atoms: N_4  and  C_7
REMARK    4  A    between atoms: N_5  and  C_14
REMARK    5  A    between atoms: C_12  and  C_14
REMARK    6  A    between atoms: C_15  and  C_16
REMARK    7  A    between atoms: C_15  and  C_18
REMARK    8  A    between atoms: C_15  and  C_19
REMARK    9  A    between atoms: C_15  and  C_20
REMARK   10  A    between atoms: C_16  and  C_17
REMARK                            x       y       z     vdW  Elec       q    Type
REMARK                         _______ _______ _______ _____ _____    ______ ____
ROOT
ATOM      1  O   UNL     1      -0.320   3.583  23.790  0.00  0.00    -0.371 OA
ATOM      7  C   UNL     1      -1.565   3.905  25.787  0.00  0.00    +0.111 C 
ATOM     11  C   UNL     1      -1.149   2.449  25.692  0.00  0.00    +0.164 C 
ATOM     12  C   UNL     1       0.018   2.540  24.719  0.00  0.00    +0.165 C 
ATOM     13  C   UNL     1      -1.394   4.360  24.347  0.00  0.00    +0.181 C 
ENDROOT
BRANCH  11   2
ATOM      2  O   UNL     1      -0.755   1.910  26.940  0.00  0.00    -0.388 OA
ATOM     22  H   UNL     1      -0.800   0.941  26.882  0.00  0.00    +0.210 HD
ENDBRANCH  11   2
BRANCH   7   4
ATOM      4  N   UNL     1      -2.919   4.094  26.283  0.00  0.00    -0.306 NA
ATOM     21  H   UNL     1      -3.028   5.073  26.548  0.00  0.00    +0.123 HD
BRANCH   4   6
ATOM      6  C   UNL     1      -3.873   3.671  25.269  0.00  0.00    +0.054 C 
ATOM      8  C   UNL     1      -5.289   4.128  25.682  0.00  0.00    +0.019 C 
ATOM      9  C   UNL     1      -4.330   2.228  25.570  0.00  0.00    +0.019 C 
ATOM     10  C   UNL     1      -5.768   2.714  25.276  0.00  0.00    +0.003 C 
ENDBRANCH   4   6
ENDBRANCH   7   4
BRANCH  12  14
ATOM     14  C   UNL     1       0.275   1.246  23.966  0.00  0.00    +0.138 C 
BRANCH  14   5
ATOM      3  O   UNL     1      -2.289   1.544  22.652  0.00  0.00    -0.276 OA
ATOM      5  N   UNL     1      -0.860   0.354  24.045  0.00  0.00    -0.313 N 
ATOM     17  C   UNL     1      -2.051   0.581  23.377  0.00  0.00    +0.214 C 
ATOM     23  H   UNL     1      -0.760  -0.481  24.614  0.00  0.00    +0.149 HD
BRANCH  17  16
ATOM     16  C   UNL     1      -3.090  -0.499  23.630  0.00  0.00    +0.102 C 
BRANCH  16  15
ATOM     15  C   UNL     1      -2.662  -1.582  24.650  0.00  0.00    -0.029 C 
ATOM     18  C   UNL     1      -3.650  -2.760  24.668  0.00  0.00    +0.011 C 
ATOM     19  C   UNL     1      -1.250  -2.108  24.339  0.00  0.00    +0.011 C 
ATOM     20  C   UNL     1      -2.645  -0.938  26.049  0.00  0.00    +0.011 C 
ENDBRANCH  16  15
ENDBRANCH  17  16
ENDBRANCH  14   5
ENDBRANCH  12  14
TORSDOF 7
ENDMDL
MODEL 10
REMARK VINA RESULT:      -3.6      2.697      6.147
REMARK  Name = 75367059
REMARK  10 active torsions:
REMARK  status: ('A' for Active; 'I' for Inactive)
REMARK    1  A    between atoms: O_2  and  C_11
REMARK    2  A    between atoms: N_4  and  C_6
REMARK    3  A    between atoms: N_4  and  C_7
REMARK    4  A    between atoms: N_5  and  C_14
REMARK    5  A    between atoms: C_12  and  C_14
REMARK    6  A    between atoms: C_15  and  C_16
REMARK    7  A    between atoms: C_15  and  C_18
REMARK    8  A    between atoms: C_15  and  C_19
REMARK    9  A    between atoms: C_15  and  C_20
REMARK   10  A    between atoms: C_16  and  C_17
REMARK                            x       y       z     vdW  Elec       q    Type
REMARK                         _______ _______ _______ _____ _____    ______ ____
ROOT
ATOM      1  O   UNL     1      -1.895   0.544  23.599  0.00  0.00    -0.371 OA
ATOM      7  C   UNL     1       0.453   0.236  23.423  0.00  0.00    +0.111 C 
ATOM     11  C   UNL     1      -0.060  -0.544  24.620  0.00  0.00    +0.164 C 
ATOM     12  C   UNL     1      -1.537  -0.674  24.273  0.00  0.00    +0.165 C 
ATOM     13  C   UNL     1      -0.690   1.210  23.187  0.00  0.00    +0.181 C 
ENDROOT
BRANCH  11   2
ATOM      2  O   UNL     1       0.562  -1.806  24.757  0.00  0.00    -0.388 OA
ATOM     22  H   UNL     1       1.512  -1.700  24.579  0.00  0.00    +0.210 HD
ENDBRANCH  11   2
BRANCH   7   4
ATOM      4  N   UNL     1       1.724   0.901  23.662  0.00  0.00    -0.306 NA
ATOM     21  H   UNL     1       1.972   0.773  24.643  0.00  0.00    +0.123 HD
BRANCH   4   6
ATOM      6  C   UNL     1       2.728   0.374  22.750  0.00  0.00    +0.054 C 
ATOM      8  C   UNL     1       3.613  -0.644  23.501  0.00  0.00    +0.019 C 
ATOM      9  C   UNL     1       3.951   1.318  22.738  0.00  0.00    +0.019 C 
ATOM     10  C   UNL     1       4.824   0.045  22.830  0.00  0.00    +0.003 C 
ENDBRANCH   4   6
ENDBRANCH   7   4
BRANCH  12  14
ATOM     14  C   UNL     1      -2.425  -0.866  25.490  0.00  0.00    +0.138 C 
BRANCH  14   5
ATOM      3  O   UNL     1      -4.957  -0.276  24.215  0.00  0.00    -0.276 OA
ATOM      5  N   UNL     1      -3.272   0.283  25.715  0.00  0.00    -0.313 N 
ATOM     17  C   UNL     1      -4.473   0.480  25.053  0.00  0.00    +0.214 C 
ATOM     23  H   UNL     1      -2.963   0.965  26.401  0.00  0.00    +0.149 HD
BRANCH  17  16
ATOM     16  C   UNL     1      -5.171   1.768  25.460  0.00  0.00    +0.102 C 
BRANCH  16  15
ATOM     15  C   UNL     1      -4.443   3.062  25.025  0.00  0.00    -0.029 C 
ATOM     18  C   UNL     1      -3.154   3.283  25.832  0.00  0.00    +0.011 C 
ATOM     19  C   UNL     1      -4.103   3.029  23.525  0.00  0.00    +0.011 C 
ATOM     20  C   UNL     1      -5.389   4.251  25.283  0.00  0.00    +0.011 C 
ENDBRANCH  16  15
ENDBRANCH  17  16
ENDBRANCH  14   5
ENDBRANCH  12  14
TORSDOF 7
ENDMDL
