MODEL 1
REMARK VINA RESULT:       4.9      0.000      0.000
REMARK  Name = 23983671
REMARK  14 active torsions:
REMARK  status: ('A' for Active; 'I' for Inactive)
REMARK    1  A    between atoms: S_1  and  C_32
REMARK    2  A    between atoms: S_1  and  C_38
REMARK    3  A    between atoms: O_2  and  C_15
REMARK    4  A    between atoms: O_2  and  C_24
REMARK    5  A    between atoms: O_3  and  C_16
REMARK    6  A    between atoms: O_4  and  C_20
REMARK    7  A    between atoms: N_7  and  C_25
REMARK    8  A    between atoms: N_8  and  C_26
REMARK    9  A    between atoms: C_9  and  C_19
REMARK   10  A    between atoms: C_11  and  C_20
REMARK   11  A    between atoms: C_11  and  C_21
REMARK   12  A    between atoms: C_12  and  C_22
REMARK   13  A    between atoms: C_22  and  C_23
REMARK   14  A    between atoms: C_25  and  C_27
REMARK                            x       y       z     vdW  Elec       q    Type
REMARK                         _______ _______ _______ _____ _____    ______ ____
ROOT
ATOM      9  C   UNL     1      -3.513   2.833  24.528  0.00  0.00    -0.023 C 
ATOM     10  C   UNL     1      -2.282   3.197  25.446  0.00  0.00    +0.007 C 
ATOM     11  C   UNL     1      -0.865   3.213  24.755  0.00  0.00    +0.031 C 
ATOM     12  C   UNL     1      -4.745   2.569  25.489  0.00  0.00    +0.032 C 
ATOM     13  C   UNL     1      -3.180   1.530  23.753  0.00  0.00    +0.011 C 
ATOM     14  C   UNL     1      -2.590   4.436  26.315  0.00  0.00    +0.007 C 
ATOM     15  C   UNL     1      -0.682   1.892  23.947  0.00  0.00    +0.186 C 
ATOM     16  C   UNL     1      -5.043   3.746  26.445  0.00  0.00    +0.119 C 
ATOM     17  C   UNL     1      -1.848   1.575  23.015  0.00  0.00    +0.046 C 
ATOM     18  C   UNL     1      -3.803   4.195  27.214  0.00  0.00    +0.032 C 
ATOM     19  C   UNL     1      -3.858   3.930  23.491  0.00  0.00    +0.012 C 
ATOM     21  C   UNL     1       0.236   3.240  25.855  0.00  0.00    +0.017 C 
ENDROOT
BRANCH  16   3
ATOM      3  O   UNL     1      -5.595   4.850  25.737  0.00  0.00    -0.391 OA
ATOM     39  H   UNL     1      -6.028   5.431  26.385  0.00  0.00    +0.210 HD
ENDBRANCH  16   3
BRANCH  15   2
ATOM      2  O   UNL     1       0.499   1.918  23.146  0.00  0.00    -0.446 OA
BRANCH   2  24
ATOM      6  O   UNL     1       0.817  -0.340  22.982  0.00  0.00    -0.226 OA
ATOM      8  N   UNL     1       2.581   1.136  23.413  0.00  0.00    -0.251 N 
ATOM     24  C   UNL     1       1.270   0.783  23.165  0.00  0.00    +0.405 C 
ATOM     42  H   UNL     1       2.723   2.093  23.730  0.00  0.00    +0.158 HD
BRANCH   8  26
ATOM     26  C   UNL     1       3.707   0.288  23.516  0.00  0.00    +0.037 A 
ATOM     28  C   UNL     1       4.992   0.827  23.509  0.00  0.00    +0.038 A 
ATOM     29  C   UNL     1       3.530  -1.093  23.622  0.00  0.00    +0.023 A 
ATOM     32  C   UNL     1       6.102  -0.012  23.609  0.00  0.00    +0.009 A 
ATOM     33  C   UNL     1       4.639  -1.932  23.721  0.00  0.00    +0.003 A 
ATOM     36  C   UNL     1       5.925  -1.392  23.715  0.00  0.00    +0.015 A 
BRANCH  32   1
ATOM      1  S   UNL     1       7.745   0.678  23.600  0.00  0.00    -0.129 S 
ATOM     38  C   UNL     1       8.696  -0.645  22.800  0.00  0.00    +0.090 C 
ENDBRANCH  32   1
ENDBRANCH   8  26
ENDBRANCH   2  24
ENDBRANCH  15   2
BRANCH  11  20
ATOM     20  C   UNL     1      -0.607   4.451  23.874  0.00  0.00    +0.166 C 
BRANCH  20   4
ATOM      4  O   UNL     1      -0.425   5.560  24.727  0.00  0.00    -0.394 OA
ATOM     40  H   UNL     1      -0.159   5.216  25.597  0.00  0.00    +0.209 HD
ENDBRANCH  20   4
ENDBRANCH  11  20
BRANCH  12  22
ATOM     22  C   UNL     1      -6.038   2.134  24.778  0.00  0.00    +0.102 C 
BRANCH  22  23
ATOM      5  O   UNL     1      -7.002   0.061  23.985  0.00  0.00    -0.276 OA
ATOM      7  N   UNL     1      -4.840   0.070  24.837  0.00  0.00    -0.311 N 
ATOM     23  C   UNL     1      -6.046   0.653  24.478  0.00  0.00    +0.214 C 
ATOM     41  H   UNL     1      -4.076   0.652  25.167  0.00  0.00    +0.149 HD
BRANCH   7  25
ATOM     25  C   UNL     1      -4.562  -1.338  24.666  0.00  0.00    +0.139 C 
BRANCH  25  27
ATOM     27  C   UNL     1      -3.109  -1.654  24.874  0.00  0.00    -0.030 A 
ATOM     30  C   UNL     1      -2.355  -0.906  25.779  0.00  0.00    +0.005 A 
ATOM     31  C   UNL     1      -2.514  -2.696  24.164  0.00  0.00    +0.005 A 
ATOM     34  C   UNL     1      -1.005  -1.200  25.973  0.00  0.00    +0.000 A 
ATOM     35  C   UNL     1      -1.164  -2.990  24.356  0.00  0.00    +0.000 A 
ATOM     37  C   UNL     1      -0.409  -2.242  25.261  0.00  0.00    +0.000 A 
ENDBRANCH  25  27
ENDBRANCH   7  25
ENDBRANCH  22  23
ENDBRANCH  12  22
TORSDOF 11
ENDMDL
MODEL 2
REMARK VINA RESULT:       5.7      1.682      2.624
REMARK  Name = 23983671
REMARK  14 active torsions:
REMARK  status: ('A' for Active; 'I' for Inactive)
REMARK    1  A    between atoms: S_1  and  C_32
REMARK    2  A    between atoms: S_1  and  C_38
REMARK    3  A    between atoms: O_2  and  C_15
REMARK    4  A    between atoms: O_2  and  C_24
REMARK    5  A    between atoms: O_3  and  C_16
REMARK    6  A    between atoms: O_4  and  C_20
REMARK    7  A    between atoms: N_7  and  C_25
REMARK    8  A    between atoms: N_8  and  C_26
REMARK    9  A    between atoms: C_9  and  C_19
REMARK   10  A    between atoms: C_11  and  C_20
REMARK   11  A    between atoms: C_11  and  C_21
REMARK   12  A    between atoms: C_12  and  C_22
REMARK   13  A    between atoms: C_22  and  C_23
REMARK   14  A    between atoms: C_25  and  C_27
REMARK                            x       y       z     vdW  Elec       q    Type
REMARK                         _______ _______ _______ _____ _____    ______ ____
ROOT
ATOM      9  C   UNL     1      -4.331   1.889  24.703  0.00  0.00    -0.023 C 
ATOM     10  C   UNL     1      -4.159   2.941  25.866  0.00  0.00    +0.007 C 
ATOM     11  C   UNL     1      -2.835   3.797  25.856  0.00  0.00    +0.031 C 
ATOM     12  C   UNL     1      -5.545   0.952  25.102  0.00  0.00    +0.032 C 
ATOM     13  C   UNL     1      -3.035   1.037  24.616  0.00  0.00    +0.011 C 
ATOM     14  C   UNL     1      -5.455   3.759  26.065  0.00  0.00    +0.007 C 
ATOM     15  C   UNL     1      -1.617   2.840  25.685  0.00  0.00    +0.186 C 
ATOM     16  C   UNL     1      -6.848   1.728  25.399  0.00  0.00    +0.119 C 
ATOM     17  C   UNL     1      -1.760   1.865  24.521  0.00  0.00    +0.046 C 
ATOM     18  C   UNL     1      -6.635   2.851  26.411  0.00  0.00    +0.032 C 
ATOM     19  C   UNL     1      -4.573   2.532  23.316  0.00  0.00    +0.012 C 
ATOM     21  C   UNL     1      -2.679   4.508  27.232  0.00  0.00    +0.017 C 
ENDROOT
BRANCH  16   3
ATOM      3  O   UNL     1      -7.410   2.259  24.203  0.00  0.00    -0.391 OA
ATOM     39  H   UNL     1      -8.049   1.611  23.863  0.00  0.00    +0.210 HD
ENDBRANCH  16   3
BRANCH  15   2
ATOM      2  O   UNL     1      -0.401   3.560  25.481  0.00  0.00    -0.446 OA
BRANCH   2  24
ATOM      6  O   UNL     1       0.566   3.994  23.455  0.00  0.00    -0.226 OA
ATOM      8  N   UNL     1       0.724   1.898  24.485  0.00  0.00    -0.251 N 
ATOM     24  C   UNL     1       0.330   3.216  24.371  0.00  0.00    +0.405 C 
ATOM     42  H   UNL     1       0.264   1.367  25.222  0.00  0.00    +0.158 HD
BRANCH   8  26
ATOM     26  C   UNL     1       1.490   1.137  23.574  0.00  0.00    +0.037 A 
ATOM     28  C   UNL     1       2.880   1.111  23.680  0.00  0.00    +0.038 A 
ATOM     29  C   UNL     1       0.854   0.412  22.565  0.00  0.00    +0.023 A 
ATOM     32  C   UNL     1       3.636   0.361  22.778  0.00  0.00    +0.009 A 
ATOM     33  C   UNL     1       1.609  -0.338  21.663  0.00  0.00    +0.003 A 
ATOM     36  C   UNL     1       3.000  -0.363  21.770  0.00  0.00    +0.015 A 
BRANCH  32   1
ATOM      1  S   UNL     1       5.412   0.330  22.914  0.00  0.00    -0.129 S 
ATOM     38  C   UNL     1       5.653  -0.794  24.320  0.00  0.00    +0.090 C 
ENDBRANCH  32   1
ENDBRANCH   8  26
ENDBRANCH   2  24
ENDBRANCH  15   2
BRANCH  11  20
ATOM     20  C   UNL     1      -2.820   4.922  24.801  0.00  0.00    +0.166 C 
BRANCH  20   4
ATOM      4  O   UNL     1      -1.704   5.745  25.060  0.00  0.00    -0.394 OA
ATOM     40  H   UNL     1      -1.920   6.289  25.838  0.00  0.00    +0.209 HD
ENDBRANCH  20   4
ENDBRANCH  11  20
BRANCH  12  22
ATOM     22  C   UNL     1      -5.832  -0.190  24.113  0.00  0.00    +0.102 C 
BRANCH  22  23
ATOM      5  O   UNL     1      -3.770  -0.722  22.965  0.00  0.00    -0.276 OA
ATOM      7  N   UNL     1      -4.536  -2.120  24.657  0.00  0.00    -0.311 N 
ATOM     23  C   UNL     1      -4.597  -1.011  23.825  0.00  0.00    +0.214 C 
ATOM     41  H   UNL     1      -5.225  -2.236  25.393  0.00  0.00    +0.149 HD
BRANCH   7  25
ATOM     25  C   UNL     1      -3.463  -3.086  24.606  0.00  0.00    +0.139 C 
BRANCH  25  27
ATOM     27  C   UNL     1      -2.149  -2.492  25.026  0.00  0.00    -0.030 A 
ATOM     30  C   UNL     1      -0.982  -2.825  24.339  0.00  0.00    +0.005 A 
ATOM     31  C   UNL     1      -2.097  -1.606  26.101  0.00  0.00    +0.005 A 
ATOM     34  C   UNL     1       0.238  -2.273  24.728  0.00  0.00    +0.000 A 
ATOM     35  C   UNL     1      -0.877  -1.054  26.491  0.00  0.00    +0.000 A 
ATOM     37  C   UNL     1       0.291  -1.387  25.804  0.00  0.00    +0.000 A 
ENDBRANCH  25  27
ENDBRANCH   7  25
ENDBRANCH  22  23
ENDBRANCH  12  22
TORSDOF 11
ENDMDL
MODEL 3
REMARK VINA RESULT:       7.0      2.048      4.345
REMARK  Name = 23983671
REMARK  14 active torsions:
REMARK  status: ('A' for Active; 'I' for Inactive)
REMARK    1  A    between atoms: S_1  and  C_32
REMARK    2  A    between atoms: S_1  and  C_38
REMARK    3  A    between atoms: O_2  and  C_15
REMARK    4  A    between atoms: O_2  and  C_24
REMARK    5  A    between atoms: O_3  and  C_16
REMARK    6  A    between atoms: O_4  and  C_20
REMARK    7  A    between atoms: N_7  and  C_25
REMARK    8  A    between atoms: N_8  and  C_26
REMARK    9  A    between atoms: C_9  and  C_19
REMARK   10  A    between atoms: C_11  and  C_20
REMARK   11  A    between atoms: C_11  and  C_21
REMARK   12  A    between atoms: C_12  and  C_22
REMARK   13  A    between atoms: C_22  and  C_23
REMARK   14  A    between atoms: C_25  and  C_27
REMARK                            x       y       z     vdW  Elec       q    Type
REMARK                         _______ _______ _______ _____ _____    ______ ____
ROOT
ATOM      9  C   UNL     1      -3.933   1.727  24.358  0.00  0.00    -0.023 C 
ATOM     10  C   UNL     1      -4.587   0.292  24.300  0.00  0.00    +0.007 C 
ATOM     11  C   UNL     1      -3.606  -0.938  24.401  0.00  0.00    +0.031 C 
ATOM     12  C   UNL     1      -5.049   2.763  23.920  0.00  0.00    +0.032 C 
ATOM     13  C   UNL     1      -2.763   1.775  23.338  0.00  0.00    +0.011 C 
ATOM     14  C   UNL     1      -5.820   0.211  25.227  0.00  0.00    +0.007 C 
ATOM     15  C   UNL     1      -2.437  -0.735  23.389  0.00  0.00    +0.186 C 
ATOM     16  C   UNL     1      -6.343   2.664  24.760  0.00  0.00    +0.119 C 
ATOM     17  C   UNL     1      -1.767   0.631  23.489  0.00  0.00    +0.046 C 
ATOM     18  C   UNL     1      -6.881   1.238  24.829  0.00  0.00    +0.032 C 
ATOM     19  C   UNL     1      -3.367   2.094  25.751  0.00  0.00    +0.012 C 
ATOM     21  C   UNL     1      -4.365  -2.230  23.980  0.00  0.00    +0.017 C 
ENDROOT
BRANCH  16   3
ATOM      3  O   UNL     1      -6.135   3.164  26.077  0.00  0.00    -0.391 OA
ATOM     39  H   UNL     1      -5.600   2.512  26.560  0.00  0.00    +0.210 HD
ENDBRANCH  16   3
BRANCH  15   2
ATOM      2  O   UNL     1      -1.414  -1.717  23.556  0.00  0.00    -0.446 OA
BRANCH   2  24
ATOM      6  O   UNL     1       0.096  -1.272  25.215  0.00  0.00    -0.226 OA
ATOM      8  N   UNL     1       0.551  -0.819  22.964  0.00  0.00    -0.251 N 
ATOM     24  C   UNL     1      -0.208  -1.262  24.028  0.00  0.00    +0.405 C 
ATOM     42  H   UNL     1       0.050  -0.711  22.085  0.00  0.00    +0.158 HD
BRANCH   8  26
ATOM     26  C   UNL     1       1.855  -0.274  22.993  0.00  0.00    +0.037 A 
ATOM     28  C   UNL     1       2.925  -1.044  23.445  0.00  0.00    +0.038 A 
ATOM     29  C   UNL     1       2.069   1.039  22.569  0.00  0.00    +0.023 A 
ATOM     32  C   UNL     1       4.211  -0.503  23.474  0.00  0.00    +0.009 A 
ATOM     33  C   UNL     1       3.354   1.580  22.598  0.00  0.00    +0.003 A 
ATOM     36  C   UNL     1       4.425   0.809  23.051  0.00  0.00    +0.015 A 
BRANCH  32   1
ATOM      1  S   UNL     1       5.578  -1.488  24.053  0.00  0.00    -0.129 S 
ATOM     38  C   UNL     1       6.985  -0.678  23.242  0.00  0.00    +0.090 C 
ENDBRANCH  32   1
ENDBRANCH   8  26
ENDBRANCH   2  24
ENDBRANCH  15   2
BRANCH  11  20
ATOM     20  C   UNL     1      -3.078  -1.208  25.824  0.00  0.00    +0.166 C 
BRANCH  20   4
ATOM      4  O   UNL     1      -3.150  -2.597  26.057  0.00  0.00    -0.394 OA
ATOM     40  H   UNL     1      -3.741  -2.733  26.817  0.00  0.00    +0.209 HD
ENDBRANCH  20   4
ENDBRANCH  11  20
BRANCH  12  22
ATOM     22  C   UNL     1      -4.582   4.226  23.851  0.00  0.00    +0.102 C 
BRANCH  22  23
ATOM      5  O   UNL     1      -3.625   4.455  26.062  0.00  0.00    -0.276 OA
ATOM      7  N   UNL     1      -2.303   4.851  24.192  0.00  0.00    -0.311 N 
ATOM     23  C   UNL     1      -3.480   4.514  24.844  0.00  0.00    +0.214 C 
ATOM     41  H   UNL     1      -2.255   4.798  23.179  0.00  0.00    +0.149 HD
BRANCH   7  25
ATOM     25  C   UNL     1      -1.080   5.178  24.888  0.00  0.00    +0.139 C 
BRANCH  25  27
ATOM     27  C   UNL     1      -0.442   3.967  25.504  0.00  0.00    -0.030 A 
ATOM     30  C   UNL     1      -0.563   3.735  26.875  0.00  0.00    +0.005 A 
ATOM     31  C   UNL     1       0.272   3.073  24.706  0.00  0.00    +0.005 A 
ATOM     34  C   UNL     1       0.029   2.609  27.447  0.00  0.00    +0.000 A 
ATOM     35  C   UNL     1       0.866   1.948  25.278  0.00  0.00    +0.000 A 
ATOM     37  C   UNL     1       0.744   1.716  26.648  0.00  0.00    +0.000 A 
ENDBRANCH  25  27
ENDBRANCH   7  25
ENDBRANCH  22  23
ENDBRANCH  12  22
TORSDOF 11
ENDMDL
MODEL 4
REMARK VINA RESULT:       7.4      2.239      4.724
REMARK  Name = 23983671
REMARK  14 active torsions:
REMARK  status: ('A' for Active; 'I' for Inactive)
REMARK    1  A    between atoms: S_1  and  C_32
REMARK    2  A    between atoms: S_1  and  C_38
REMARK    3  A    between atoms: O_2  and  C_15
REMARK    4  A    between atoms: O_2  and  C_24
REMARK    5  A    between atoms: O_3  and  C_16
REMARK    6  A    between atoms: O_4  and  C_20
REMARK    7  A    between atoms: N_7  and  C_25
REMARK    8  A    between atoms: N_8  and  C_26
REMARK    9  A    between atoms: C_9  and  C_19
REMARK   10  A    between atoms: C_11  and  C_20
REMARK   11  A    between atoms: C_11  and  C_21
REMARK   12  A    between atoms: C_12  and  C_22
REMARK   13  A    between atoms: C_22  and  C_23
REMARK   14  A    between atoms: C_25  and  C_27
REMARK                            x       y       z     vdW  Elec       q    Type
REMARK                         _______ _______ _______ _____ _____    ______ ____
ROOT
ATOM      9  C   UNL     1      -3.256   1.810  25.244  0.00  0.00    -0.023 C 
ATOM     10  C   UNL     1      -4.077   0.659  24.545  0.00  0.00    +0.007 C 
ATOM     11  C   UNL     1      -3.401  -0.765  24.499  0.00  0.00    +0.031 C 
ATOM     12  C   UNL     1      -3.976   3.176  24.886  0.00  0.00    +0.032 C 
ATOM     13  C   UNL     1      -1.820   1.819  24.654  0.00  0.00    +0.011 C 
ATOM     14  C   UNL     1      -5.546   0.660  25.024  0.00  0.00    +0.007 C 
ATOM     15  C   UNL     1      -1.944  -0.614  23.966  0.00  0.00    +0.186 C 
ATOM     16  C   UNL     1      -5.474   3.199  25.263  0.00  0.00    +0.119 C 
ATOM     17  C   UNL     1      -1.133   0.459  24.686  0.00  0.00    +0.046 C 
ATOM     18  C   UNL     1      -6.228   1.992  24.713  0.00  0.00    +0.032 C 
ATOM     19  C   UNL     1      -3.140   1.644  26.779  0.00  0.00    +0.012 C 
ATOM     21  C   UNL     1      -4.174  -1.662  23.489  0.00  0.00    +0.017 C 
ENDROOT
BRANCH  16   3
ATOM      3  O   UNL     1      -5.643   3.268  26.676  0.00  0.00    -0.391 OA
ATOM     39  H   UNL     1      -4.760   3.339  27.076  0.00  0.00    +0.210 HD
ENDBRANCH  16   3
BRANCH  15   2
ATOM      2  O   UNL     1      -1.211  -1.834  24.072  0.00  0.00    -0.446 OA
BRANCH   2  24
ATOM      6  O   UNL     1       0.790  -2.426  25.008  0.00  0.00    -0.226 OA
ATOM      8  N   UNL     1       0.612  -0.695  23.443  0.00  0.00    -0.251 N 
ATOM     24  C   UNL     1       0.145  -1.715  24.247  0.00  0.00    +0.405 C 
ATOM     42  H   UNL     1      -0.104  -0.097  23.035  0.00  0.00    +0.158 HD
BRANCH   8  26
ATOM     26  C   UNL     1       1.941  -0.232  23.308  0.00  0.00    +0.037 A 
ATOM     28  C   UNL     1       3.009  -1.073  23.617  0.00  0.00    +0.038 A 
ATOM     29  C   UNL     1       2.183   1.070  22.866  0.00  0.00    +0.023 A 
ATOM     32  C   UNL     1       4.320  -0.614  23.485  0.00  0.00    +0.009 A 
ATOM     33  C   UNL     1       3.494   1.529  22.734  0.00  0.00    +0.003 A 
ATOM     36  C   UNL     1       4.562   0.687  23.044  0.00  0.00    +0.015 A 
BRANCH  32   1
ATOM      1  S   UNL     1       5.684  -1.690  23.882  0.00  0.00    -0.129 S 
ATOM     38  C   UNL     1       7.105  -0.695  23.346  0.00  0.00    +0.090 C 
ENDBRANCH  32   1
ENDBRANCH   8  26
ENDBRANCH   2  24
ENDBRANCH  15   2
BRANCH  11  20
ATOM     20  C   UNL     1      -3.433  -1.522  25.842  0.00  0.00    +0.166 C 
BRANCH  20   4
ATOM      4  O   UNL     1      -3.394  -2.903  25.562  0.00  0.00    -0.394 OA
ATOM     40  H   UNL     1      -3.778  -3.366  26.327  0.00  0.00    +0.209 HD
ENDBRANCH  20   4
ENDBRANCH  11  20
BRANCH  12  22
ATOM     22  C   UNL     1      -3.281   4.436  25.429  0.00  0.00    +0.102 C 
BRANCH  22  23
ATOM      5  O   UNL     1      -1.247   5.086  24.290  0.00  0.00    -0.276 OA
ATOM      7  N   UNL     1      -1.147   3.553  26.034  0.00  0.00    -0.311 N 
ATOM     23  C   UNL     1      -1.794   4.418  25.164  0.00  0.00    +0.214 C 
ATOM     41  H   UNL     1      -1.670   3.100  26.777  0.00  0.00    +0.149 HD
BRANCH   7  25
ATOM     25  C   UNL     1       0.281   3.332  26.011  0.00  0.00    +0.139 C 
BRANCH  25  27
ATOM     27  C   UNL     1       0.821   3.002  27.373  0.00  0.00    -0.030 A 
ATOM     30  C   UNL     1       2.180   3.170  27.643  0.00  0.00    +0.005 A 
ATOM     31  C   UNL     1      -0.034   2.529  28.367  0.00  0.00    +0.005 A 
ATOM     34  C   UNL     1       2.682   2.864  28.908  0.00  0.00    +0.000 A 
ATOM     35  C   UNL     1       0.467   2.222  29.631  0.00  0.00    +0.000 A 
ATOM     37  C   UNL     1       1.826   2.389  29.902  0.00  0.00    +0.000 A 
ENDBRANCH  25  27
ENDBRANCH   7  25
ENDBRANCH  22  23
ENDBRANCH  12  22
TORSDOF 11
ENDMDL
