MODEL 1
REMARK VINA RESULT:      -1.1      0.000      0.000
REMARK  Name = 45360866
REMARK  8 active torsions:
REMARK  status: ('A' for Active; 'I' for Inactive)
REMARK    1  A    between atoms: O_6  and  C_30
REMARK    2  A    between atoms: O_6  and  C_33
REMARK    3  A    between atoms: N_7  and  C_20
REMARK    4  A    between atoms: N_8  and  C_19
REMARK    5  A    between atoms: C_15  and  C_18
REMARK    6  A    between atoms: C_18  and  C_21
REMARK    7  A    between atoms: C_19  and  C_22
REMARK    8  A    between atoms: C_21  and  C_23
REMARK                            x       y       z     vdW  Elec       q    Type
REMARK                         _______ _______ _______ _____ _____    ______ ____
ROOT
ATOM      4  O   UNL     1      -2.794   1.520  21.967  0.00  0.00    -0.274 OA
ATOM      7  N   UNL     1      -1.359  -1.180  24.342  0.00  0.00    -0.296 NA
ATOM      8  N   UNL     1      -4.483   0.671  23.895  0.00  0.00    -0.286 NA
ATOM      9  N   UNL     1      -0.932   1.475  23.296  0.00  0.00    -0.312 N 
ATOM     11  C   UNL     1      -2.633  -0.600  24.819  0.00  0.00    +0.084 C 
ATOM     12  C   UNL     1      -3.063   0.794  24.274  0.00  0.00    +0.161 C 
ATOM     13  C   UNL     1      -3.870  -1.462  24.505  0.00  0.00    +0.036 C 
ATOM     14  C   UNL     1      -5.019  -0.483  24.609  0.00  0.00    +0.087 C 
ATOM     15  C   UNL     1      -0.147  -0.397  24.716  0.00  0.00    +0.074 C 
ATOM     16  C   UNL     1      -2.280   1.282  23.059  0.00  0.00    +0.232 C 
ATOM     17  C   UNL     1      -0.282   1.128  24.545  0.00  0.00    +0.123 C 
ATOM     20  C   UNL     1      -1.220  -2.577  24.787  0.00  0.00    +0.105 C 
ATOM     34  H   UNL     1      -0.369   1.873  22.551  0.00  0.00    +0.149 HD
ENDROOT
BRANCH  15  18
ATOM     18  C   UNL     1       1.068  -0.852  23.880  0.00  0.00    +0.029 C 
BRANCH  18  21
ATOM     21  C   UNL     1       1.376   0.116  22.754  0.00  0.00    +0.097 C 
BRANCH  21  23
ATOM      5  O   UNL     1       2.746   2.063  22.848  0.00  0.00    -0.276 OA
ATOM     10  N   UNL     1       3.738   0.046  23.384  0.00  0.00    -0.301 N 
ATOM     23  C   UNL     1       2.675   0.841  22.998  0.00  0.00    +0.216 C 
ATOM     24  C   UNL     1       3.720  -1.399  23.583  0.00  0.00    +0.108 C 
ATOM     25  C   UNL     1       5.061   0.594  23.650  0.00  0.00    +0.108 C 
ATOM     26  C   UNL     1       5.187  -1.782  23.720  0.00  0.00    +0.020 C 
ATOM     27  C   UNL     1       5.808  -0.537  24.341  0.00  0.00    +0.020 C 
ENDBRANCH  21  23
ENDBRANCH  18  21
ENDBRANCH  15  18
BRANCH   8  19
ATOM     19  C   UNL     1      -5.255   1.880  24.150  0.00  0.00    +0.120 C 
BRANCH  19  22
ATOM     22  C   UNL     1      -4.482   2.877  24.972  0.00  0.00    -0.030 A 
ATOM     28  C   UNL     1      -3.498   3.662  24.371  0.00  0.00    +0.051 A 
ATOM     29  C   UNL     1      -4.748   3.015  26.334  0.00  0.00    +0.005 A 
ATOM     30  C   UNL     1      -2.780   4.584  25.132  0.00  0.00    +0.130 A 
ATOM     31  C   UNL     1      -4.030   3.936  27.096  0.00  0.00    +0.004 A 
ATOM     32  C   UNL     1      -3.046   4.722  26.495  0.00  0.00    +0.046 A 
BRANCH  30   6
ATOM      6  O   UNL     1      -1.819   5.349  24.546  0.00  0.00    -0.406 OA
BRANCH   6  33
ATOM      1  F   UNL     1      -0.310   4.005  25.616  0.00  0.00    -0.133 F 
ATOM      2  F   UNL     1       0.316   5.981  24.921  0.00  0.00    -0.133 F 
ATOM      3  F   UNL     1      -0.046   4.399  23.458  0.00  0.00    -0.133 F 
ATOM     33  C   UNL     1      -0.466   4.915  24.632  0.00  0.00    +0.575 C 
ENDBRANCH   6  33
ENDBRANCH  30   6
ENDBRANCH  19  22
ENDBRANCH   8  19
TORSDOF 7
ENDMDL
MODEL 2
REMARK VINA RESULT:       0.0      1.482      2.017
REMARK  Name = 45360866
REMARK  8 active torsions:
REMARK  status: ('A' for Active; 'I' for Inactive)
REMARK    1  A    between atoms: O_6  and  C_30
REMARK    2  A    between atoms: O_6  and  C_33
REMARK    3  A    between atoms: N_7  and  C_20
REMARK    4  A    between atoms: N_8  and  C_19
REMARK    5  A    between atoms: C_15  and  C_18
REMARK    6  A    between atoms: C_18  and  C_21
REMARK    7  A    between atoms: C_19  and  C_22
REMARK    8  A    between atoms: C_21  and  C_23
REMARK                            x       y       z     vdW  Elec       q    Type
REMARK                         _______ _______ _______ _____ _____    ______ ____
ROOT
ATOM      4  O   UNL     1      -3.183   2.097  22.221  0.00  0.00    -0.274 OA
ATOM      7  N   UNL     1      -2.761  -1.164  24.265  0.00  0.00    -0.296 NA
ATOM      8  N   UNL     1      -4.888   1.812  24.295  0.00  0.00    -0.286 NA
ATOM      9  N   UNL     1      -1.388   1.186  23.309  0.00  0.00    -0.312 N 
ATOM     11  C   UNL     1      -3.640  -0.173  24.922  0.00  0.00    +0.084 C 
ATOM     12  C   UNL     1      -3.513   1.322  24.504  0.00  0.00    +0.161 C 
ATOM     13  C   UNL     1      -5.144  -0.437  24.717  0.00  0.00    +0.036 C 
ATOM     14  C   UNL     1      -5.780   0.905  25.010  0.00  0.00    +0.087 C 
ATOM     15  C   UNL     1      -1.307  -0.969  24.527  0.00  0.00    +0.074 C 
ATOM     16  C   UNL     1      -2.713   1.571  23.229  0.00  0.00    +0.232 C 
ATOM     17  C   UNL     1      -0.825   0.492  24.450  0.00  0.00    +0.123 C 
ATOM     20  C   UNL     1      -3.163  -2.537  24.619  0.00  0.00    +0.105 C 
ATOM     34  H   UNL     1      -0.783   1.396  22.522  0.00  0.00    +0.149 HD
ENDROOT
BRANCH  15  18
ATOM     18  C   UNL     1      -0.464  -1.789  23.527  0.00  0.00    +0.029 C 
BRANCH  18  21
ATOM     21  C   UNL     1       1.022  -1.670  23.807  0.00  0.00    +0.097 C 
BRANCH  21  23
ATOM      5  O   UNL     1       0.975   0.030  22.138  0.00  0.00    -0.276 OA
ATOM     10  N   UNL     1       3.016  -0.431  23.120  0.00  0.00    -0.301 N 
ATOM     23  C   UNL     1       1.656  -0.610  22.942  0.00  0.00    +0.216 C 
ATOM     24  C   UNL     1       3.875  -1.149  24.054  0.00  0.00    +0.108 C 
ATOM     25  C   UNL     1       3.776   0.548  22.356  0.00  0.00    +0.108 C 
ATOM     26  C   UNL     1       5.289  -0.766  23.640  0.00  0.00    +0.020 C 
ATOM     27  C   UNL     1       5.111   0.639  23.079  0.00  0.00    +0.020 C 
ENDBRANCH  21  23
ENDBRANCH  18  21
ENDBRANCH  15  18
BRANCH   8  19
ATOM     19  C   UNL     1      -5.075   3.199  24.703  0.00  0.00    +0.120 C 
BRANCH  19  22
ATOM     22  C   UNL     1      -3.761   3.906  24.903  0.00  0.00    -0.030 A 
ATOM     28  C   UNL     1      -2.851   3.431  25.848  0.00  0.00    +0.051 A 
ATOM     29  C   UNL     1      -3.454   5.035  24.145  0.00  0.00    +0.005 A 
ATOM     30  C   UNL     1      -1.634   4.087  26.035  0.00  0.00    +0.130 A 
ATOM     31  C   UNL     1      -2.237   5.692  24.332  0.00  0.00    +0.004 A 
ATOM     32  C   UNL     1      -1.326   5.217  25.277  0.00  0.00    +0.046 A 
BRANCH  30   6
ATOM      6  O   UNL     1      -0.747   3.625  26.958  0.00  0.00    -0.406 OA
BRANCH   6  33
ATOM      1  F   UNL     1      -0.311   1.392  26.726  0.00  0.00    -0.133 F 
ATOM      2  F   UNL     1       1.301   2.745  27.318  0.00  0.00    -0.133 F 
ATOM      3  F   UNL     1       0.555   2.805  25.265  0.00  0.00    -0.133 F 
ATOM     33  C   UNL     1       0.191   2.633  26.553  0.00  0.00    +0.575 C 
ENDBRANCH   6  33
ENDBRANCH  30   6
ENDBRANCH  19  22
ENDBRANCH   8  19
TORSDOF 7
ENDMDL
MODEL 3
REMARK VINA RESULT:       1.6      2.530      3.729
REMARK  Name = 45360866
REMARK  8 active torsions:
REMARK  status: ('A' for Active; 'I' for Inactive)
REMARK    1  A    between atoms: O_6  and  C_30
REMARK    2  A    between atoms: O_6  and  C_33
REMARK    3  A    between atoms: N_7  and  C_20
REMARK    4  A    between atoms: N_8  and  C_19
REMARK    5  A    between atoms: C_15  and  C_18
REMARK    6  A    between atoms: C_18  and  C_21
REMARK    7  A    between atoms: C_19  and  C_22
REMARK    8  A    between atoms: C_21  and  C_23
REMARK                            x       y       z     vdW  Elec       q    Type
REMARK                         _______ _______ _______ _____ _____    ______ ____
ROOT
ATOM      4  O   UNL     1      -0.446   3.829  25.161  0.00  0.00    -0.274 OA
ATOM      7  N   UNL     1      -0.551   0.748  22.818  0.00  0.00    -0.296 NA
ATOM      8  N   UNL     1      -2.732   3.533  23.753  0.00  0.00    -0.286 NA
ATOM      9  N   UNL     1      -0.157   1.592  25.548  0.00  0.00    -0.312 N 
ATOM     11  C   UNL     1      -1.869   1.397  22.989  0.00  0.00    +0.084 C 
ATOM     12  C   UNL     1      -2.097   2.294  24.241  0.00  0.00    +0.161 C 
ATOM     13  C   UNL     1      -2.253   2.347  21.839  0.00  0.00    +0.036 C 
ATOM     14  C   UNL     1      -3.319   3.231  22.452  0.00  0.00    +0.087 C 
ATOM     15  C   UNL     1      -0.206  -0.238  23.880  0.00  0.00    +0.074 C 
ATOM     16  C   UNL     1      -0.830   2.671  25.005  0.00  0.00    +0.232 C 
ATOM     17  C   UNL     1      -0.537   0.212  25.315  0.00  0.00    +0.123 C 
ATOM     20  C   UNL     1      -0.443   0.124  21.488  0.00  0.00    +0.105 C 
ATOM     34  H   UNL     1       0.649   1.780  26.135  0.00  0.00    +0.149 HD
ENDROOT
BRANCH  15  18
ATOM     18  C   UNL     1       1.299  -0.576  23.835  0.00  0.00    +0.029 C 
BRANCH  18  21
ATOM     21  C   UNL     1       1.960  -0.054  22.574  0.00  0.00    +0.097 C 
BRANCH  21  23
ATOM      5  O   UNL     1       3.265   1.935  22.697  0.00  0.00    -0.276 OA
ATOM     10  N   UNL     1       4.260  -0.027  23.404  0.00  0.00    -0.301 N 
ATOM     23  C   UNL     1       3.214   0.719  22.894  0.00  0.00    +0.216 C 
ATOM     24  C   UNL     1       4.263  -1.462  23.665  0.00  0.00    +0.108 C 
ATOM     25  C   UNL     1       5.540   0.571  23.757  0.00  0.00    +0.108 C 
ATOM     26  C   UNL     1       5.722  -1.795  23.943  0.00  0.00    +0.020 C 
ATOM     27  C   UNL     1       6.255  -0.507  24.558  0.00  0.00    +0.020 C 
ENDBRANCH  21  23
ENDBRANCH  18  21
ENDBRANCH  15  18
BRANCH   8  19
ATOM     19  C   UNL     1      -3.711   4.083  24.681  0.00  0.00    +0.120 C 
BRANCH  19  22
ATOM     22  C   UNL     1      -4.638   3.022  25.212  0.00  0.00    -0.030 A 
ATOM     28  C   UNL     1      -4.587   1.728  24.692  0.00  0.00    +0.051 A 
ATOM     29  C   UNL     1      -5.548   3.332  26.222  0.00  0.00    +0.005 A 
ATOM     30  C   UNL     1      -5.447   0.745  25.182  0.00  0.00    +0.130 A 
ATOM     31  C   UNL     1      -6.408   2.349  26.712  0.00  0.00    +0.004 A 
ATOM     32  C   UNL     1      -6.357   1.055  26.193  0.00  0.00    +0.046 A 
BRANCH  30   6
ATOM      6  O   UNL     1      -5.398  -0.516  24.674  0.00  0.00    -0.406 OA
BRANCH   6  33
ATOM      1  F   UNL     1      -4.313  -2.529  24.657  0.00  0.00    -0.133 F 
ATOM      2  F   UNL     1      -3.464  -0.862  25.787  0.00  0.00    -0.133 F 
ATOM      3  F   UNL     1      -3.399  -0.816  23.603  0.00  0.00    -0.133 F 
ATOM     33  C   UNL     1      -4.144  -1.190  24.664  0.00  0.00    +0.575 C 
ENDBRANCH   6  33
ENDBRANCH  30   6
ENDBRANCH  19  22
ENDBRANCH   8  19
TORSDOF 7
ENDMDL
MODEL 4
REMARK VINA RESULT:       1.9      2.877      4.503
REMARK  Name = 45360866
REMARK  8 active torsions:
REMARK  status: ('A' for Active; 'I' for Inactive)
REMARK    1  A    between atoms: O_6  and  C_30
REMARK    2  A    between atoms: O_6  and  C_33
REMARK    3  A    between atoms: N_7  and  C_20
REMARK    4  A    between atoms: N_8  and  C_19
REMARK    5  A    between atoms: C_15  and  C_18
REMARK    6  A    between atoms: C_18  and  C_21
REMARK    7  A    between atoms: C_19  and  C_22
REMARK    8  A    between atoms: C_21  and  C_23
REMARK                            x       y       z     vdW  Elec       q    Type
REMARK                         _______ _______ _______ _____ _____    ______ ____
ROOT
ATOM      4  O   UNL     1      -0.560   2.507  27.476  0.00  0.00    -0.274 OA
ATOM      7  N   UNL     1       0.240   3.430  23.802  0.00  0.00    -0.296 NA
ATOM      8  N   UNL     1      -2.337   4.161  26.293  0.00  0.00    -0.286 NA
ATOM      9  N   UNL     1      -0.203   1.228  25.612  0.00  0.00    -0.312 N 
ATOM     11  C   UNL     1      -1.123   3.823  24.219  0.00  0.00    +0.084 C 
ATOM     12  C   UNL     1      -1.760   3.102  25.444  0.00  0.00    +0.161 C 
ATOM     13  C   UNL     1      -1.254   5.305  24.615  0.00  0.00    +0.036 C 
ATOM     14  C   UNL     1      -2.516   5.338  25.450  0.00  0.00    +0.087 C 
ATOM     15  C   UNL     1       0.360   2.020  23.334  0.00  0.00    +0.074 C 
ATOM     16  C   UNL     1      -0.788   2.283  26.288  0.00  0.00    +0.232 C 
ATOM     17  C   UNL     1      -0.389   0.985  24.195  0.00  0.00    +0.123 C 
ATOM     20  C   UNL     1       0.761   4.352  22.778  0.00  0.00    +0.105 C 
ATOM     34  H   UNL     1       0.392   0.597  26.138  0.00  0.00    +0.149 HD
ENDROOT
BRANCH  15  18
ATOM     18  C   UNL     1       1.843   1.593  23.281  0.00  0.00    +0.029 C 
BRANCH  18  21
ATOM     21  C   UNL     1       2.043   0.345  22.445  0.00  0.00    +0.097 C 
BRANCH  21  23
ATOM      5  O   UNL     1       2.199  -1.724  23.616  0.00  0.00    -0.276 OA
ATOM     10  N   UNL     1       4.128  -0.465  23.434  0.00  0.00    -0.301 N 
ATOM     23  C   UNL     1       2.786  -0.716  23.217  0.00  0.00    +0.216 C 
ATOM     24  C   UNL     1       4.882   0.701  22.986  0.00  0.00    +0.108 C 
ATOM     25  C   UNL     1       4.982  -1.388  24.169  0.00  0.00    +0.108 C 
ATOM     26  C   UNL     1       6.209   0.602  23.725  0.00  0.00    +0.020 C 
ATOM     27  C   UNL     1       6.396  -0.900  23.891  0.00  0.00    +0.020 C 
ENDBRANCH  21  23
ENDBRANCH  18  21
ENDBRANCH  15  18
BRANCH   8  19
ATOM     19  C   UNL     1      -3.576   3.763  26.949  0.00  0.00    +0.120 C 
BRANCH  19  22
ATOM     22  C   UNL     1      -4.384   2.821  26.097  0.00  0.00    -0.030 A 
ATOM     28  C   UNL     1      -3.743   1.819  25.366  0.00  0.00    +0.051 A 
ATOM     29  C   UNL     1      -5.771   2.948  26.037  0.00  0.00    +0.005 A 
ATOM     30  C   UNL     1      -4.491   0.946  24.575  0.00  0.00    +0.130 A 
ATOM     31  C   UNL     1      -6.519   2.076  25.245  0.00  0.00    +0.004 A 
ATOM     32  C   UNL     1      -5.879   1.074  24.515  0.00  0.00    +0.046 A 
BRANCH  30   6
ATOM      6  O   UNL     1      -3.866  -0.030  23.862  0.00  0.00    -0.406 OA
BRANCH   6  33
ATOM      1  F   UNL     1      -3.938  -1.280  25.775  0.00  0.00    -0.133 F 
ATOM      2  F   UNL     1      -2.537  -1.825  24.189  0.00  0.00    -0.133 F 
ATOM      3  F   UNL     1      -4.675  -2.169  23.892  0.00  0.00    -0.133 F 
ATOM     33  C   UNL     1      -3.771  -1.329  24.437  0.00  0.00    +0.575 C 
ENDBRANCH   6  33
ENDBRANCH  30   6
ENDBRANCH  19  22
ENDBRANCH   8  19
TORSDOF 7
ENDMDL
MODEL 5
REMARK VINA RESULT:       2.4      3.009      6.828
REMARK  Name = 45360866
REMARK  8 active torsions:
REMARK  status: ('A' for Active; 'I' for Inactive)
REMARK    1  A    between atoms: O_6  and  C_30
REMARK    2  A    between atoms: O_6  and  C_33
REMARK    3  A    between atoms: N_7  and  C_20
REMARK    4  A    between atoms: N_8  and  C_19
REMARK    5  A    between atoms: C_15  and  C_18
REMARK    6  A    between atoms: C_18  and  C_21
REMARK    7  A    between atoms: C_19  and  C_22
REMARK    8  A    between atoms: C_21  and  C_23
REMARK                            x       y       z     vdW  Elec       q    Type
REMARK                         _______ _______ _______ _____ _____    ______ ____
ROOT
ATOM      4  O   UNL     1      -0.943   1.903  23.639  0.00  0.00    -0.274 OA
ATOM      7  N   UNL     1      -3.574  -0.168  25.583  0.00  0.00    -0.296 NA
ATOM      8  N   UNL     1      -0.211  -0.631  24.219  0.00  0.00    -0.286 NA
ATOM      9  N   UNL     1      -3.127   1.385  23.193  0.00  0.00    -0.312 N 
ATOM     11  C   UNL     1      -2.463  -0.987  25.051  0.00  0.00    +0.084 C 
ATOM     12  C   UNL     1      -1.628  -0.422  23.865  0.00  0.00    +0.161 C 
ATOM     13  C   UNL     1      -1.371  -1.308  26.088  0.00  0.00    +0.036 C 
ATOM     14  C   UNL     1      -0.173  -1.674  25.238  0.00  0.00    +0.087 C 
ATOM     15  C   UNL     1      -4.679   0.077  24.613  0.00  0.00    +0.074 C 
ATOM     16  C   UNL     1      -1.838   1.062  23.575  0.00  0.00    +0.232 C 
ATOM     17  C   UNL     1      -4.221   0.434  23.186  0.00  0.00    +0.123 C 
ATOM     20  C   UNL     1      -4.108  -0.753  26.825  0.00  0.00    +0.105 C 
ATOM     34  H   UNL     1      -3.314   2.342  22.911  0.00  0.00    +0.149 HD
ENDROOT
BRANCH  15  18
ATOM     18  C   UNL     1      -5.588   1.221  25.109  0.00  0.00    +0.029 C 
BRANCH  18  21
ATOM     21  C   UNL     1      -4.838   2.200  25.991  0.00  0.00    +0.097 C 
BRANCH  21  23
ATOM      5  O   UNL     1      -5.363   4.060  24.598  0.00  0.00    -0.276 OA
ATOM     10  N   UNL     1      -3.178   3.867  25.323  0.00  0.00    -0.301 N 
ATOM     23  C   UNL     1      -4.497   3.461  25.238  0.00  0.00    +0.216 C 
ATOM     24  C   UNL     1      -2.108   3.208  26.064  0.00  0.00    +0.108 C 
ATOM     25  C   UNL     1      -2.688   5.060  24.648  0.00  0.00    +0.108 C 
ATOM     26  C   UNL     1      -0.837   3.899  25.591  0.00  0.00    +0.020 C 
ATOM     27  C   UNL     1      -1.316   5.306  25.259  0.00  0.00    +0.020 C 
ENDBRANCH  21  23
ENDBRANCH  18  21
ENDBRANCH  15  18
BRANCH   8  19
ATOM     19  C   UNL     1       0.628  -0.954  23.072  0.00  0.00    +0.120 C 
BRANCH  19  22
ATOM     22  C   UNL     1       1.807  -0.024  22.960  0.00  0.00    -0.030 A 
ATOM     28  C   UNL     1       3.087  -0.542  22.759  0.00  0.00    +0.051 A 
ATOM     29  C   UNL     1       1.620   1.354  23.058  0.00  0.00    +0.005 A 
ATOM     30  C   UNL     1       4.180   0.319  22.657  0.00  0.00    +0.130 A 
ATOM     31  C   UNL     1       2.713   2.216  22.956  0.00  0.00    +0.004 A 
ATOM     32  C   UNL     1       3.993   1.698  22.755  0.00  0.00    +0.046 A 
BRANCH  30   6
ATOM      6  O   UNL     1       5.428  -0.186  22.462  0.00  0.00    -0.406 OA
BRANCH   6  33
ATOM      1  F   UNL     1       5.944  -1.526  24.242  0.00  0.00    -0.133 F 
ATOM      2  F   UNL     1       6.072   0.645  24.460  0.00  0.00    -0.133 F 
ATOM      3  F   UNL     1       7.565  -0.398  23.251  0.00  0.00    -0.133 F 
ATOM     33  C   UNL     1       6.261  -0.382  23.600  0.00  0.00    +0.575 C 
ENDBRANCH   6  33
ENDBRANCH  30   6
ENDBRANCH  19  22
ENDBRANCH   8  19
TORSDOF 7
ENDMDL
MODEL 6
REMARK VINA RESULT:       2.4      2.954      7.329
REMARK  Name = 45360866
REMARK  8 active torsions:
REMARK  status: ('A' for Active; 'I' for Inactive)
REMARK    1  A    between atoms: O_6  and  C_30
REMARK    2  A    between atoms: O_6  and  C_33
REMARK    3  A    between atoms: N_7  and  C_20
REMARK    4  A    between atoms: N_8  and  C_19
REMARK    5  A    between atoms: C_15  and  C_18
REMARK    6  A    between atoms: C_18  and  C_21
REMARK    7  A    between atoms: C_19  and  C_22
REMARK    8  A    between atoms: C_21  and  C_23
REMARK                            x       y       z     vdW  Elec       q    Type
REMARK                         _______ _______ _______ _____ _____    ______ ____
ROOT
ATOM      4  O   UNL     1      -1.324   0.449  26.618  0.00  0.00    -0.274 OA
ATOM      7  N   UNL     1      -2.550   3.020  23.996  0.00  0.00    -0.296 NA
ATOM      8  N   UNL     1      -1.046  -0.315  24.043  0.00  0.00    -0.286 NA
ATOM      9  N   UNL     1      -0.776   2.638  26.239  0.00  0.00    -0.312 N 
ATOM     11  C   UNL     1      -1.763   1.915  23.406  0.00  0.00    +0.084 C 
ATOM     12  C   UNL     1      -0.805   1.110  24.334  0.00  0.00    +0.161 C 
ATOM     13  C   UNL     1      -2.622   0.797  22.785  0.00  0.00    +0.036 C 
ATOM     14  C   UNL     1      -1.676  -0.384  22.729  0.00  0.00    +0.087 C 
ATOM     15  C   UNL     1      -1.730   4.148  24.522  0.00  0.00    +0.074 C 
ATOM     16  C   UNL     1      -1.010   1.339  25.829  0.00  0.00    +0.232 C 
ATOM     17  C   UNL     1      -0.485   3.725  25.324  0.00  0.00    +0.123 C 
ATOM     20  C   UNL     1      -3.549   3.521  23.037  0.00  0.00    +0.105 C 
ATOM     34  H   UNL     1      -0.818   2.839  27.233  0.00  0.00    +0.149 HD
ENDROOT
BRANCH  15  18
ATOM     18  C   UNL     1      -2.583   5.055  25.434  0.00  0.00    +0.029 C 
BRANCH  18  21
ATOM     21  C   UNL     1      -3.383   4.253  26.443  0.00  0.00    +0.097 C 
BRANCH  21  23
ATOM      5  O   UNL     1      -5.586   4.969  25.886  0.00  0.00    -0.276 OA
ATOM     10  N   UNL     1      -5.111   2.720  25.640  0.00  0.00    -0.301 N 
ATOM     23  C   UNL     1      -4.795   4.027  25.965  0.00  0.00    +0.216 C 
ATOM     24  C   UNL     1      -4.223   1.565  25.706  0.00  0.00    +0.108 C 
ATOM     25  C   UNL     1      -6.434   2.337  25.169  0.00  0.00    +0.108 C 
ATOM     26  C   UNL     1      -5.144   0.368  25.517  0.00  0.00    +0.020 C 
ATOM     27  C   UNL     1      -6.251   0.925  24.633  0.00  0.00    +0.020 C 
ENDBRANCH  21  23
ENDBRANCH  18  21
ENDBRANCH  15  18
BRANCH   8  19
ATOM     19  C   UNL     1       0.159  -1.131  24.116  0.00  0.00    +0.120 C 
BRANCH  19  22
ATOM     22  C   UNL     1       1.233  -0.630  23.187  0.00  0.00    -0.030 A 
ATOM     28  C   UNL     1       2.414  -0.100  23.710  0.00  0.00    +0.051 A 
ATOM     29  C   UNL     1       1.048  -0.694  21.807  0.00  0.00    +0.005 A 
ATOM     30  C   UNL     1       3.408   0.367  22.850  0.00  0.00    +0.130 A 
ATOM     31  C   UNL     1       2.043  -0.227  20.947  0.00  0.00    +0.004 A 
ATOM     32  C   UNL     1       3.224   0.303  21.469  0.00  0.00    +0.046 A 
BRANCH  30   6
ATOM      6  O   UNL     1       4.559   0.885  23.359  0.00  0.00    -0.406 OA
BRANCH   6  33
ATOM      1  F   UNL     1       5.051  -1.281  23.904  0.00  0.00    -0.133 F 
ATOM      2  F   UNL     1       5.713   0.334  25.220  0.00  0.00    -0.133 F 
ATOM      3  F   UNL     1       6.692   0.063  23.285  0.00  0.00    -0.133 F 
ATOM     33  C   UNL     1       5.508  -0.011  23.928  0.00  0.00    +0.575 C 
ENDBRANCH   6  33
ENDBRANCH  30   6
ENDBRANCH  19  22
ENDBRANCH   8  19
TORSDOF 7
ENDMDL
MODEL 7
REMARK VINA RESULT:       2.6      2.753      6.448
REMARK  Name = 45360866
REMARK  8 active torsions:
REMARK  status: ('A' for Active; 'I' for Inactive)
REMARK    1  A    between atoms: O_6  and  C_30
REMARK    2  A    between atoms: O_6  and  C_33
REMARK    3  A    between atoms: N_7  and  C_20
REMARK    4  A    between atoms: N_8  and  C_19
REMARK    5  A    between atoms: C_15  and  C_18
REMARK    6  A    between atoms: C_18  and  C_21
REMARK    7  A    between atoms: C_19  and  C_22
REMARK    8  A    between atoms: C_21  and  C_23
REMARK                            x       y       z     vdW  Elec       q    Type
REMARK                         _______ _______ _______ _____ _____    ______ ____
ROOT
ATOM      4  O   UNL     1      -0.358   1.502  25.428  0.00  0.00    -0.274 OA
ATOM      7  N   UNL     1      -4.089   1.177  24.447  0.00  0.00    -0.296 NA
ATOM      8  N   UNL     1      -1.328  -1.018  25.418  0.00  0.00    -0.286 NA
ATOM      9  N   UNL     1      -1.525   2.175  23.579  0.00  0.00    -0.312 N 
ATOM     11  C   UNL     1      -3.379  -0.120  24.482  0.00  0.00    +0.084 C 
ATOM     12  C   UNL     1      -1.827  -0.119  24.361  0.00  0.00    +0.161 C 
ATOM     13  C   UNL     1      -3.599  -0.919  25.780  0.00  0.00    +0.036 C 
ATOM     14  C   UNL     1      -2.436  -1.888  25.800  0.00  0.00    +0.087 C 
ATOM     15  C   UNL     1      -3.953   1.920  23.162  0.00  0.00    +0.074 C 
ATOM     16  C   UNL     1      -1.166   1.245  24.537  0.00  0.00    +0.232 C 
ATOM     17  C   UNL     1      -2.533   1.930  22.566  0.00  0.00    +0.123 C 
ATOM     20  C   UNL     1      -5.511   1.006  24.788  0.00  0.00    +0.105 C 
ATOM     34  H   UNL     1      -1.061   3.077  23.593  0.00  0.00    +0.149 HD
ENDROOT
BRANCH  15  18
ATOM     18  C   UNL     1      -4.392   3.389  23.340  0.00  0.00    +0.029 C 
BRANCH  18  21
ATOM     21  C   UNL     1      -4.875   3.670  24.749  0.00  0.00    +0.097 C 
BRANCH  21  23
ATOM      5  O   UNL     1      -3.813   3.148  26.816  0.00  0.00    -0.276 OA
ATOM     10  N   UNL     1      -2.609   4.408  25.298  0.00  0.00    -0.301 N 
ATOM     23  C   UNL     1      -3.725   3.710  25.723  0.00  0.00    +0.216 C 
ATOM     24  C   UNL     1      -2.440   5.089  24.019  0.00  0.00    +0.108 C 
ATOM     25  C   UNL     1      -1.418   4.545  26.125  0.00  0.00    +0.108 C 
ATOM     26  C   UNL     1      -1.170   5.910  24.192  0.00  0.00    +0.020 C 
ATOM     27  C   UNL     1      -0.357   5.079  25.175  0.00  0.00    +0.020 C 
ENDBRANCH  21  23
ENDBRANCH  18  21
ENDBRANCH  15  18
BRANCH   8  19
ATOM     19  C   UNL     1      -0.148  -1.776  25.022  0.00  0.00    +0.120 C 
BRANCH  19  22
ATOM     22  C   UNL     1       0.564  -1.139  23.859  0.00  0.00    -0.030 A 
ATOM     28  C   UNL     1       1.774  -0.474  24.062  0.00  0.00    +0.051 A 
ATOM     29  C   UNL     1       0.014  -1.211  22.579  0.00  0.00    +0.005 A 
ATOM     30  C   UNL     1       2.433   0.119  22.985  0.00  0.00    +0.130 A 
ATOM     31  C   UNL     1       0.673  -0.618  21.502  0.00  0.00    +0.004 A 
ATOM     32  C   UNL     1       1.884   0.046  21.705  0.00  0.00    +0.046 A 
BRANCH  30   6
ATOM      6  O   UNL     1       3.613   0.767  23.183  0.00  0.00    -0.406 OA
BRANCH   6  33
ATOM      1  F   UNL     1       4.448  -1.306  23.668  0.00  0.00    -0.133 F 
ATOM      2  F   UNL     1       5.342   0.457  24.602  0.00  0.00    -0.133 F 
ATOM      3  F   UNL     1       5.679   0.088  22.474  0.00  0.00    -0.133 F 
ATOM     33  C   UNL     1       4.771  -0.011  23.467  0.00  0.00    +0.575 C 
ENDBRANCH   6  33
ENDBRANCH  30   6
ENDBRANCH  19  22
ENDBRANCH   8  19
TORSDOF 7
ENDMDL
MODEL 8
REMARK VINA RESULT:       2.8      2.880      7.214
REMARK  Name = 45360866
REMARK  8 active torsions:
REMARK  status: ('A' for Active; 'I' for Inactive)
REMARK    1  A    between atoms: O_6  and  C_30
REMARK    2  A    between atoms: O_6  and  C_33
REMARK    3  A    between atoms: N_7  and  C_20
REMARK    4  A    between atoms: N_8  and  C_19
REMARK    5  A    between atoms: C_15  and  C_18
REMARK    6  A    between atoms: C_18  and  C_21
REMARK    7  A    between atoms: C_19  and  C_22
REMARK    8  A    between atoms: C_21  and  C_23
REMARK                            x       y       z     vdW  Elec       q    Type
REMARK                         _______ _______ _______ _____ _____    ______ ____
ROOT
ATOM      4  O   UNL     1      -2.348   3.445  23.768  0.00  0.00    -0.274 OA
ATOM      7  N   UNL     1      -3.041  -0.020  25.350  0.00  0.00    -0.296 NA
ATOM      8  N   UNL     1      -0.187   2.204  24.808  0.00  0.00    -0.286 NA
ATOM      9  N   UNL     1      -3.295   1.536  22.934  0.00  0.00    -0.312 N 
ATOM     11  C   UNL     1      -1.600   0.266  25.177  0.00  0.00    +0.084 C 
ATOM     12  C   UNL     1      -1.178   1.343  24.136  0.00  0.00    +0.161 C 
ATOM     13  C   UNL     1      -0.904   0.767  26.457  0.00  0.00    +0.036 C 
ATOM     14  C   UNL     1       0.345   1.447  25.936  0.00  0.00    +0.087 C 
ATOM     15  C   UNL     1      -3.707  -0.586  24.143  0.00  0.00    +0.074 C 
ATOM     16  C   UNL     1      -2.312   2.224  23.621  0.00  0.00    +0.232 C 
ATOM     17  C   UNL     1      -3.324   0.091  22.814  0.00  0.00    +0.123 C 
ATOM     20  C   UNL     1      -3.266  -0.894  26.514  0.00  0.00    +0.105 C 
ATOM     34  H   UNL     1      -4.037   2.074  22.498  0.00  0.00    +0.149 HD
ENDROOT
BRANCH  15  18
ATOM     18  C   UNL     1      -5.242  -0.500  24.283  0.00  0.00    +0.029 C 
BRANCH  18  21
ATOM     21  C   UNL     1      -5.656   0.357  25.464  0.00  0.00    +0.097 C 
BRANCH  21  23
ATOM      5  O   UNL     1      -7.080   1.852  24.275  0.00  0.00    -0.276 OA
ATOM     10  N   UNL     1      -5.343   2.782  25.483  0.00  0.00    -0.301 N 
ATOM     23  C   UNL     1      -6.102   1.726  25.014  0.00  0.00    +0.216 C 
ATOM     24  C   UNL     1      -4.182   2.701  26.362  0.00  0.00    +0.108 C 
ATOM     25  C   UNL     1      -5.640   4.165  25.135  0.00  0.00    +0.108 C 
ATOM     26  C   UNL     1      -3.581   4.099  26.326  0.00  0.00    +0.020 C 
ATOM     27  C   UNL     1      -4.796   4.988  26.097  0.00  0.00    +0.020 C 
ENDBRANCH  21  23
ENDBRANCH  18  21
ENDBRANCH  15  18
BRANCH   8  19
ATOM     19  C   UNL     1       0.867   2.674  23.918  0.00  0.00    +0.120 C 
BRANCH  19  22
ATOM     22  C   UNL     1       1.569   1.534  23.229  0.00  0.00    -0.030 A 
ATOM     28  C   UNL     1       2.964   1.493  23.195  0.00  0.00    +0.051 A 
ATOM     29  C   UNL     1       0.827   0.520  22.625  0.00  0.00    +0.005 A 
ATOM     30  C   UNL     1       3.615   0.439  22.555  0.00  0.00    +0.130 A 
ATOM     31  C   UNL     1       1.478  -0.535  21.985  0.00  0.00    +0.004 A 
ATOM     32  C   UNL     1       2.873  -0.576  21.951  0.00  0.00    +0.046 A 
BRANCH  30   6
ATOM      6  O   UNL     1       4.975   0.399  22.521  0.00  0.00    -0.406 OA
BRANCH   6  33
ATOM      1  F   UNL     1       5.072  -1.300  24.048  0.00  0.00    -0.133 F 
ATOM      2  F   UNL     1       5.618   0.726  24.661  0.00  0.00    -0.133 F 
ATOM      3  F   UNL     1       6.958  -0.390  23.344  0.00  0.00    -0.133 F 
ATOM     33  C   UNL     1       5.661  -0.158  23.637  0.00  0.00    +0.575 C 
ENDBRANCH   6  33
ENDBRANCH  30   6
ENDBRANCH  19  22
ENDBRANCH   8  19
TORSDOF 7
ENDMDL
