MODEL 1
REMARK VINA RESULT:      -3.3      0.000      0.000
REMARK  Name = 7050317
REMARK  4 active torsions:
REMARK  status: ('A' for Active; 'I' for Inactive)
REMARK    1  A    between atoms: N_6  and  C_16
REMARK    2  A    between atoms: N_7  and  C_11
REMARK    3  A    between atoms: C_16  and  C_18
REMARK    4  A    between atoms: C_17  and  C_19
REMARK                            x       y       z     vdW  Elec       q    Type
REMARK                         _______ _______ _______ _____ _____    ______ ____
ROOT
ATOM      2  O   UNL     1      13.516  -7.900  29.928  0.00  0.00    -0.273 OA
ATOM      3  O   UNL     1      14.047  -4.296  32.748  0.00  0.00    -0.252 OA
ATOM      5  N   UNL     1      15.022  -4.874  30.697  0.00  0.00    -0.273 N 
ATOM      6  N   UNL     1      13.472  -6.221  31.553  0.00  0.00    -0.223 N 
ATOM      9  C   UNL     1      14.925  -5.936  29.723  0.00  0.00    +0.166 C 
ATOM     10  C   UNL     1      16.277  -6.615  29.529  0.00  0.00    +0.054 C 
ATOM     11  C   UNL     1      17.388  -5.584  29.258  0.00  0.00    +0.077 C 
ATOM     12  C   UNL     1      17.402  -4.484  30.336  0.00  0.00    +0.041 C 
ATOM     13  C   UNL     1      16.027  -3.841  30.531  0.00  0.00    +0.112 C 
ATOM     14  C   UNL     1      13.890  -6.830  30.388  0.00  0.00    +0.244 C 
ATOM     15  C   UNL     1      14.157  -5.038  31.780  0.00  0.00    +0.312 C 
ENDROOT
BRANCH  11   7
ATOM      4  O   UNL     1      17.402  -7.020  26.830  0.00  0.00    -0.270 OA
ATOM      7  N   UNL     1      17.254  -5.012  27.936  0.00  0.00    -0.308 N 
ATOM     17  C   UNL     1      17.271  -5.795  26.785  0.00  0.00    +0.244 C 
ATOM     24  H   UNL     1      17.161  -4.004  27.874  0.00  0.00    +0.149 HD
BRANCH  17  19
ATOM      8  N   UNL     1      16.753  -3.704  23.122  0.00  0.00    -0.263 NA
ATOM     19  C   UNL     1      17.091  -5.071  25.517  0.00  0.00    +0.040 A 
ATOM     20  C   UNL     1      16.676  -3.752  25.537  0.00  0.00    +0.033 A 
ATOM     21  C   UNL     1      17.340  -5.719  24.322  0.00  0.00    +0.033 A 
ATOM     22  C   UNL     1      16.522  -3.115  24.316  0.00  0.00    +0.111 A 
ATOM     23  C   UNL     1      17.155  -4.994  23.155  0.00  0.00    +0.111 A 
ENDBRANCH  17  19
ENDBRANCH  11   7
BRANCH   6  16
ATOM     16  C   UNL     1      12.483  -6.772  32.458  0.00  0.00    +0.134 C 
BRANCH  16  18
ATOM      1 CL   UNL     1      10.184  -8.146  31.931  0.00  0.00    -0.124 Cl
ATOM     18  C   UNL     1      11.063  -6.596  31.945  0.00  0.00    +0.128 C 
ENDBRANCH  16  18
ENDBRANCH   6  16
TORSDOF 4
ENDMDL
MODEL 2
REMARK VINA RESULT:      -2.0     16.367     17.794
REMARK  Name = 7050317
REMARK  4 active torsions:
REMARK  status: ('A' for Active; 'I' for Inactive)
REMARK    1  A    between atoms: N_6  and  C_16
REMARK    2  A    between atoms: N_7  and  C_11
REMARK    3  A    between atoms: C_16  and  C_18
REMARK    4  A    between atoms: C_17  and  C_19
REMARK                            x       y       z     vdW  Elec       q    Type
REMARK                         _______ _______ _______ _____ _____    ______ ____
ROOT
ATOM      2  O   UNL     1      -1.904   3.708  24.358  0.00  0.00    -0.273 OA
ATOM      3  O   UNL     1      -3.908  -0.064  26.085  0.00  0.00    -0.252 OA
ATOM      5  N   UNL     1      -1.856   0.304  25.017  0.00  0.00    -0.273 N 
ATOM      6  N   UNL     1      -3.190   2.046  25.383  0.00  0.00    -0.223 N 
ATOM      9  C   UNL     1      -1.116   1.415  24.464  0.00  0.00    +0.166 C 
ATOM     10  C   UNL     1      -0.817   1.183  22.987  0.00  0.00    +0.054 C 
ATOM     11  C   UNL     1      -0.181  -0.200  22.755  0.00  0.00    +0.077 C 
ATOM     12  C   UNL     1      -1.029  -1.317  23.392  0.00  0.00    +0.041 C 
ATOM     13  C   UNL     1      -1.340  -1.044  24.865  0.00  0.00    +0.112 C 
ATOM     14  C   UNL     1      -2.096   2.552  24.711  0.00  0.00    +0.244 C 
ATOM     15  C   UNL     1      -3.083   0.677  25.567  0.00  0.00    +0.312 C 
ENDROOT
BRANCH  11   7
ATOM      4  O   UNL     1       2.150  -0.207  21.166  0.00  0.00    -0.270 OA
ATOM      7  N   UNL     1       1.178  -0.236  23.247  0.00  0.00    -0.308 N 
ATOM     17  C   UNL     1       2.277  -0.236  22.392  0.00  0.00    +0.244 C 
ATOM     24  H   UNL     1       1.306  -0.276  24.253  0.00  0.00    +0.149 HD
BRANCH  17  19
ATOM      8  N   UNL     1       6.086  -0.252  24.276  0.00  0.00    -0.263 NA
ATOM     19  C   UNL     1       3.594  -0.242  23.045  0.00  0.00    +0.040 A 
ATOM     20  C   UNL     1       4.035  -1.386  23.684  0.00  0.00    +0.033 A 
ATOM     21  C   UNL     1       4.377   0.897  23.009  0.00  0.00    +0.033 A 
ATOM     22  C   UNL     1       5.284  -1.340  24.282  0.00  0.00    +0.111 A 
ATOM     23  C   UNL     1       5.610   0.841  23.639  0.00  0.00    +0.111 A 
ENDBRANCH  17  19
ENDBRANCH  11   7
BRANCH   6  16
ATOM     16  C   UNL     1      -4.333   2.833  25.799  0.00  0.00    +0.134 C 
BRANCH  16  18
ATOM      1 CL   UNL     1      -6.635   1.636  24.951  0.00  0.00    -0.124 Cl
ATOM     18  C   UNL     1      -5.409   2.909  24.728  0.00  0.00    +0.128 C 
ENDBRANCH  16  18
ENDBRANCH   6  16
TORSDOF 4
ENDMDL
MODEL 3
REMARK VINA RESULT:      -0.9     16.715     18.156
REMARK  Name = 7050317
REMARK  4 active torsions:
REMARK  status: ('A' for Active; 'I' for Inactive)
REMARK    1  A    between atoms: N_6  and  C_16
REMARK    2  A    between atoms: N_7  and  C_11
REMARK    3  A    between atoms: C_16  and  C_18
REMARK    4  A    between atoms: C_17  and  C_19
REMARK                            x       y       z     vdW  Elec       q    Type
REMARK                         _______ _______ _______ _____ _____    ______ ____
ROOT
ATOM      2  O   UNL     1      -2.564   2.362  21.948  0.00  0.00    -0.273 OA
ATOM      3  O   UNL     1      -3.326   2.967  26.452  0.00  0.00    -0.252 OA
ATOM      5  N   UNL     1      -1.731   1.737  25.255  0.00  0.00    -0.273 N 
ATOM      6  N   UNL     1      -3.211   2.946  24.117  0.00  0.00    -0.223 N 
ATOM      9  C   UNL     1      -1.377   1.491  23.876  0.00  0.00    +0.166 C 
ATOM     10  C   UNL     1      -1.442  -0.000  23.560  0.00  0.00    +0.054 C 
ATOM     11  C   UNL     1      -0.652  -0.826  24.590  0.00  0.00    +0.077 C 
ATOM     12  C   UNL     1      -1.085  -0.485  26.028  0.00  0.00    +0.041 C 
ATOM     13  C   UNL     1      -1.038   1.019  26.309  0.00  0.00    +0.112 C 
ATOM     14  C   UNL     1      -2.445   2.307  23.165  0.00  0.00    +0.244 C 
ATOM     15  C   UNL     1      -2.815   2.603  25.399  0.00  0.00    +0.312 C 
ENDROOT
BRANCH  11   7
ATOM      4  O   UNL     1       0.697  -0.565  22.126  0.00  0.00    -0.270 OA
ATOM      7  N   UNL     1       0.773  -0.643  24.421  0.00  0.00    -0.308 N 
ATOM     17  C   UNL     1       1.360  -0.522  23.164  0.00  0.00    +0.244 C 
ATOM     24  H   UNL     1       1.341  -0.620  25.261  0.00  0.00    +0.149 HD
BRANCH  17  19
ATOM      8  N   UNL     1       5.564   0.098  23.145  0.00  0.00    -0.263 NA
ATOM     19  C   UNL     1       2.815  -0.307  23.157  0.00  0.00    +0.040 A 
ATOM     20  C   UNL     1       3.331   0.857  22.617  0.00  0.00    +0.033 A 
ATOM     21  C   UNL     1       3.649  -1.272  23.691  0.00  0.00    +0.033 A 
ATOM     22  C   UNL     1       4.708   1.011  22.635  0.00  0.00    +0.111 A 
ATOM     23  C   UNL     1       5.012  -1.022  23.660  0.00  0.00    +0.111 A 
ENDBRANCH  17  19
ENDBRANCH  11   7
BRANCH   6  16
ATOM     16  C   UNL     1      -4.327   3.822  23.820  0.00  0.00    +0.134 C 
BRANCH  16  18
ATOM      1 CL   UNL     1      -6.169   2.083  24.837  0.00  0.00    -0.124 Cl
ATOM     18  C   UNL     1      -5.444   3.711  24.844  0.00  0.00    +0.128 C 
ENDBRANCH  16  18
ENDBRANCH   6  16
TORSDOF 4
ENDMDL
MODEL 4
REMARK VINA RESULT:       0.2     17.537     19.017
REMARK  Name = 7050317
REMARK  4 active torsions:
REMARK  status: ('A' for Active; 'I' for Inactive)
REMARK    1  A    between atoms: N_6  and  C_16
REMARK    2  A    between atoms: N_7  and  C_11
REMARK    3  A    between atoms: C_16  and  C_18
REMARK    4  A    between atoms: C_17  and  C_19
REMARK                            x       y       z     vdW  Elec       q    Type
REMARK                         _______ _______ _______ _____ _____    ______ ____
ROOT
ATOM      2  O   UNL     1      -4.257  -0.257  24.486  0.00  0.00    -0.273 OA
ATOM      3  O   UNL     1      -4.610   4.316  24.922  0.00  0.00    -0.252 OA
ATOM      5  N   UNL     1      -2.777   2.865  24.769  0.00  0.00    -0.273 N 
ATOM      6  N   UNL     1      -4.825   2.005  24.644  0.00  0.00    -0.223 N 
ATOM      9  C   UNL     1      -2.537   1.449  24.608  0.00  0.00    +0.166 C 
ATOM     10  C   UNL     1      -1.722   0.904  25.776  0.00  0.00    +0.054 C 
ATOM     11  C   UNL     1      -0.461   1.751  26.023  0.00  0.00    +0.077 C 
ATOM     12  C   UNL     1      -0.813   3.244  26.166  0.00  0.00    +0.041 C 
ATOM     13  C   UNL     1      -1.656   3.758  24.996  0.00  0.00    +0.112 C 
ATOM     14  C   UNL     1      -3.965   0.928  24.571  0.00  0.00    +0.244 C 
ATOM     15  C   UNL     1      -4.132   3.196  24.785  0.00  0.00    +0.312 C 
ENDROOT
BRANCH  11   7
ATOM      4  O   UNL     1      -0.111  -0.618  24.533  0.00  0.00    -0.270 OA
ATOM      7  N   UNL     1       0.516   1.547  24.978  0.00  0.00    -0.308 N 
ATOM     17  C   UNL     1       0.623   0.342  24.288  0.00  0.00    +0.244 C 
ATOM     24  H   UNL     1       1.141   2.317  24.770  0.00  0.00    +0.149 HD
BRANCH  17  19
ATOM      8  N   UNL     1       3.572   0.220  21.231  0.00  0.00    -0.263 NA
ATOM     19  C   UNL     1       1.643   0.299  23.230  0.00  0.00    +0.040 A 
ATOM     20  C   UNL     1       1.371  -0.359  22.045  0.00  0.00    +0.033 A 
ATOM     21  C   UNL     1       2.862   0.918  23.434  0.00  0.00    +0.033 A 
ATOM     22  C   UNL     1       2.365  -0.370  21.080  0.00  0.00    +0.111 A 
ATOM     23  C   UNL     1       3.790   0.849  22.407  0.00  0.00    +0.111 A 
ENDBRANCH  17  19
ENDBRANCH  11   7
BRANCH   6  16
ATOM     16  C   UNL     1      -6.270   1.903  24.630  0.00  0.00    +0.134 C 
BRANCH  16  18
ATOM      1 CL   UNL     1      -6.534   1.209  27.257  0.00  0.00    -0.124 Cl
ATOM     18  C   UNL     1      -6.898   2.352  25.939  0.00  0.00    +0.128 C 
ENDBRANCH  16  18
ENDBRANCH   6  16
TORSDOF 4
ENDMDL
