MODEL 1
REMARK VINA RESULT:      -4.7      0.000      0.000
REMARK  Name = 75536744
REMARK  7 active torsions:
REMARK  status: ('A' for Active; 'I' for Inactive)
REMARK    1  A    between atoms: O_2  and  C_9
REMARK    2  A    between atoms: N_5  and  C_8
REMARK    3  A    between atoms: N_5  and  C_13
REMARK    4  A    between atoms: N_6  and  C_12
REMARK    5  A    between atoms: C_10  and  C_12
REMARK    6  A    between atoms: C_13  and  C_14
REMARK    7  A    between atoms: C_13  and  C_15
REMARK                            x       y       z     vdW  Elec       q    Type
REMARK                         _______ _______ _______ _____ _____    ______ ____
ROOT
ATOM      1  O   UNL     1      -8.554  -9.179  10.727  0.00  0.00    -0.371 OA
ATOM      8  C   UNL     1      -6.220  -9.173  10.285  0.00  0.00    +0.111 C 
ATOM      9  C   UNL     1      -6.442  -9.397  11.770  0.00  0.00    +0.164 C 
ATOM     10  C   UNL     1      -7.882  -9.892  11.779  0.00  0.00    +0.165 C 
ATOM     11  C   UNL     1      -7.561  -8.597   9.864  0.00  0.00    +0.181 C 
ENDROOT
BRANCH   9   2
ATOM      2  O   UNL     1      -5.554 -10.351  12.317  0.00  0.00    -0.388 OA
ATOM     22  H   UNL     1      -4.665 -10.181  11.961  0.00  0.00    +0.210 HD
ENDBRANCH   9   2
BRANCH   8   5
ATOM      5  N   UNL     1      -5.105  -8.288   9.989  0.00  0.00    -0.307 NA
ATOM     21  H   UNL     1      -4.757  -7.863  10.848  0.00  0.00    +0.123 HD
BRANCH   5  13
ATOM     13  C   UNL     1      -4.028  -9.006   9.319  0.00  0.00    +0.048 C 
ATOM     14  C   UNL     1      -2.912  -9.293  10.318  0.00  0.00    +0.023 C 
ATOM     15  C   UNL     1      -4.556 -10.298   8.702  0.00  0.00    +0.023 C 
ENDBRANCH   5  13
ENDBRANCH   8   5
BRANCH  10  12
ATOM     12  C   UNL     1      -8.593  -9.647  13.099  0.00  0.00    +0.140 C 
BRANCH  12   6
ATOM      3  O   UNL     1      -5.208 -10.448  18.492  0.00  0.00    -0.377 OA
ATOM      4  O   UNL     1      -9.309  -9.725  15.819  0.00  0.00    -0.253 OA
ATOM      6  N   UNL     1      -7.671  -9.687  14.212  0.00  0.00    -0.297 N 
ATOM      7  N   UNL     1      -7.093  -9.755  16.502  0.00  0.00    -0.281 N 
ATOM     16  C   UNL     1      -8.107  -9.725  15.531  0.00  0.00    +0.302 C 
ATOM     17  C   UNL     1      -7.461  -9.789  17.920  0.00  0.00    +0.137 C 
ATOM     18  C   UNL     1      -5.651  -9.604  16.255  0.00  0.00    +0.137 C 
ATOM     19  C   UNL     1      -6.587 -10.767  18.687  0.00  0.00    +0.179 C 
ATOM     20  C   UNL     1      -4.850 -10.575  17.115  0.00  0.00    +0.179 C 
ATOM     23  H   UNL     1      -6.690  -9.668  13.975  0.00  0.00    +0.150 HD
ENDBRANCH  12   6
ENDBRANCH  10  12
TORSDOF 5
ENDMDL
MODEL 2
REMARK VINA RESULT:      -3.6     14.263     16.830
REMARK  Name = 75536744
REMARK  7 active torsions:
REMARK  status: ('A' for Active; 'I' for Inactive)
REMARK    1  A    between atoms: O_2  and  C_9
REMARK    2  A    between atoms: N_5  and  C_8
REMARK    3  A    between atoms: N_5  and  C_13
REMARK    4  A    between atoms: N_6  and  C_12
REMARK    5  A    between atoms: C_10  and  C_12
REMARK    6  A    between atoms: C_13  and  C_14
REMARK    7  A    between atoms: C_13  and  C_15
REMARK                            x       y       z     vdW  Elec       q    Type
REMARK                         _______ _______ _______ _____ _____    ______ ____
ROOT
ATOM      1  O   UNL     1      -4.885   3.511  26.389  0.00  0.00    -0.371 OA
ATOM      8  C   UNL     1      -3.115   4.408  25.081  0.00  0.00    +0.111 C 
ATOM      9  C   UNL     1      -3.554   3.085  24.480  0.00  0.00    +0.164 C 
ATOM     10  C   UNL     1      -4.951   2.943  25.069  0.00  0.00    +0.165 C 
ATOM     11  C   UNL     1      -3.688   4.305  26.485  0.00  0.00    +0.181 C 
ENDROOT
BRANCH   9   2
ATOM      2  O   UNL     1      -3.579   3.109  23.066  0.00  0.00    -0.388 OA
ATOM     22  H   UNL     1      -2.721   2.789  22.739  0.00  0.00    +0.210 HD
ENDBRANCH   9   2
BRANCH   8   5
ATOM      5  N   UNL     1      -1.675   4.604  25.070  0.00  0.00    -0.307 NA
ATOM     21  H   UNL     1      -1.378   5.069  25.929  0.00  0.00    +0.123 HD
BRANCH   5  13
ATOM     13  C   UNL     1      -0.973   3.334  24.927  0.00  0.00    +0.048 C 
ATOM     14  C   UNL     1       0.115   3.473  23.867  0.00  0.00    +0.023 C 
ATOM     15  C   UNL     1      -0.383   2.900  26.265  0.00  0.00    +0.023 C 
ENDBRANCH   5  13
ENDBRANCH   8   5
BRANCH  10  12
ATOM     12  C   UNL     1      -5.425   1.503  25.154  0.00  0.00    +0.140 C 
BRANCH  12   6
ATOM      3  O   UNL     1      -0.603  -2.732  25.124  0.00  0.00    -0.377 OA
ATOM      4  O   UNL     1      -5.062  -0.981  23.884  0.00  0.00    -0.253 OA
ATOM      6  N   UNL     1      -4.321   0.596  25.378  0.00  0.00    -0.297 N 
ATOM      7  N   UNL     1      -3.091  -1.392  25.035  0.00  0.00    -0.281 N 
ATOM     16  C   UNL     1      -4.215  -0.617  24.706  0.00  0.00    +0.302 C 
ATOM     17  C   UNL     1      -2.901  -2.689  24.380  0.00  0.00    +0.137 C 
ATOM     18  C   UNL     1      -2.124  -1.108  26.104  0.00  0.00    +0.137 C 
ATOM     19  C   UNL     1      -1.449  -2.894  23.983  0.00  0.00    +0.179 C 
ATOM     20  C   UNL     1      -0.701  -1.405  25.642  0.00  0.00    +0.179 C 
ATOM     23  H   UNL     1      -3.641   0.886  26.064  0.00  0.00    +0.150 HD
ENDBRANCH  12   6
ENDBRANCH  10  12
TORSDOF 5
ENDMDL
MODEL 3
REMARK VINA RESULT:      -3.5     14.364     16.847
REMARK  Name = 75536744
REMARK  7 active torsions:
REMARK  status: ('A' for Active; 'I' for Inactive)
REMARK    1  A    between atoms: O_2  and  C_9
REMARK    2  A    between atoms: N_5  and  C_8
REMARK    3  A    between atoms: N_5  and  C_13
REMARK    4  A    between atoms: N_6  and  C_12
REMARK    5  A    between atoms: C_10  and  C_12
REMARK    6  A    between atoms: C_13  and  C_14
REMARK    7  A    between atoms: C_13  and  C_15
REMARK                            x       y       z     vdW  Elec       q    Type
REMARK                         _______ _______ _______ _____ _____    ______ ____
ROOT
ATOM      1  O   UNL     1      -0.378   0.797  25.933  0.00  0.00    -0.371 OA
ATOM      8  C   UNL     1      -0.510  -1.188  24.634  0.00  0.00    +0.111 C 
ATOM      9  C   UNL     1      -0.257  -0.008  23.712  0.00  0.00    +0.164 C 
ATOM     10  C   UNL     1       0.311   1.012  24.690  0.00  0.00    +0.165 C 
ATOM     11  C   UNL     1      -1.021  -0.489  25.883  0.00  0.00    +0.181 C 
ENDROOT
BRANCH   9   2
ATOM      2  O   UNL     1       0.656  -0.311  22.676  0.00  0.00    -0.388 OA
ATOM     22  H   UNL     1       1.141  -1.117  22.921  0.00  0.00    +0.210 HD
ENDBRANCH   9   2
BRANCH   8   5
ATOM      5  N   UNL     1      -1.455  -2.154  24.099  0.00  0.00    -0.307 NA
ATOM     21  H   UNL     1      -1.132  -3.103  24.290  0.00  0.00    +0.123 HD
BRANCH   5  13
ATOM     13  C   UNL     1      -2.783  -1.959  24.667  0.00  0.00    +0.048 C 
ATOM     14  C   UNL     1      -3.655  -1.204  23.669  0.00  0.00    +0.023 C 
ATOM     15  C   UNL     1      -3.407  -3.303  25.033  0.00  0.00    +0.023 C 
ENDBRANCH   5  13
ENDBRANCH   8   5
BRANCH  10  12
ATOM     12  C   UNL     1       0.119   2.449  24.238  0.00  0.00    +0.140 C 
BRANCH  12   6
ATOM      3  O   UNL     1      -5.972   3.759  25.780  0.00  0.00    -0.377 OA
ATOM      4  O   UNL     1      -2.346   1.765  23.066  0.00  0.00    -0.253 OA
ATOM      6  N   UNL     1      -1.174   2.960  24.636  0.00  0.00    -0.297 N 
ATOM      7  N   UNL     1      -3.525   3.157  24.498  0.00  0.00    -0.281 N 
ATOM     16  C   UNL     1      -2.349   2.570  24.003  0.00  0.00    +0.302 C 
ATOM     17  C   UNL     1      -4.810   2.809  23.886  0.00  0.00    +0.137 C 
ATOM     18  C   UNL     1      -3.603   4.231  25.499  0.00  0.00    +0.137 C 
ATOM     19  C   UNL     1      -5.881   2.603  24.945  0.00  0.00    +0.179 C 
ATOM     20  C   UNL     1      -4.745   3.977  26.478  0.00  0.00    +0.179 C 
ATOM     23  H   UNL     1      -1.172   3.631  25.389  0.00  0.00    +0.150 HD
ENDBRANCH  12   6
ENDBRANCH  10  12
TORSDOF 5
ENDMDL
MODEL 4
REMARK VINA RESULT:      -3.3      1.666      2.169
REMARK  Name = 75536744
REMARK  7 active torsions:
REMARK  status: ('A' for Active; 'I' for Inactive)
REMARK    1  A    between atoms: O_2  and  C_9
REMARK    2  A    between atoms: N_5  and  C_8
REMARK    3  A    between atoms: N_5  and  C_13
REMARK    4  A    between atoms: N_6  and  C_12
REMARK    5  A    between atoms: C_10  and  C_12
REMARK    6  A    between atoms: C_13  and  C_14
REMARK    7  A    between atoms: C_13  and  C_15
REMARK                            x       y       z     vdW  Elec       q    Type
REMARK                         _______ _______ _______ _____ _____    ______ ____
ROOT
ATOM      1  O   UNL     1      -7.045  -9.720  10.109  0.00  0.00    -0.371 OA
ATOM      8  C   UNL     1      -4.817  -9.841  10.925  0.00  0.00    +0.111 C 
ATOM      9  C   UNL     1      -5.775  -9.817  12.102  0.00  0.00    +0.164 C 
ATOM     10  C   UNL     1      -7.069 -10.269  11.437  0.00  0.00    +0.165 C 
ATOM     11  C   UNL     1      -5.700  -9.309   9.808  0.00  0.00    +0.181 C 
ENDROOT
BRANCH   9   2
ATOM      2  O   UNL     1      -5.384 -10.690  13.142  0.00  0.00    -0.388 OA
ATOM     22  H   UNL     1      -5.669 -11.590  12.911  0.00  0.00    +0.210 HD
ENDBRANCH   9   2
BRANCH   8   5
ATOM      5  N   UNL     1      -3.620  -9.042  11.130  0.00  0.00    -0.307 NA
ATOM     21  H   UNL     1      -3.634  -8.622  12.059  0.00  0.00    +0.123 HD
BRANCH   5  13
ATOM     13  C   UNL     1      -2.417  -9.850  10.969  0.00  0.00    +0.048 C 
ATOM     14  C   UNL     1      -1.209  -8.933  10.805  0.00  0.00    +0.023 C 
ATOM     15  C   UNL     1      -2.239 -10.781  12.165  0.00  0.00    +0.023 C 
ENDBRANCH   5  13
ENDBRANCH   8   5
BRANCH  10  12
ATOM     12  C   UNL     1      -8.315  -9.796  12.165  0.00  0.00    +0.140 C 
BRANCH  12   6
ATOM      3  O   UNL     1      -8.445 -10.115  18.574  0.00  0.00    -0.377 OA
ATOM      4  O   UNL     1     -10.261  -9.116  14.080  0.00  0.00    -0.253 OA
ATOM      6  N   UNL     1      -8.122  -9.792  13.597  0.00  0.00    -0.297 N 
ATOM      7  N   UNL     1      -8.796  -9.480  15.841  0.00  0.00    -0.281 N 
ATOM     16  C   UNL     1      -9.138  -9.442  14.479  0.00  0.00    +0.302 C 
ATOM     17  C   UNL     1      -9.805  -9.120  16.841  0.00  0.00    +0.137 C 
ATOM     18  C   UNL     1      -7.452  -9.707  16.392  0.00  0.00    +0.137 C 
ATOM     19  C   UNL     1      -9.764 -10.072  18.025  0.00  0.00    +0.179 C 
ATOM     20  C   UNL     1      -7.514 -10.617  17.614  0.00  0.00    +0.179 C 
ATOM     23  H   UNL     1      -7.199 -10.041  13.920  0.00  0.00    +0.150 HD
ENDBRANCH  12   6
ENDBRANCH  10  12
TORSDOF 5
ENDMDL
MODEL 5
REMARK VINA RESULT:      -3.2      3.144      4.651
REMARK  Name = 75536744
REMARK  7 active torsions:
REMARK  status: ('A' for Active; 'I' for Inactive)
REMARK    1  A    between atoms: O_2  and  C_9
REMARK    2  A    between atoms: N_5  and  C_8
REMARK    3  A    between atoms: N_5  and  C_13
REMARK    4  A    between atoms: N_6  and  C_12
REMARK    5  A    between atoms: C_10  and  C_12
REMARK    6  A    between atoms: C_13  and  C_14
REMARK    7  A    between atoms: C_13  and  C_15
REMARK                            x       y       z     vdW  Elec       q    Type
REMARK                         _______ _______ _______ _____ _____    ______ ____
ROOT
ATOM      1  O   UNL     1      -4.131 -10.780  14.545  0.00  0.00    -0.371 OA
ATOM      8  C   UNL     1      -1.930 -10.263  13.814  0.00  0.00    +0.111 C 
ATOM      9  C   UNL     1      -2.053  -9.931  15.290  0.00  0.00    +0.164 C 
ATOM     10  C   UNL     1      -3.253 -10.781  15.684  0.00  0.00    +0.165 C 
ATOM     11  C   UNL     1      -3.391 -10.326  13.398  0.00  0.00    +0.181 C 
ENDROOT
BRANCH   9   2
ATOM      2  O   UNL     1      -0.897 -10.279  16.026  0.00  0.00    -0.388 OA
ATOM     22  H   UNL     1      -1.167 -10.834  16.777  0.00  0.00    +0.210 HD
ENDBRANCH   9   2
BRANCH   8   5
ATOM      5  N   UNL     1      -1.168  -9.284  13.057  0.00  0.00    -0.307 NA
ATOM     21  H   UNL     1      -0.250  -9.151  13.481  0.00  0.00    +0.123 HD
BRANCH   5  13
ATOM     13  C   UNL     1      -1.018  -9.697  11.667  0.00  0.00    +0.048 C 
ATOM     14  C   UNL     1      -2.334  -9.478  10.928  0.00  0.00    +0.023 C 
ATOM     15  C   UNL     1       0.119  -8.924  11.004  0.00  0.00    +0.023 C 
ENDBRANCH   5  13
ENDBRANCH   8   5
BRANCH  10  12
ATOM     12  C   UNL     1      -3.992 -10.251  16.900  0.00  0.00    +0.140 C 
BRANCH  12   6
ATOM      3  O   UNL     1     -10.405 -10.017  16.984  0.00  0.00    -0.377 OA
ATOM      4  O   UNL     1      -5.889 -10.387  18.974  0.00  0.00    -0.253 OA
ATOM      6  N   UNL     1      -5.425 -10.334  16.727  0.00  0.00    -0.297 N 
ATOM      7  N   UNL     1      -7.660 -10.481  17.480  0.00  0.00    -0.281 N 
ATOM     16  C   UNL     1      -6.297 -10.397  17.808  0.00  0.00    +0.302 C 
ATOM     17  C   UNL     1      -8.651 -10.558  18.556  0.00  0.00    +0.137 C 
ATOM     18  C   UNL     1      -8.219 -10.652  16.131  0.00  0.00    +0.137 C 
ATOM     19  C   UNL     1      -9.852  -9.676  18.257  0.00  0.00    +0.179 C 
ATOM     20  C   UNL     1      -9.457  -9.783  15.942  0.00  0.00    +0.179 C 
ATOM     23  H   UNL     1      -5.755 -10.362  15.774  0.00  0.00    +0.150 HD
ENDBRANCH  12   6
ENDBRANCH  10  12
TORSDOF 5
ENDMDL
MODEL 6
REMARK VINA RESULT:      -3.1     14.495     17.301
REMARK  Name = 75536744
REMARK  7 active torsions:
REMARK  status: ('A' for Active; 'I' for Inactive)
REMARK    1  A    between atoms: O_2  and  C_9
REMARK    2  A    between atoms: N_5  and  C_8
REMARK    3  A    between atoms: N_5  and  C_13
REMARK    4  A    between atoms: N_6  and  C_12
REMARK    5  A    between atoms: C_10  and  C_12
REMARK    6  A    between atoms: C_13  and  C_14
REMARK    7  A    between atoms: C_13  and  C_15
REMARK                            x       y       z     vdW  Elec       q    Type
REMARK                         _______ _______ _______ _____ _____    ______ ____
ROOT
ATOM      1  O   UNL     1      -0.734   4.020  23.794  0.00  0.00    -0.371 OA
ATOM      8  C   UNL     1      -1.905   4.204  25.854  0.00  0.00    +0.111 C 
ATOM      9  C   UNL     1      -1.220   2.850  25.792  0.00  0.00    +0.164 C 
ATOM     10  C   UNL     1      -0.149   3.111  24.741  0.00  0.00    +0.165 C 
ATOM     11  C   UNL     1      -1.906   4.607  24.389  0.00  0.00    +0.181 C 
ENDROOT
BRANCH   9   2
ATOM      2  O   UNL     1      -0.661   2.465  27.031  0.00  0.00    -0.388 OA
ATOM     22  H   UNL     1      -0.432   3.269  27.528  0.00  0.00    +0.210 HD
ENDBRANCH   9   2
BRANCH   8   5
ATOM      5  N   UNL     1      -3.239   4.158  26.429  0.00  0.00    -0.307 NA
ATOM     21  H   UNL     1      -3.487   5.070  26.812  0.00  0.00    +0.123 HD
BRANCH   5  13
ATOM     13  C   UNL     1      -4.225   3.752  25.436  0.00  0.00    +0.048 C 
ATOM     14  C   UNL     1      -4.600   2.291  25.661  0.00  0.00    +0.023 C 
ATOM     15  C   UNL     1      -5.456   4.651  25.511  0.00  0.00    +0.023 C 
ENDBRANCH   5  13
ENDBRANCH   8   5
BRANCH  10  12
ATOM     12  C   UNL     1       0.310   1.852  24.027  0.00  0.00    +0.140 C 
BRANCH  12   6
ATOM      3  O   UNL     1      -3.718  -3.108  24.631  0.00  0.00    -0.377 OA
ATOM      4  O   UNL     1      -2.351   1.433  23.216  0.00  0.00    -0.253 OA
ATOM      6  N   UNL     1      -0.509   0.714  24.380  0.00  0.00    -0.297 N 
ATOM      7  N   UNL     1      -2.490  -0.575  24.368  0.00  0.00    -0.281 N 
ATOM     16  C   UNL     1      -1.820   0.581  23.936  0.00  0.00    +0.302 C 
ATOM     17  C   UNL     1      -3.878  -0.794  23.954  0.00  0.00    +0.137 C 
ATOM     18  C   UNL     1      -1.988  -1.555  25.343  0.00  0.00    +0.137 C 
ATOM     19  C   UNL     1      -4.108  -2.244  23.561  0.00  0.00    +0.179 C 
ATOM     20  C   UNL     1      -2.322  -2.976  24.903  0.00  0.00    +0.179 C 
ATOM     23  H   UNL     1      -0.079   0.030  24.984  0.00  0.00    +0.150 HD
ENDBRANCH  12   6
ENDBRANCH  10  12
TORSDOF 5
ENDMDL
MODEL 7
REMARK VINA RESULT:      -2.7     13.962     16.150
REMARK  Name = 75536744
REMARK  7 active torsions:
REMARK  status: ('A' for Active; 'I' for Inactive)
REMARK    1  A    between atoms: O_2  and  C_9
REMARK    2  A    between atoms: N_5  and  C_8
REMARK    3  A    between atoms: N_5  and  C_13
REMARK    4  A    between atoms: N_6  and  C_12
REMARK    5  A    between atoms: C_10  and  C_12
REMARK    6  A    between atoms: C_13  and  C_14
REMARK    7  A    between atoms: C_13  and  C_15
REMARK                            x       y       z     vdW  Elec       q    Type
REMARK                         _______ _______ _______ _____ _____    ______ ____
ROOT
ATOM      1  O   UNL     1      -2.653  -2.966  23.791  0.00  0.00    -0.371 OA
ATOM      8  C   UNL     1      -0.901  -1.925  25.014  0.00  0.00    +0.111 C 
ATOM      9  C   UNL     1      -2.157  -1.080  25.130  0.00  0.00    +0.164 C 
ATOM     10  C   UNL     1      -3.232  -2.101  24.783  0.00  0.00    +0.165 C 
ATOM     11  C   UNL     1      -1.226  -2.780  23.800  0.00  0.00    +0.181 C 
ENDROOT
BRANCH   9   2
ATOM      2  O   UNL     1      -2.337  -0.544  26.426  0.00  0.00    -0.388 OA
ATOM     22  H   UNL     1      -1.504  -0.126  26.703  0.00  0.00    +0.210 HD
ENDBRANCH   9   2
BRANCH   8   5
ATOM      5  N   UNL     1       0.314  -1.145  24.848  0.00  0.00    -0.307 NA
ATOM     21  H   UNL     1       1.089  -1.755  24.586  0.00  0.00    +0.123 HD
BRANCH   5  13
ATOM     13  C   UNL     1       0.138  -0.106  23.842  0.00  0.00    +0.048 C 
ATOM     14  C   UNL     1       0.112   1.259  24.521  0.00  0.00    +0.023 C 
ATOM     15  C   UNL     1       1.252  -0.180  22.802  0.00  0.00    +0.023 C 
ENDBRANCH   5  13
ENDBRANCH   8   5
BRANCH  10  12
ATOM     12  C   UNL     1      -4.503  -1.474  24.237  0.00  0.00    +0.140 C 
BRANCH  12   6
ATOM      3  O   UNL     1      -3.693   4.888  24.487  0.00  0.00    -0.377 OA
ATOM      4  O   UNL     1      -5.368   0.500  26.046  0.00  0.00    -0.253 OA
ATOM      6  N   UNL     1      -4.355  -0.047  24.061  0.00  0.00    -0.297 N 
ATOM      7  N   UNL     1      -4.601   2.218  24.690  0.00  0.00    -0.281 N 
ATOM     16  C   UNL     1      -4.811   0.866  25.006  0.00  0.00    +0.302 C 
ATOM     17  C   UNL     1      -5.056   3.249  25.626  0.00  0.00    +0.137 C 
ATOM     18  C   UNL     1      -4.089   2.742  23.415  0.00  0.00    +0.137 C 
ATOM     19  C   UNL     1      -4.019   4.351  25.771  0.00  0.00    +0.179 C 
ATOM     20  C   UNL     1      -3.110   3.886  23.654  0.00  0.00    +0.179 C 
ATOM     23  H   UNL     1      -3.917   0.250  23.202  0.00  0.00    +0.150 HD
ENDBRANCH  12   6
ENDBRANCH  10  12
TORSDOF 5
ENDMDL
MODEL 8
REMARK VINA RESULT:      -2.1     15.438     16.701
REMARK  Name = 75536744
REMARK  7 active torsions:
REMARK  status: ('A' for Active; 'I' for Inactive)
REMARK    1  A    between atoms: O_2  and  C_9
REMARK    2  A    between atoms: N_5  and  C_8
REMARK    3  A    between atoms: N_5  and  C_13
REMARK    4  A    between atoms: N_6  and  C_12
REMARK    5  A    between atoms: C_10  and  C_12
REMARK    6  A    between atoms: C_13  and  C_14
REMARK    7  A    between atoms: C_13  and  C_15
REMARK                            x       y       z     vdW  Elec       q    Type
REMARK                         _______ _______ _______ _____ _____    ______ ____
ROOT
ATOM      1  O   UNL     1       1.302   1.641  23.963  0.00  0.00    -0.371 OA
ATOM      8  C   UNL     1       2.778   0.679  22.368  0.00  0.00    +0.111 C 
ATOM      9  C   UNL     1       1.537  -0.188  22.480  0.00  0.00    +0.164 C 
ATOM     10  C   UNL     1       0.543   0.799  23.079  0.00  0.00    +0.165 C 
ATOM     11  C   UNL     1       2.699   1.485  23.654  0.00  0.00    +0.181 C 
ENDROOT
BRANCH   9   2
ATOM      2  O   UNL     1       1.102  -0.682  21.229  0.00  0.00    -0.388 OA
ATOM     22  H   UNL     1       1.415  -1.597  21.135  0.00  0.00    +0.210 HD
ENDBRANCH   9   2
BRANCH   8   5
ATOM      5  N   UNL     1       4.013  -0.081  22.251  0.00  0.00    -0.307 NA
ATOM     21  H   UNL     1       4.661   0.399  21.627  0.00  0.00    +0.123 HD
BRANCH   5  13
ATOM     13  C   UNL     1       4.633  -0.277  23.555  0.00  0.00    +0.048 C 
ATOM     14  C   UNL     1       4.536  -1.748  23.947  0.00  0.00    +0.023 C 
ATOM     15  C   UNL     1       6.086   0.187  23.527  0.00  0.00    +0.023 C 
ENDBRANCH   5  13
ENDBRANCH   8   5
BRANCH  10  12
ATOM     12  C   UNL     1      -0.580   0.127  23.849  0.00  0.00    +0.140 C 
BRANCH  12   6
ATOM      3  O   UNL     1      -5.766   3.468  25.616  0.00  0.00    -0.377 OA
ATOM      4  O   UNL     1      -3.229  -0.614  24.440  0.00  0.00    -0.253 OA
ATOM      6  N   UNL     1      -1.676   1.038  24.089  0.00  0.00    -0.297 N 
ATOM      7  N   UNL     1      -3.920   1.596  24.579  0.00  0.00    -0.281 N 
ATOM     16  C   UNL     1      -2.960   0.590  24.376  0.00  0.00    +0.302 C 
ATOM     17  C   UNL     1      -5.302   1.214  24.880  0.00  0.00    +0.137 C 
ATOM     18  C   UNL     1      -3.721   3.037  24.373  0.00  0.00    +0.137 C 
ATOM     19  C   UNL     1      -5.883   2.090  25.977  0.00  0.00    +0.179 C 
ATOM     20  C   UNL     1      -4.394   3.841  25.481  0.00  0.00    +0.179 C 
ATOM     23  H   UNL     1      -1.458   2.021  24.019  0.00  0.00    +0.150 HD
ENDBRANCH  12   6
ENDBRANCH  10  12
TORSDOF 5
ENDMDL
MODEL 9
REMARK VINA RESULT:      -2.0     15.416     16.979
REMARK  Name = 75536744
REMARK  7 active torsions:
REMARK  status: ('A' for Active; 'I' for Inactive)
REMARK    1  A    between atoms: O_2  and  C_9
REMARK    2  A    between atoms: N_5  and  C_8
REMARK    3  A    between atoms: N_5  and  C_13
REMARK    4  A    between atoms: N_6  and  C_12
REMARK    5  A    between atoms: C_10  and  C_12
REMARK    6  A    between atoms: C_13  and  C_14
REMARK    7  A    between atoms: C_13  and  C_15
REMARK                            x       y       z     vdW  Elec       q    Type
REMARK                         _______ _______ _______ _____ _____    ______ ____
ROOT
ATOM      1  O   UNL     1       0.495  -0.346  21.953  0.00  0.00    -0.371 OA
ATOM      8  C   UNL     1       2.269   0.333  23.380  0.00  0.00    +0.111 C 
ATOM      9  C   UNL     1       1.129   1.329  23.499  0.00  0.00    +0.164 C 
ATOM     10  C   UNL     1      -0.040   0.499  22.986  0.00  0.00    +0.165 C 
ATOM     11  C   UNL     1       1.929  -0.359  22.071  0.00  0.00    +0.181 C 
ENDROOT
BRANCH   9   2
ATOM      2  O   UNL     1       0.923   1.767  24.827  0.00  0.00    -0.388 OA
ATOM     22  H   UNL     1       1.644   1.421  25.379  0.00  0.00    +0.210 HD
ENDBRANCH   9   2
BRANCH   8   5
ATOM      5  N   UNL     1       3.585   0.951  23.369  0.00  0.00    -0.307 NA
ATOM     21  H   UNL     1       3.738   1.466  24.236  0.00  0.00    +0.123 HD
BRANCH   5  13
ATOM     13  C   UNL     1       4.632  -0.049  23.196  0.00  0.00    +0.048 C 
ATOM     14  C   UNL     1       5.942   0.484  23.766  0.00  0.00    +0.023 C 
ATOM     15  C   UNL     1       4.233  -1.358  23.870  0.00  0.00    +0.023 C 
ENDBRANCH   5  13
ENDBRANCH   8   5
BRANCH  10  12
ATOM     12  C   UNL     1      -1.173   1.340  22.425  0.00  0.00    +0.140 C 
BRANCH  12   6
ATOM      3  O   UNL     1      -6.137   2.655  26.274  0.00  0.00    -0.377 OA
ATOM      4  O   UNL     1      -1.731   3.471  24.175  0.00  0.00    -0.253 OA
ATOM      6  N   UNL     1      -2.288   1.406  23.343  0.00  0.00    -0.297 N 
ATOM      7  N   UNL     1      -3.616   2.415  25.017  0.00  0.00    -0.281 N 
ATOM     16  C   UNL     1      -2.494   2.499  24.177  0.00  0.00    +0.302 C 
ATOM     17  C   UNL     1      -3.906   3.519  25.935  0.00  0.00    +0.137 C 
ATOM     18  C   UNL     1      -4.482   1.240  25.192  0.00  0.00    +0.137 C 
ATOM     19  C   UNL     1      -5.393   3.834  25.958  0.00  0.00    +0.179 C 
ATOM     20  C   UNL     1      -5.948   1.654  25.273  0.00  0.00    +0.179 C 
ATOM     23  H   UNL     1      -2.899   0.604  23.356  0.00  0.00    +0.150 HD
ENDBRANCH  12   6
ENDBRANCH  10  12
TORSDOF 5
ENDMDL
MODEL 10
REMARK VINA RESULT:      -2.0     14.509     16.778
REMARK  Name = 75536744
REMARK  7 active torsions:
REMARK  status: ('A' for Active; 'I' for Inactive)
REMARK    1  A    between atoms: O_2  and  C_9
REMARK    2  A    between atoms: N_5  and  C_8
REMARK    3  A    between atoms: N_5  and  C_13
REMARK    4  A    between atoms: N_6  and  C_12
REMARK    5  A    between atoms: C_10  and  C_12
REMARK    6  A    between atoms: C_13  and  C_14
REMARK    7  A    between atoms: C_13  and  C_15
REMARK                            x       y       z     vdW  Elec       q    Type
REMARK                         _______ _______ _______ _____ _____    ______ ____
ROOT
ATOM      1  O   UNL     1      -0.496  -1.201  22.901  0.00  0.00    -0.371 OA
ATOM      8  C   UNL     1       0.633   0.171  24.478  0.00  0.00    +0.111 C 
ATOM      9  C   UNL     1      -0.776  -0.099  24.975  0.00  0.00    +0.164 C 
ATOM     10  C   UNL     1      -1.132  -1.349  24.182  0.00  0.00    +0.165 C 
ATOM     11  C   UNL     1       0.502  -0.169  23.003  0.00  0.00    +0.181 C 
ENDROOT
BRANCH   9   2
ATOM      2  O   UNL     1      -0.828  -0.327  26.369  0.00  0.00    -0.388 OA
ATOM     22  H   UNL     1      -0.699   0.523  26.824  0.00  0.00    +0.210 HD
ENDBRANCH   9   2
BRANCH   8   5
ATOM      5  N   UNL     1       1.082   1.535  24.707  0.00  0.00    -0.307 NA
ATOM     21  H   UNL     1       1.471   1.925  23.849  0.00  0.00    +0.123 HD
BRANCH   5  13
ATOM     13  C   UNL     1      -0.012   2.374  25.181  0.00  0.00    +0.048 C 
ATOM     14  C   UNL     1       0.280   2.832  26.606  0.00  0.00    +0.023 C 
ATOM     15  C   UNL     1      -0.206   3.568  24.251  0.00  0.00    +0.023 C 
ENDBRANCH   5  13
ENDBRANCH   8   5
BRANCH  10  12
ATOM     12  C   UNL     1      -2.628  -1.533  23.992  0.00  0.00    +0.140 C 
BRANCH  12   6
ATOM      3  O   UNL     1      -5.601   4.015  25.244  0.00  0.00    -0.377 OA
ATOM      4  O   UNL     1      -4.430  -0.734  25.999  0.00  0.00    -0.253 OA
ATOM      6  N   UNL     1      -3.327  -0.269  24.041  0.00  0.00    -0.297 N 
ATOM      7  N   UNL     1      -4.813   1.313  24.977  0.00  0.00    -0.281 N 
ATOM     16  C   UNL     1      -4.205   0.050  25.071  0.00  0.00    +0.302 C 
ATOM     17  C   UNL     1      -5.757   1.730  26.016  0.00  0.00    +0.137 C 
ATOM     18  C   UNL     1      -4.719   2.237  23.838  0.00  0.00    +0.137 C 
ATOM     19  C   UNL     1      -5.535   3.183  26.404  0.00  0.00    +0.179 C 
ATOM     20  C   UNL     1      -4.566   3.676  24.319  0.00  0.00    +0.179 C 
ATOM     23  H   UNL     1      -3.156   0.362  23.273  0.00  0.00    +0.150 HD
ENDBRANCH  12   6
ENDBRANCH  10  12
TORSDOF 5
ENDMDL
