MODEL 1
REMARK VINA RESULT:      -2.5      0.000      0.000
REMARK  Name = 45783464
REMARK  12 active torsions:
REMARK  status: ('A' for Active; 'I' for Inactive)
REMARK    1  A    between atoms: O_2  and  C_17
REMARK    2  A    between atoms: O_3  and  C_22
REMARK    3  A    between atoms: O_3  and  C_28
REMARK    4  A    between atoms: O_4  and  C_25
REMARK    5  A    between atoms: O_4  and  C_29
REMARK    6  A    between atoms: O_5  and  C_30
REMARK    7  A    between atoms: O_5  and  C_31
REMARK    8  A    between atoms: N_6  and  C_14
REMARK    9  A    between atoms: C_10  and  C_15
REMARK   10  A    between atoms: C_14  and  C_16
REMARK   11  A    between atoms: C_19  and  C_23
REMARK   12  A    between atoms: C_29  and  C_30
REMARK                            x       y       z     vdW  Elec       q    Type
REMARK                         _______ _______ _______ _____ _____    ______ ____
ROOT
ATOM      6  N   UNL     1      -4.894   1.673  25.369  0.00  0.00    -0.287 NA
ATOM     10  C   UNL     1      -4.263   2.438  24.275  0.00  0.00    +0.146 C 
ATOM     11  C   UNL     1      -4.663   3.901  24.541  0.00  0.00    +0.030 C 
ATOM     12  C   UNL     1      -5.566   3.852  25.764  0.00  0.00    +0.017 C 
ATOM     13  C   UNL     1      -6.082   2.427  25.769  0.00  0.00    +0.085 C 
ENDROOT
BRANCH  10  15
ATOM      1  O   UNL     1      -2.024   2.981  25.092  0.00  0.00    -0.336 OA
ATOM      7  N   UNL     1      -2.053   1.463  23.445  0.00  0.00    -0.189 NA
ATOM      8  N   UNL     1      -0.687   2.637  24.855  0.00  0.00    -0.054 NA
ATOM     15  C   UNL     1      -2.761   2.244  24.220  0.00  0.00    +0.245 A 
ATOM     19  C   UNL     1      -0.787   1.739  23.871  0.00  0.00    +0.221 A 
BRANCH  19  23
ATOM      9  N   UNL     1       0.100  -0.013  22.565  0.00  0.00    -0.252 NA
ATOM     23  C   UNL     1       0.359   1.095  23.294  0.00  0.00    +0.115 A 
ATOM     24  C   UNL     1       1.628   1.612  23.496  0.00  0.00    +0.077 A 
ATOM     25  C   UNL     1       2.702   0.948  22.914  0.00  0.00    +0.124 A 
ATOM     26  C   UNL     1       1.168  -0.632  22.014  0.00  0.00    +0.115 A 
ATOM     27  C   UNL     1       2.477  -0.196  22.157  0.00  0.00    +0.065 A 
BRANCH  25   4
ATOM      4  O   UNL     1       3.967   1.417  23.084  0.00  0.00    -0.490 OA
BRANCH   4  29
ATOM     29  C   UNL     1       5.032   0.476  22.948  0.00  0.00    +0.257 C 
BRANCH  29  30
ATOM     30  C   UNL     1       5.751   0.346  24.278  0.00  0.00    +0.200 C 
BRANCH  30   5
ATOM      5  O   UNL     1       5.687  -1.007  24.709  0.00  0.00    -0.380 OA
ATOM     31  C   UNL     1       4.757  -1.755  23.938  0.00  0.00    +0.194 C 
ENDBRANCH  30   5
ENDBRANCH  29  30
ENDBRANCH   4  29
ENDBRANCH  25   4
ENDBRANCH  19  23
ENDBRANCH  10  15
BRANCH   6  14
ATOM     14  C   UNL     1      -5.214   0.300  24.999  0.00  0.00    +0.124 C 
BRANCH  14  16
ATOM     16  C   UNL     1      -4.005  -0.595  25.065  0.00  0.00    +0.008 A 
ATOM     17  C   UNL     1      -3.895  -1.706  24.228  0.00  0.00    +0.125 A 
ATOM     18  C   UNL     1      -2.989  -0.305  25.976  0.00  0.00    +0.012 A 
ATOM     20  C   UNL     1      -2.768  -2.526  24.302  0.00  0.00    +0.091 A 
ATOM     21  C   UNL     1      -1.863  -1.124  26.049  0.00  0.00    +0.046 A 
ATOM     22  C   UNL     1      -1.753  -2.234  25.212  0.00  0.00    +0.124 A 
BRANCH  17   2
ATOM      2  O   UNL     1      -4.879  -2.004  23.334  0.00  0.00    -0.506 OA
ATOM     32  H   UNL     1      -5.344  -1.187  23.086  0.00  0.00    +0.292 HD
ENDBRANCH  17   2
BRANCH  22   3
ATOM      3  O   UNL     1      -0.654  -3.034  25.284  0.00  0.00    -0.495 OA
ATOM     28  C   UNL     1       0.618  -2.388  25.314  0.00  0.00    +0.277 C 
ENDBRANCH  22   3
ENDBRANCH  14  16
ENDBRANCH   6  14
TORSDOF 10
ENDMDL
MODEL 2
REMARK VINA RESULT:      -1.2      1.388      1.708
REMARK  Name = 45783464
REMARK  12 active torsions:
REMARK  status: ('A' for Active; 'I' for Inactive)
REMARK    1  A    between atoms: O_2  and  C_17
REMARK    2  A    between atoms: O_3  and  C_22
REMARK    3  A    between atoms: O_3  and  C_28
REMARK    4  A    between atoms: O_4  and  C_25
REMARK    5  A    between atoms: O_4  and  C_29
REMARK    6  A    between atoms: O_5  and  C_30
REMARK    7  A    between atoms: O_5  and  C_31
REMARK    8  A    between atoms: N_6  and  C_14
REMARK    9  A    between atoms: C_10  and  C_15
REMARK   10  A    between atoms: C_14  and  C_16
REMARK   11  A    between atoms: C_19  and  C_23
REMARK   12  A    between atoms: C_29  and  C_30
REMARK                            x       y       z     vdW  Elec       q    Type
REMARK                         _______ _______ _______ _____ _____    ______ ____
ROOT
ATOM      6  N   UNL     1      -3.996   3.214  25.579  0.00  0.00    -0.287 NA
ATOM     10  C   UNL     1      -2.894   3.952  24.932  0.00  0.00    +0.146 C 
ATOM     11  C   UNL     1      -2.714   5.217  25.792  0.00  0.00    +0.030 C 
ATOM     12  C   UNL     1      -3.796   5.132  26.857  0.00  0.00    +0.017 C 
ATOM     13  C   UNL     1      -4.833   4.216  26.240  0.00  0.00    +0.085 C 
ENDROOT
BRANCH  10  15
ATOM      1  O   UNL     1      -0.914   2.970  25.976  0.00  0.00    -0.336 OA
ATOM      7  N   UNL     1      -1.099   2.543  23.785  0.00  0.00    -0.189 NA
ATOM      8  N   UNL     1       0.198   2.189  25.636  0.00  0.00    -0.054 NA
ATOM     15  C   UNL     1      -1.625   3.130  24.829  0.00  0.00    +0.245 A 
ATOM     19  C   UNL     1       0.019   1.979  24.329  0.00  0.00    +0.221 A 
BRANCH  19  23
ATOM      9  N   UNL     1       0.423   0.089  22.977  0.00  0.00    -0.252 NA
ATOM     23  C   UNL     1       0.934   1.208  23.537  0.00  0.00    +0.115 A 
ATOM     24  C   UNL     1       2.247   1.622  23.384  0.00  0.00    +0.077 A 
ATOM     25  C   UNL     1       3.091   0.837  22.607  0.00  0.00    +0.124 A 
ATOM     26  C   UNL     1       1.272  -0.649  22.228  0.00  0.00    +0.115 A 
ATOM     27  C   UNL     1       2.603  -0.322  22.015  0.00  0.00    +0.065 A 
BRANCH  25   4
ATOM      4  O   UNL     1       4.389   1.201  22.427  0.00  0.00    -0.490 OA
BRANCH   4  29
ATOM     29  C   UNL     1       5.386   0.231  22.744  0.00  0.00    +0.257 C 
BRANCH  29  30
ATOM     30  C   UNL     1       5.664   0.277  24.235  0.00  0.00    +0.200 C 
BRANCH  30   5
ATOM      5  O   UNL     1       5.612  -1.044  24.757  0.00  0.00    -0.380 OA
ATOM     31  C   UNL     1       4.722  -1.863  24.011  0.00  0.00    +0.194 C 
ENDBRANCH  30   5
ENDBRANCH  29  30
ENDBRANCH   4  29
ENDBRANCH  25   4
ENDBRANCH  19  23
ENDBRANCH  10  15
BRANCH   6  14
ATOM     14  C   UNL     1      -4.759   2.389  24.651  0.00  0.00    +0.124 C 
BRANCH  14  16
ATOM     16  C   UNL     1      -4.212   0.989  24.564  0.00  0.00    +0.008 A 
ATOM     17  C   UNL     1      -3.495   0.572  23.442  0.00  0.00    +0.125 A 
ATOM     18  C   UNL     1      -4.429   0.104  25.621  0.00  0.00    +0.012 A 
ATOM     20  C   UNL     1      -2.995  -0.729  23.377  0.00  0.00    +0.091 A 
ATOM     21  C   UNL     1      -3.929  -1.196  25.556  0.00  0.00    +0.046 A 
ATOM     22  C   UNL     1      -3.212  -1.612  24.434  0.00  0.00    +0.124 A 
BRANCH  17   2
ATOM      2  O   UNL     1      -3.275   1.423  22.401  0.00  0.00    -0.506 OA
ATOM     32  H   UNL     1      -2.410   1.852  22.515  0.00  0.00    +0.292 HD
ENDBRANCH  17   2
BRANCH  22   3
ATOM      3  O   UNL     1      -2.724  -2.881  24.371  0.00  0.00    -0.495 OA
ATOM     28  C   UNL     1      -1.306  -3.029  24.312  0.00  0.00    +0.277 C 
ENDBRANCH  22   3
ENDBRANCH  14  16
ENDBRANCH   6  14
TORSDOF 10
ENDMDL
MODEL 3
REMARK VINA RESULT:      -0.3      1.708      3.734
REMARK  Name = 45783464
REMARK  12 active torsions:
REMARK  status: ('A' for Active; 'I' for Inactive)
REMARK    1  A    between atoms: O_2  and  C_17
REMARK    2  A    between atoms: O_3  and  C_22
REMARK    3  A    between atoms: O_3  and  C_28
REMARK    4  A    between atoms: O_4  and  C_25
REMARK    5  A    between atoms: O_4  and  C_29
REMARK    6  A    between atoms: O_5  and  C_30
REMARK    7  A    between atoms: O_5  and  C_31
REMARK    8  A    between atoms: N_6  and  C_14
REMARK    9  A    between atoms: C_10  and  C_15
REMARK   10  A    between atoms: C_14  and  C_16
REMARK   11  A    between atoms: C_19  and  C_23
REMARK   12  A    between atoms: C_29  and  C_30
REMARK                            x       y       z     vdW  Elec       q    Type
REMARK                         _______ _______ _______ _____ _____    ______ ____
ROOT
ATOM      6  N   UNL     1      -4.399  -0.114  24.437  0.00  0.00    -0.287 NA
ATOM     10  C   UNL     1      -3.338  -0.796  25.205  0.00  0.00    +0.146 C 
ATOM     11  C   UNL     1      -3.489  -2.285  24.843  0.00  0.00    +0.030 C 
ATOM     12  C   UNL     1      -4.696  -2.350  23.919  0.00  0.00    +0.017 C 
ATOM     13  C   UNL     1      -5.471  -1.093  24.257  0.00  0.00    +0.085 C 
ENDROOT
BRANCH  10  15
ATOM      1  O   UNL     1      -1.451   0.654  25.767  0.00  0.00    -0.336 OA
ATOM      7  N   UNL     1      -1.163  -0.536  23.891  0.00  0.00    -0.189 NA
ATOM      8  N   UNL     1      -0.187   1.002  25.275  0.00  0.00    -0.054 NA
ATOM     15  C   UNL     1      -1.957  -0.256  24.893  0.00  0.00    +0.245 A 
ATOM     19  C   UNL     1      -0.090   0.260  24.168  0.00  0.00    +0.221 A 
BRANCH  19  23
ATOM      9  N   UNL     1       0.944  -0.370  22.145  0.00  0.00    -0.252 NA
ATOM     23  C   UNL     1       1.067   0.288  23.319  0.00  0.00    +0.115 A 
ATOM     24  C   UNL     1       2.211   0.958  23.717  0.00  0.00    +0.077 A 
ATOM     25  C   UNL     1       3.302   0.953  22.855  0.00  0.00    +0.124 A 
ATOM     26  C   UNL     1       2.025  -0.354  21.332  0.00  0.00    +0.115 A 
ATOM     27  C   UNL     1       3.216   0.286  21.638  0.00  0.00    +0.065 A 
BRANCH  25   4
ATOM      4  O   UNL     1       4.449   1.597  23.201  0.00  0.00    -0.490 OA
BRANCH   4  29
ATOM     29  C   UNL     1       5.619   0.797  23.366  0.00  0.00    +0.257 C 
BRANCH  29  30
ATOM     30  C   UNL     1       5.469  -0.049  24.616  0.00  0.00    +0.200 C 
BRANCH  30   5
ATOM      5  O   UNL     1       5.606  -1.420  24.267  0.00  0.00    -0.380 OA
ATOM     31  C   UNL     1       4.353  -1.999  23.930  0.00  0.00    +0.194 C 
ENDBRANCH  30   5
ENDBRANCH  29  30
ENDBRANCH   4  29
ENDBRANCH  25   4
ENDBRANCH  19  23
ENDBRANCH  10  15
BRANCH   6  14
ATOM     14  C   UNL     1      -4.873   1.108  25.073  0.00  0.00    +0.124 C 
BRANCH  14  16
ATOM     16  C   UNL     1      -3.857   2.216  24.988  0.00  0.00    +0.008 A 
ATOM     17  C   UNL     1      -3.143   2.439  23.811  0.00  0.00    +0.125 A 
ATOM     18  C   UNL     1      -3.632   3.023  26.104  0.00  0.00    +0.012 A 
ATOM     20  C   UNL     1      -2.205   3.470  23.749  0.00  0.00    +0.091 A 
ATOM     21  C   UNL     1      -2.695   4.053  26.042  0.00  0.00    +0.046 A 
ATOM     22  C   UNL     1      -1.981   4.277  24.864  0.00  0.00    +0.124 A 
BRANCH  17   2
ATOM      2  O   UNL     1      -3.350   1.659  22.713  0.00  0.00    -0.506 OA
ATOM     32  H   UNL     1      -2.590   1.065  22.594  0.00  0.00    +0.292 HD
ENDBRANCH  17   2
BRANCH  22   3
ATOM      3  O   UNL     1      -1.066   5.283  24.804  0.00  0.00    -0.495 OA
ATOM     28  C   UNL     1       0.175   4.993  24.164  0.00  0.00    +0.277 C 
ENDBRANCH  22   3
ENDBRANCH  14  16
ENDBRANCH   6  14
TORSDOF 10
ENDMDL
