MODEL 1
REMARK VINA RESULT:      -1.5      0.000      0.000
REMARK  Name = 51138073
REMARK  13 active torsions:
REMARK  status: ('A' for Active; 'I' for Inactive)
REMARK    1  A    between atoms: N_3  and  C_22
REMARK    2  A    between atoms: N_4  and  C_23
REMARK    3  A    between atoms: N_5  and  C_24
REMARK    4  A    between atoms: N_5  and  C_27
REMARK    5  A    between atoms: N_5  and  C_28
REMARK    6  A    between atoms: C_6  and  C_10
REMARK    7  A    between atoms: C_8  and  C_17
REMARK    8  A    between atoms: C_10  and  C_13
REMARK    9  A    between atoms: C_13  and  C_20
REMARK   10  A    between atoms: C_13  and  C_21
REMARK   11  A    between atoms: C_22  and  C_25
REMARK   12  A    between atoms: C_23  and  C_24
REMARK   13  A    between atoms: C_26  and  C_29
REMARK                            x       y       z     vdW  Elec       q    Type
REMARK                         _______ _______ _______ _____ _____    ______ ____
ROOT
ATOM      2  N   UNL     1       0.051  -0.635  23.771  0.00  0.00    -0.299 NA
ATOM      3  N   UNL     1      -2.105   3.549  25.604  0.00  0.00    -0.335 N 
ATOM      6  C   UNL     1      -1.397  -0.834  23.620  0.00  0.00    +0.085 C 
ATOM      7  C   UNL     1      -2.290   0.226  24.274  0.00  0.00    -0.021 A 
ATOM      8  C   UNL     1       0.569   0.567  23.132  0.00  0.00    +0.145 C 
ATOM      9  C   UNL     1      -1.857   1.515  24.699  0.00  0.00    +0.008 A 
ATOM     11  C   UNL     1       0.705   1.718  24.127  0.00  0.00    +0.065 C 
ATOM     12  C   UNL     1      -0.598   2.209  24.665  0.00  0.00    -0.020 A 
ATOM     14  C   UNL     1      -2.780   2.398  25.272  0.00  0.00    +0.050 A 
ATOM     15  C   UNL     1      -0.795   3.448  25.238  0.00  0.00    +0.091 A 
ATOM     16  C   UNL     1      -3.676  -0.044  24.407  0.00  0.00    +0.006 A 
ATOM     18  C   UNL     1      -4.133   2.096  25.437  0.00  0.00    +0.026 A 
ATOM     19  C   UNL     1      -4.570   0.859  24.982  0.00  0.00    +0.002 A 
ATOM     30  H   UNL     1       0.324  -0.677  24.752  0.00  0.00    +0.123 HD
ENDROOT
BRANCH   8  17
ATOM      1  O   UNL     1       2.108  -0.794  21.918  0.00  0.00    -0.274 OA
ATOM      4  N   UNL     1       2.913   1.053  23.084  0.00  0.00    -0.313 N 
ATOM     17  C   UNL     1       1.930   0.189  22.631  0.00  0.00    +0.230 C 
ATOM     31  H   UNL     1       2.653   1.849  23.659  0.00  0.00    +0.149 HD
BRANCH   4  23
ATOM     23  C   UNL     1       4.313   0.896  22.762  0.00  0.00    +0.119 C 
BRANCH  23  24
ATOM     24  C   UNL     1       5.151   0.723  24.020  0.00  0.00    +0.102 C 
BRANCH  24   5
ATOM      5  N   UNL     1       5.773  -0.595  24.037  0.00  0.00    -0.307 NA
ATOM     27  C   UNL     1       4.762  -1.646  23.911  0.00  0.00    +0.104 C 
ATOM     28  C   UNL     1       6.763  -0.712  22.965  0.00  0.00    +0.104 C 
ENDBRANCH  24   5
ENDBRANCH  23  24
ENDBRANCH   4  23
ENDBRANCH   8  17
BRANCH   6  10
ATOM     10  C   UNL     1      -1.655  -2.247  24.174  0.00  0.00    +0.026 C 
BRANCH  10  13
ATOM     13  C   UNL     1      -3.093  -2.444  24.663  0.00  0.00    -0.015 C 
ATOM     20  C   UNL     1      -3.069  -2.983  26.095  0.00  0.00    +0.007 C 
ATOM     21  C   UNL     1      -3.895  -3.390  23.767  0.00  0.00    +0.007 C 
ENDBRANCH  10  13
ENDBRANCH   6  10
BRANCH   3  22
ATOM     22  C   UNL     1      -2.687   4.715  26.231  0.00  0.00    +0.210 C 
BRANCH  22  25
ATOM     25  C   UNL     1      -4.107   4.874  25.890  0.00  0.00    -0.081 C 
ATOM     26  C   UNL     1      -5.268   5.004  25.610  0.00  0.00    -0.104 C 
ATOM     29  C   UNL     1      -6.681   5.162  25.270  0.00  0.00    +0.106 C 
ENDBRANCH  22  25
ENDBRANCH   3  22
TORSDOF 8
ENDMDL
MODEL 2
REMARK VINA RESULT:      -0.6      2.281      7.523
REMARK  Name = 51138073
REMARK  13 active torsions:
REMARK  status: ('A' for Active; 'I' for Inactive)
REMARK    1  A    between atoms: N_3  and  C_22
REMARK    2  A    between atoms: N_4  and  C_23
REMARK    3  A    between atoms: N_5  and  C_24
REMARK    4  A    between atoms: N_5  and  C_27
REMARK    5  A    between atoms: N_5  and  C_28
REMARK    6  A    between atoms: C_6  and  C_10
REMARK    7  A    between atoms: C_8  and  C_17
REMARK    8  A    between atoms: C_10  and  C_13
REMARK    9  A    between atoms: C_13  and  C_20
REMARK   10  A    between atoms: C_13  and  C_21
REMARK   11  A    between atoms: C_22  and  C_25
REMARK   12  A    between atoms: C_23  and  C_24
REMARK   13  A    between atoms: C_26  and  C_29
REMARK                            x       y       z     vdW  Elec       q    Type
REMARK                         _______ _______ _______ _____ _____    ______ ____
ROOT
ATOM      2  N   UNL     1      -2.590   1.348  25.271  0.00  0.00    -0.299 NA
ATOM      3  N   UNL     1       1.751   0.316  22.904  0.00  0.00    -0.335 N 
ATOM      6  C   UNL     1      -2.087   0.111  25.883  0.00  0.00    +0.085 C 
ATOM      7  C   UNL     1      -0.862  -0.518  25.211  0.00  0.00    -0.021 A 
ATOM      8  C   UNL     1      -1.664   2.472  25.322  0.00  0.00    +0.145 C 
ATOM      9  C   UNL     1       0.004   0.147  24.295  0.00  0.00    +0.008 A 
ATOM     11  C   UNL     1      -0.880   2.612  24.019  0.00  0.00    +0.065 C 
ATOM     12  C   UNL     1       0.050   1.476  23.748  0.00  0.00    -0.020 A 
ATOM     14  C   UNL     1       1.100  -0.540  23.761  0.00  0.00    +0.050 A 
ATOM     15  C   UNL     1       1.132   1.532  22.894  0.00  0.00    +0.091 A 
ATOM     16  C   UNL     1      -0.496  -1.841  25.571  0.00  0.00    +0.006 A 
ATOM     18  C   UNL     1       1.418  -1.858  24.092  0.00  0.00    +0.026 A 
ATOM     19  C   UNL     1       0.605  -2.496  25.020  0.00  0.00    +0.002 A 
ATOM     30  H   UNL     1      -2.912   1.178  24.320  0.00  0.00    +0.123 HD
ENDROOT
BRANCH   8  17
ATOM      1  O   UNL     1      -2.057   4.769  25.833  0.00  0.00    -0.274 OA
ATOM      4  N   UNL     1      -3.867   3.409  25.291  0.00  0.00    -0.313 N 
ATOM     17  C   UNL     1      -2.527   3.682  25.507  0.00  0.00    +0.230 C 
ATOM     31  H   UNL     1      -4.147   2.474  25.009  0.00  0.00    +0.149 HD
BRANCH   4  23
ATOM     23  C   UNL     1      -4.909   4.401  25.429  0.00  0.00    +0.119 C 
BRANCH  23  24
ATOM     24  C   UNL     1      -6.248   3.752  25.743  0.00  0.00    +0.102 C 
BRANCH  24   5
ATOM      5  N   UNL     1      -6.118   2.300  25.754  0.00  0.00    -0.307 NA
ATOM     27  C   UNL     1      -6.681   1.740  26.984  0.00  0.00    +0.104 C 
ATOM     28  C   UNL     1      -6.773   1.715  24.583  0.00  0.00    +0.104 C 
ENDBRANCH  24   5
ENDBRANCH  23  24
ENDBRANCH   4  23
ENDBRANCH   8  17
BRANCH   6  10
ATOM     10  C   UNL     1      -3.301  -0.835  25.903  0.00  0.00    +0.026 C 
BRANCH  10  13
ATOM     13  C   UNL     1      -3.446  -1.648  24.613  0.00  0.00    -0.015 C 
ATOM     20  C   UNL     1      -4.656  -1.136  23.828  0.00  0.00    +0.007 C 
ATOM     21  C   UNL     1      -3.596  -3.147  24.875  0.00  0.00    +0.007 C 
ENDBRANCH  10  13
ENDBRANCH   6  10
BRANCH   3  22
ATOM     22  C   UNL     1       2.933  -0.001  22.133  0.00  0.00    +0.210 C 
BRANCH  22  25
ATOM     25  C   UNL     1       4.166   0.209  22.904  0.00  0.00    -0.081 C 
ATOM     26  C   UNL     1       5.175   0.380  23.533  0.00  0.00    -0.104 C 
ATOM     29  C   UNL     1       6.403   0.589  24.299  0.00  0.00    +0.106 C 
ENDBRANCH  22  25
ENDBRANCH   3  22
TORSDOF 8
ENDMDL
MODEL 3
REMARK VINA RESULT:       0.8      1.616      2.000
REMARK  Name = 51138073
REMARK  13 active torsions:
REMARK  status: ('A' for Active; 'I' for Inactive)
REMARK    1  A    between atoms: N_3  and  C_22
REMARK    2  A    between atoms: N_4  and  C_23
REMARK    3  A    between atoms: N_5  and  C_24
REMARK    4  A    between atoms: N_5  and  C_27
REMARK    5  A    between atoms: N_5  and  C_28
REMARK    6  A    between atoms: C_6  and  C_10
REMARK    7  A    between atoms: C_8  and  C_17
REMARK    8  A    between atoms: C_10  and  C_13
REMARK    9  A    between atoms: C_13  and  C_20
REMARK   10  A    between atoms: C_13  and  C_21
REMARK   11  A    between atoms: C_22  and  C_25
REMARK   12  A    between atoms: C_23  and  C_24
REMARK   13  A    between atoms: C_26  and  C_29
REMARK                            x       y       z     vdW  Elec       q    Type
REMARK                         _______ _______ _______ _____ _____    ______ ____
ROOT
ATOM      2  N   UNL     1      -1.091  -0.555  24.785  0.00  0.00    -0.299 NA
ATOM      3  N   UNL     1      -2.283   4.310  25.426  0.00  0.00    -0.335 N 
ATOM      6  C   UNL     1      -2.549  -0.478  24.621  0.00  0.00    +0.085 C 
ATOM      7  C   UNL     1      -3.188   0.876  24.951  0.00  0.00    -0.021 A 
ATOM      8  C   UNL     1      -0.331   0.311  23.894  0.00  0.00    +0.145 C 
ATOM      9  C   UNL     1      -2.485   2.110  25.064  0.00  0.00    +0.008 A 
ATOM     11  C   UNL     1       0.057   1.620  24.579  0.00  0.00    +0.065 C 
ATOM     12  C   UNL     1      -1.106   2.492  24.918  0.00  0.00    -0.020 A 
ATOM     14  C   UNL     1      -3.191   3.281  25.357  0.00  0.00    +0.050 A 
ATOM     15  C   UNL     1      -1.028   3.849  25.157  0.00  0.00    +0.091 A 
ATOM     16  C   UNL     1      -4.599   0.945  25.082  0.00  0.00    +0.006 A 
ATOM     18  C   UNL     1      -4.577   3.322  25.529  0.00  0.00    +0.026 A 
ATOM     19  C   UNL     1      -5.273   2.130  25.373  0.00  0.00    +0.002 A 
ATOM     30  H   UNL     1      -0.826  -0.406  25.758  0.00  0.00    +0.123 HD
ENDROOT
BRANCH   8  17
ATOM      1  O   UNL     1       1.123  -1.576  24.025  0.00  0.00    -0.274 OA
ATOM      4  N   UNL     1       1.759   0.249  22.728  0.00  0.00    -0.313 N 
ATOM     17  C   UNL     1       0.912  -0.458  23.565  0.00  0.00    +0.230 C 
ATOM     31  H   UNL     1       1.478   1.166  22.392  0.00  0.00    +0.149 HD
BRANCH   4  23
ATOM     23  C   UNL     1       3.035  -0.260  22.280  0.00  0.00    +0.119 C 
BRANCH  23  24
ATOM     24  C   UNL     1       4.175   0.639  22.732  0.00  0.00    +0.102 C 
BRANCH  24   5
ATOM      5  N   UNL     1       5.229  -0.154  23.355  0.00  0.00    -0.307 NA
ATOM     27  C   UNL     1       5.842   0.581  24.462  0.00  0.00    +0.104 C 
ATOM     28  C   UNL     1       4.699  -1.434  23.827  0.00  0.00    +0.104 C 
ENDBRANCH  24   5
ENDBRANCH  23  24
ENDBRANCH   4  23
ENDBRANCH   8  17
BRANCH   6  10
ATOM     10  C   UNL     1      -3.100  -1.619  25.494  0.00  0.00    +0.026 C 
BRANCH  10  13
ATOM     13  C   UNL     1      -3.581  -2.820  24.674  0.00  0.00    -0.015 C 
ATOM     20  C   UNL     1      -2.382  -3.468  23.977  0.00  0.00    +0.007 C 
ATOM     21  C   UNL     1      -4.638  -2.440  23.637  0.00  0.00    +0.007 C 
ENDBRANCH  10  13
ENDBRANCH   6  10
BRANCH   3  22
ATOM     22  C   UNL     1      -2.596   5.693  25.718  0.00  0.00    +0.210 C 
BRANCH  22  25
ATOM     25  C   UNL     1      -2.611   6.522  24.506  0.00  0.00    -0.081 C 
ATOM     26  C   UNL     1      -2.622   7.200  23.514  0.00  0.00    -0.104 C 
ATOM     29  C   UNL     1      -2.636   8.026  22.307  0.00  0.00    +0.106 C 
ENDBRANCH  22  25
ENDBRANCH   3  22
TORSDOF 8
ENDMDL
