MODEL 1
REMARK VINA RESULT:      -4.5      0.000      0.000
REMARK  Name = 7672351
REMARK  2 active torsions:
REMARK  status: ('A' for Active; 'I' for Inactive)
REMARK    1  A    between atoms: C_15  and  C_18
REMARK    2  A    between atoms: C_16  and  C_19
REMARK                            x       y       z     vdW  Elec       q    Type
REMARK                         _______ _______ _______ _____ _____    ______ ____
ROOT
ATOM      2  O   UNL     1      14.969  -7.721  26.156  0.00  0.00    -0.267 OA
ATOM      3  O   UNL     1      11.882  -7.380  30.170  0.00  0.00    -0.270 OA
ATOM      4  N   UNL     1      13.749  -8.597  30.881  0.00  0.00    -0.297 N 
ATOM      5  N   UNL     1      15.540  -8.497  28.281  0.00  0.00    -0.311 N 
ATOM      6  C   UNL     1      14.358 -10.486  29.383  0.00  0.00    +0.027 C 
ATOM      7  C   UNL     1      16.120  -9.276  30.604  0.00  0.00    +0.054 C 
ATOM      8  C   UNL     1      15.668 -10.661  30.144  0.00  0.00    +0.018 C 
ATOM      9  C   UNL     1      13.288  -9.855  30.293  0.00  0.00    +0.113 C 
ATOM     10  C   UNL     1      14.625  -9.639  28.132  0.00  0.00    +0.130 C 
ATOM     11  C   UNL     1      15.059  -8.671  31.548  0.00  0.00    +0.117 C 
ATOM     12  C   UNL     1      16.333  -8.350  29.422  0.00  0.00    +0.027 A 
ATOM     13  C   UNL     1      17.246  -7.367  29.489  0.00  0.00    +0.022 A 
ATOM     14  C   UNL     1      15.644  -7.621  27.182  0.00  0.00    +0.260 A 
ATOM     15  C   UNL     1      12.977  -7.443  30.727  0.00  0.00    +0.247 C 
ATOM     16  C   UNL     1      16.652  -6.511  27.305  0.00  0.00    +0.053 A 
ATOM     17  C   UNL     1      17.405  -6.433  28.412  0.00  0.00    +0.016 A 
ENDROOT
BRANCH  16  19
ATOM      1  S   UNL     1      17.019  -6.093  24.646  0.00  0.00    -0.088 S 
ATOM     19  C   UNL     1      16.816  -5.557  26.256  0.00  0.00    +0.026 A 
ATOM     20  C   UNL     1      16.841  -4.180  26.338  0.00  0.00    +0.024 A 
ATOM     23  C   UNL     1      17.027  -3.541  25.066  0.00  0.00    -0.010 A 
ATOM     24  C   UNL     1      17.142  -4.484  24.039  0.00  0.00    +0.020 A 
ATOM     28  C   UNL     1      17.107  -2.169  24.727  0.00  0.00    +0.009 A 
ATOM     29  C   UNL     1      17.330  -4.094  22.699  0.00  0.00    +0.015 A 
ATOM     30  C   UNL     1      17.295  -1.779  23.398  0.00  0.00    +0.001 A 
ATOM     31  C   UNL     1      17.405  -2.733  22.396  0.00  0.00    +0.001 A 
ENDBRANCH  16  19
BRANCH  15  18
ATOM     18  C   UNL     1      13.514  -6.180  31.245  0.00  0.00    +0.037 A 
ATOM     21  C   UNL     1      14.584  -5.566  30.601  0.00  0.00    +0.013 A 
ATOM     22  C   UNL     1      12.950  -5.602  32.380  0.00  0.00    +0.013 A 
ATOM     25  C   UNL     1      15.095  -4.365  31.094  0.00  0.00    +0.001 A 
ATOM     26  C   UNL     1      13.461  -4.402  32.873  0.00  0.00    +0.001 A 
ATOM     27  C   UNL     1      14.534  -3.783  32.230  0.00  0.00    +0.000 A 
ENDBRANCH  15  18
TORSDOF 2
ENDMDL
