MODEL 1
REMARK VINA RESULT:      -1.3      0.000      0.000
REMARK  Name = 38028638
REMARK  13 active torsions:
REMARK  status: ('A' for Active; 'I' for Inactive)
REMARK    1  A    between atoms: O_3  and  C_26
REMARK    2  A    between atoms: O_3  and  C_30
REMARK    3  A    between atoms: N_4  and  C_14
REMARK    4  A    between atoms: N_5  and  C_21
REMARK    5  A    between atoms: N_6  and  C_22
REMARK    6  A    between atoms: C_7  and  C_11
REMARK    7  A    between atoms: C_8  and  C_14
REMARK    8  A    between atoms: C_10  and  C_15
REMARK    9  A    between atoms: C_11  and  C_16
REMARK   10  A    between atoms: C_11  and  C_17
REMARK   11  A    between atoms: C_12  and  C_18
REMARK   12  A    between atoms: C_15  and  C_19
REMARK   13  A    between atoms: C_21  and  C_23
REMARK                            x       y       z     vdW  Elec       q    Type
REMARK                         _______ _______ _______ _____ _____    ______ ____
ROOT
ATOM      7  C   UNL     1      -2.271   4.193  24.945  0.00  0.00    +0.000 C 
ATOM      8  C   UNL     1      -2.560   3.717  26.391  0.00  0.00    +0.032 C 
ATOM      9  C   UNL     1      -3.552   4.736  24.293  0.00  0.00    +0.012 C 
ATOM     10  C   UNL     1      -4.673   3.680  24.245  0.00  0.00    +0.023 C 
ATOM     12  C   UNL     1      -4.838   2.972  25.574  0.00  0.00    -0.073 C 
ATOM     13  C   UNL     1      -3.888   3.010  26.526  0.00  0.00    -0.022 C 
ATOM     18  C   UNL     1      -6.139   2.255  25.802  0.00  0.00    +0.039 C 
ENDROOT
BRANCH   7  11
ATOM     11  C   UNL     1      -1.176   5.264  24.907  0.00  0.00    -0.013 C 
ATOM     16  C   UNL     1      -0.280   5.066  23.689  0.00  0.00    +0.007 C 
ATOM     17  C   UNL     1      -1.795   6.658  24.902  0.00  0.00    +0.007 C 
ENDBRANCH   7  11
BRANCH   8  14
ATOM     14  C   UNL     1      -1.441   2.804  26.906  0.00  0.00    +0.113 C 
BRANCH  14   4
ATOM      2  O   UNL     1       0.914   2.753  25.276  0.00  0.00    -0.253 OA
ATOM      4  N   UNL     1      -1.099   1.819  25.928  0.00  0.00    -0.299 N 
ATOM      6  N   UNL     1       0.143   0.767  24.291  0.00  0.00    -0.269 N 
ATOM     20  C   UNL     1       0.080   1.858  25.162  0.00  0.00    +0.304 C 
ATOM     31  H   UNL     1      -1.705   1.009  25.823  0.00  0.00    +0.150 HD
ATOM     33  H   UNL     1      -0.636   0.115  24.319  0.00  0.00    +0.156 HD
BRANCH   6  22
ATOM     22  C   UNL     1       1.166   0.455  23.364  0.00  0.00    +0.038 A 
ATOM     24  C   UNL     1       2.480   0.844  23.620  0.00  0.00    +0.069 A 
ATOM     25  C   UNL     1       0.860  -0.242  22.195  0.00  0.00    +0.023 A 
ATOM     26  C   UNL     1       3.488   0.536  22.707  0.00  0.00    +0.122 A 
ATOM     27  C   UNL     1       1.868  -0.548  21.282  0.00  0.00    +0.005 A 
ATOM     28  C   UNL     1       3.182  -0.159  21.538  0.00  0.00    +0.046 A 
BRANCH  26   3
ATOM      3  O   UNL     1       4.771   0.915  22.956  0.00  0.00    -0.495 OA
ATOM     30  C   UNL     1       5.520   0.113  23.869  0.00  0.00    +0.277 C 
ENDBRANCH  26   3
ENDBRANCH   6  22
ENDBRANCH  14   4
ENDBRANCH   8  14
BRANCH  10  15
ATOM     15  C   UNL     1      -4.436   2.675  23.112  0.00  0.00    +0.103 C 
BRANCH  15  19
ATOM      1  O   UNL     1      -2.200   1.751  23.120  0.00  0.00    -0.276 OA
ATOM      5  N   UNL     1      -3.909   0.624  24.222  0.00  0.00    -0.304 N 
ATOM     19  C   UNL     1      -3.376   1.657  23.466  0.00  0.00    +0.214 C 
ATOM     32  H   UNL     1      -4.894   0.648  24.470  0.00  0.00    +0.150 HD
BRANCH   5  21
ATOM     21  C   UNL     1      -3.125  -0.490  24.700  0.00  0.00    +0.193 C 
BRANCH  21  23
ATOM     23  C   UNL     1      -3.695  -1.764  24.260  0.00  0.00    -0.087 C 
ATOM     29  C   UNL     1      -4.165  -2.807  23.897  0.00  0.00    +0.005 C 
ENDBRANCH  21  23
ENDBRANCH   5  21
ENDBRANCH  15  19
ENDBRANCH  10  15
TORSDOF 9
ENDMDL
MODEL 2
REMARK VINA RESULT:      -0.2      1.731      2.555
REMARK  Name = 38028638
REMARK  13 active torsions:
REMARK  status: ('A' for Active; 'I' for Inactive)
REMARK    1  A    between atoms: O_3  and  C_26
REMARK    2  A    between atoms: O_3  and  C_30
REMARK    3  A    between atoms: N_4  and  C_14
REMARK    4  A    between atoms: N_5  and  C_21
REMARK    5  A    between atoms: N_6  and  C_22
REMARK    6  A    between atoms: C_7  and  C_11
REMARK    7  A    between atoms: C_8  and  C_14
REMARK    8  A    between atoms: C_10  and  C_15
REMARK    9  A    between atoms: C_11  and  C_16
REMARK   10  A    between atoms: C_11  and  C_17
REMARK   11  A    between atoms: C_12  and  C_18
REMARK   12  A    between atoms: C_15  and  C_19
REMARK   13  A    between atoms: C_21  and  C_23
REMARK                            x       y       z     vdW  Elec       q    Type
REMARK                         _______ _______ _______ _____ _____    ______ ____
ROOT
ATOM      7  C   UNL     1      -3.414   2.250  24.037  0.00  0.00    +0.000 C 
ATOM      8  C   UNL     1      -3.614   3.518  24.904  0.00  0.00    +0.032 C 
ATOM      9  C   UNL     1      -4.763   1.566  23.768  0.00  0.00    +0.012 C 
ATOM     10  C   UNL     1      -5.479   1.159  25.070  0.00  0.00    +0.023 C 
ATOM     12  C   UNL     1      -5.480   2.282  26.087  0.00  0.00    -0.073 C 
ATOM     13  C   UNL     1      -4.648   3.335  25.990  0.00  0.00    -0.022 C 
ATOM     18  C   UNL     1      -6.491   2.190  27.196  0.00  0.00    +0.039 C 
ENDROOT
BRANCH   7  11
ATOM     11  C   UNL     1      -2.723   2.574  22.708  0.00  0.00    -0.013 C 
ATOM     16  C   UNL     1      -2.395   1.290  21.953  0.00  0.00    +0.007 C 
ATOM     17  C   UNL     1      -3.600   3.489  21.861  0.00  0.00    +0.007 C 
ENDBRANCH   7  11
BRANCH   8  14
ATOM     14  C   UNL     1      -2.291   3.973  25.532  0.00  0.00    +0.113 C 
BRANCH  14   4
ATOM      2  O   UNL     1      -0.817   1.524  25.343  0.00  0.00    -0.253 OA
ATOM      4  N   UNL     1      -1.194   3.701  24.657  0.00  0.00    -0.299 N 
ATOM      6  N   UNL     1       0.510   2.496  23.669  0.00  0.00    -0.269 N 
ATOM     20  C   UNL     1      -0.515   2.469  24.619  0.00  0.00    +0.304 C 
ATOM     31  H   UNL     1      -0.928   4.408  23.978  0.00  0.00    +0.150 HD
ATOM     33  H   UNL     1       0.630   3.363  23.152  0.00  0.00    +0.156 HD
BRANCH   6  22
ATOM     22  C   UNL     1       1.412   1.458  23.335  0.00  0.00    +0.038 A 
ATOM     24  C   UNL     1       2.786   1.662  23.460  0.00  0.00    +0.069 A 
ATOM     25  C   UNL     1       0.927   0.230  22.882  0.00  0.00    +0.023 A 
ATOM     26  C   UNL     1       3.675   0.639  23.130  0.00  0.00    +0.122 A 
ATOM     27  C   UNL     1       1.817  -0.791  22.552  0.00  0.00    +0.005 A 
ATOM     28  C   UNL     1       3.191  -0.587  22.676  0.00  0.00    +0.046 A 
BRANCH  26   3
ATOM      3  O   UNL     1       5.016   0.838  23.251  0.00  0.00    -0.495 OA
ATOM     30  C   UNL     1       5.773  -0.203  23.869  0.00  0.00    +0.277 C 
ENDBRANCH  26   3
ENDBRANCH   6  22
ENDBRANCH  14   4
ENDBRANCH   8  14
BRANCH  10  15
ATOM     15  C   UNL     1      -4.867  -0.116  25.661  0.00  0.00    +0.103 C 
BRANCH  15  19
ATOM      1  O   UNL     1      -4.601  -1.434  23.650  0.00  0.00    -0.276 OA
ATOM      5  N   UNL     1      -2.739  -0.942  24.952  0.00  0.00    -0.304 N 
ATOM     19  C   UNL     1      -4.088  -0.904  24.633  0.00  0.00    +0.214 C 
ATOM     32  H   UNL     1      -2.411  -0.455  25.781  0.00  0.00    +0.150 HD
BRANCH   5  21
ATOM     21  C   UNL     1      -1.756  -1.628  24.145  0.00  0.00    +0.193 C 
BRANCH  21  23
ATOM     23  C   UNL     1      -0.640  -2.101  24.963  0.00  0.00    -0.087 C 
ATOM     29  C   UNL     1       0.278  -2.486  25.634  0.00  0.00    +0.005 C 
ENDBRANCH  21  23
ENDBRANCH   5  21
ENDBRANCH  15  19
ENDBRANCH  10  15
TORSDOF 9
ENDMDL
MODEL 3
REMARK VINA RESULT:       0.2      1.699      5.144
REMARK  Name = 38028638
REMARK  13 active torsions:
REMARK  status: ('A' for Active; 'I' for Inactive)
REMARK    1  A    between atoms: O_3  and  C_26
REMARK    2  A    between atoms: O_3  and  C_30
REMARK    3  A    between atoms: N_4  and  C_14
REMARK    4  A    between atoms: N_5  and  C_21
REMARK    5  A    between atoms: N_6  and  C_22
REMARK    6  A    between atoms: C_7  and  C_11
REMARK    7  A    between atoms: C_8  and  C_14
REMARK    8  A    between atoms: C_10  and  C_15
REMARK    9  A    between atoms: C_11  and  C_16
REMARK   10  A    between atoms: C_11  and  C_17
REMARK   11  A    between atoms: C_12  and  C_18
REMARK   12  A    between atoms: C_15  and  C_19
REMARK   13  A    between atoms: C_21  and  C_23
REMARK                            x       y       z     vdW  Elec       q    Type
REMARK                         _______ _______ _______ _____ _____    ______ ____
ROOT
ATOM      7  C   UNL     1      -4.095   3.657  25.671  0.00  0.00    +0.000 C 
ATOM      8  C   UNL     1      -3.839   4.481  24.384  0.00  0.00    +0.032 C 
ATOM      9  C   UNL     1      -3.160   4.118  26.799  0.00  0.00    +0.012 C 
ATOM     10  C   UNL     1      -1.674   3.978  26.417  0.00  0.00    +0.023 C 
ATOM     12  C   UNL     1      -1.393   4.531  25.035  0.00  0.00    -0.073 C 
ATOM     13  C   UNL     1      -2.374   4.761  24.144  0.00  0.00    -0.022 C 
ATOM     18  C   UNL     1       0.040   4.856  24.715  0.00  0.00    +0.039 C 
ENDROOT
BRANCH   7  11
ATOM     11  C   UNL     1      -5.553   3.760  26.131  0.00  0.00    -0.013 C 
ATOM     16  C   UNL     1      -6.266   4.886  25.388  0.00  0.00    +0.007 C 
ATOM     17  C   UNL     1      -6.274   2.433  25.919  0.00  0.00    +0.007 C 
ENDBRANCH   7  11
BRANCH   8  14
ATOM     14  C   UNL     1      -4.433   3.784  23.154  0.00  0.00    +0.113 C 
BRANCH  14   4
ATOM      2  O   UNL     1      -2.605   1.589  23.374  0.00  0.00    -0.253 OA
ATOM      4  N   UNL     1      -4.761   2.424  23.450  0.00  0.00    -0.299 N 
ATOM      6  N   UNL     1      -4.419   0.175  23.842  0.00  0.00    -0.269 N 
ATOM     20  C   UNL     1      -3.807   1.395  23.543  0.00  0.00    +0.304 C 
ATOM     31  H   UNL     1      -5.726   2.196  23.671  0.00  0.00    +0.150 HD
ATOM     33  H   UNL     1      -5.430   0.186  23.948  0.00  0.00    +0.156 HD
BRANCH   6  22
ATOM     22  C   UNL     1      -3.802  -1.086  24.016  0.00  0.00    +0.038 A 
ATOM     24  C   UNL     1      -2.494  -1.162  24.493  0.00  0.00    +0.069 A 
ATOM     25  C   UNL     1      -4.502  -2.254  23.711  0.00  0.00    +0.023 A 
ATOM     26  C   UNL     1      -1.885  -2.405  24.664  0.00  0.00    +0.122 A 
ATOM     27  C   UNL     1      -3.893  -3.496  23.882  0.00  0.00    +0.005 A 
ATOM     28  C   UNL     1      -2.584  -3.572  24.359  0.00  0.00    +0.046 A 
BRANCH  26   3
ATOM      3  O   UNL     1      -0.609  -2.479  25.130  0.00  0.00    -0.495 OA
ATOM     30  C   UNL     1      -0.155  -1.407  25.957  0.00  0.00    +0.277 C 
ENDBRANCH  26   3
ENDBRANCH   6  22
ENDBRANCH  14   4
ENDBRANCH   8  14
BRANCH  10  15
ATOM     15  C   UNL     1      -1.211   2.521  26.531  0.00  0.00    +0.103 C 
BRANCH  15  19
ATOM      1  O   UNL     1       1.204   2.650  26.597  0.00  0.00    -0.276 OA
ATOM      5  N   UNL     1       0.156   1.735  24.734  0.00  0.00    -0.304 N 
ATOM     19  C   UNL     1       0.186   2.324  25.989  0.00  0.00    +0.214 C 
ATOM     32  H   UNL     1      -0.739   1.488  24.324  0.00  0.00    +0.150 HD
BRANCH   5  21
ATOM     21  C   UNL     1       1.348   1.431  23.976  0.00  0.00    +0.193 C 
BRANCH  21  23
ATOM     23  C   UNL     1       1.103   0.352  23.019  0.00  0.00    -0.087 C 
ATOM     29  C   UNL     1       0.905  -0.534  22.234  0.00  0.00    +0.005 C 
ENDBRANCH  21  23
ENDBRANCH   5  21
ENDBRANCH  15  19
ENDBRANCH  10  15
TORSDOF 9
ENDMDL
MODEL 4
REMARK VINA RESULT:       0.5      1.786      4.353
REMARK  Name = 38028638
REMARK  13 active torsions:
REMARK  status: ('A' for Active; 'I' for Inactive)
REMARK    1  A    between atoms: O_3  and  C_26
REMARK    2  A    between atoms: O_3  and  C_30
REMARK    3  A    between atoms: N_4  and  C_14
REMARK    4  A    between atoms: N_5  and  C_21
REMARK    5  A    between atoms: N_6  and  C_22
REMARK    6  A    between atoms: C_7  and  C_11
REMARK    7  A    between atoms: C_8  and  C_14
REMARK    8  A    between atoms: C_10  and  C_15
REMARK    9  A    between atoms: C_11  and  C_16
REMARK   10  A    between atoms: C_11  and  C_17
REMARK   11  A    between atoms: C_12  and  C_18
REMARK   12  A    between atoms: C_15  and  C_19
REMARK   13  A    between atoms: C_21  and  C_23
REMARK                            x       y       z     vdW  Elec       q    Type
REMARK                         _______ _______ _______ _____ _____    ______ ____
ROOT
ATOM      7  C   UNL     1      -4.216  -0.273  25.074  0.00  0.00    +0.000 C 
ATOM      8  C   UNL     1      -2.931   0.254  24.388  0.00  0.00    +0.032 C 
ATOM      9  C   UNL     1      -5.462   0.167  24.291  0.00  0.00    +0.012 C 
ATOM     10  C   UNL     1      -5.565   1.700  24.175  0.00  0.00    +0.023 C 
ATOM     12  C   UNL     1      -4.248   2.323  23.759  0.00  0.00    -0.073 C 
ATOM     13  C   UNL     1      -3.083   1.658  23.849  0.00  0.00    -0.022 C 
ATOM     18  C   UNL     1      -4.307   3.715  23.195  0.00  0.00    +0.039 C 
ENDROOT
BRANCH   7  11
ATOM     11  C   UNL     1      -4.201  -1.800  25.209  0.00  0.00    -0.013 C 
ATOM     16  C   UNL     1      -3.987  -2.452  23.848  0.00  0.00    +0.007 C 
ATOM     17  C   UNL     1      -3.121  -2.237  26.193  0.00  0.00    +0.007 C 
ENDBRANCH   7  11
BRANCH   8  14
ATOM     14  C   UNL     1      -1.733   0.201  25.343  0.00  0.00    +0.113 C 
BRANCH  14   4
ATOM      2  O   UNL     1       0.642   1.484  24.385  0.00  0.00    -0.253 OA
ATOM      4  N   UNL     1      -0.613  -0.430  24.718  0.00  0.00    -0.299 N 
ATOM      6  N   UNL     1       1.452  -0.610  23.702  0.00  0.00    -0.269 N 
ATOM     20  C   UNL     1       0.524   0.267  24.271  0.00  0.00    +0.304 C 
ATOM     31  H   UNL     1      -0.604  -1.444  24.650  0.00  0.00    +0.150 HD
ATOM     33  H   UNL     1       1.198  -1.594  23.684  0.00  0.00    +0.156 HD
BRANCH   6  22
ATOM     22  C   UNL     1       2.714  -0.296  23.143  0.00  0.00    +0.038 A 
ATOM     24  C   UNL     1       3.881  -0.590  23.848  0.00  0.00    +0.069 A 
ATOM     25  C   UNL     1       2.790   0.307  21.887  0.00  0.00    +0.023 A 
ATOM     26  C   UNL     1       5.124  -0.280  23.297  0.00  0.00    +0.122 A 
ATOM     27  C   UNL     1       4.034   0.617  21.337  0.00  0.00    +0.005 A 
ATOM     28  C   UNL     1       5.201   0.323  22.042  0.00  0.00    +0.046 A 
BRANCH  26   3
ATOM      3  O   UNL     1       6.263  -0.568  23.984  0.00  0.00    -0.495 OA
ATOM     30  C   UNL     1       7.496  -0.455  23.273  0.00  0.00    +0.277 C 
ENDBRANCH  26   3
ENDBRANCH   6  22
ENDBRANCH  14   4
ENDBRANCH   8  14
BRANCH  10  15
ATOM     15  C   UNL     1      -6.077   2.318  25.481  0.00  0.00    +0.103 C 
BRANCH  15  19
ATOM      1  O   UNL     1      -5.905   4.722  25.691  0.00  0.00    -0.276 OA
ATOM      5  N   UNL     1      -4.084   3.390  26.250  0.00  0.00    -0.304 N 
ATOM     19  C   UNL     1      -5.379   3.618  25.808  0.00  0.00    +0.214 C 
ATOM     32  H   UNL     1      -3.747   2.435  26.327  0.00  0.00    +0.150 HD
BRANCH   5  21
ATOM     21  C   UNL     1      -3.182   4.452  26.631  0.00  0.00    +0.193 C 
BRANCH  21  23
ATOM     23  C   UNL     1      -2.014   4.493  25.751  0.00  0.00    -0.087 C 
ATOM     29  C   UNL     1      -1.056   4.530  25.028  0.00  0.00    +0.005 C 
ENDBRANCH  21  23
ENDBRANCH   5  21
ENDBRANCH  15  19
ENDBRANCH  10  15
TORSDOF 9
ENDMDL
MODEL 5
REMARK VINA RESULT:       0.8      1.575      3.658
REMARK  Name = 38028638
REMARK  13 active torsions:
REMARK  status: ('A' for Active; 'I' for Inactive)
REMARK    1  A    between atoms: O_3  and  C_26
REMARK    2  A    between atoms: O_3  and  C_30
REMARK    3  A    between atoms: N_4  and  C_14
REMARK    4  A    between atoms: N_5  and  C_21
REMARK    5  A    between atoms: N_6  and  C_22
REMARK    6  A    between atoms: C_7  and  C_11
REMARK    7  A    between atoms: C_8  and  C_14
REMARK    8  A    between atoms: C_10  and  C_15
REMARK    9  A    between atoms: C_11  and  C_16
REMARK   10  A    between atoms: C_11  and  C_17
REMARK   11  A    between atoms: C_12  and  C_18
REMARK   12  A    between atoms: C_15  and  C_19
REMARK   13  A    between atoms: C_21  and  C_23
REMARK                            x       y       z     vdW  Elec       q    Type
REMARK                         _______ _______ _______ _____ _____    ______ ____
ROOT
ATOM      7  C   UNL     1      -3.340   1.953  24.525  0.00  0.00    +0.000 C 
ATOM      8  C   UNL     1      -2.756   2.550  23.221  0.00  0.00    +0.032 C 
ATOM      9  C   UNL     1      -3.593   3.062  25.558  0.00  0.00    +0.012 C 
ATOM     10  C   UNL     1      -2.307   3.835  25.908  0.00  0.00    +0.023 C 
ATOM     12  C   UNL     1      -1.531   4.229  24.668  0.00  0.00    -0.073 C 
ATOM     13  C   UNL     1      -1.753   3.653  23.473  0.00  0.00    -0.022 C 
ATOM     18  C   UNL     1      -0.522   5.332  24.823  0.00  0.00    +0.039 C 
ENDROOT
BRANCH   7  11
ATOM     11  C   UNL     1      -4.638   1.181  24.265  0.00  0.00    -0.013 C 
ATOM     16  C   UNL     1      -4.486  -0.275  24.695  0.00  0.00    +0.007 C 
ATOM     17  C   UNL     1      -5.804   1.840  24.993  0.00  0.00    +0.007 C 
ENDBRANCH   7  11
BRANCH   8  14
ATOM     14  C   UNL     1      -2.110   1.462  22.355  0.00  0.00    +0.113 C 
BRANCH  14   4
ATOM      2  O   UNL     1      -0.257  -0.529  23.252  0.00  0.00    -0.253 OA
ATOM      4  N   UNL     1      -0.685   1.571  22.382  0.00  0.00    -0.299 N 
ATOM      6  N   UNL     1       1.505   0.938  22.747  0.00  0.00    -0.269 N 
ATOM     20  C   UNL     1       0.166   0.548  22.838  0.00  0.00    +0.304 C 
ATOM     31  H   UNL     1      -0.255   2.405  21.991  0.00  0.00    +0.150 HD
ATOM     33  H   UNL     1       1.685   1.869  22.382  0.00  0.00    +0.156 HD
BRANCH   6  22
ATOM     22  C   UNL     1       2.652   0.191  23.106  0.00  0.00    +0.038 A 
ATOM     24  C   UNL     1       3.913   0.785  23.054  0.00  0.00    +0.069 A 
ATOM     25  C   UNL     1       2.523  -1.138  23.510  0.00  0.00    +0.023 A 
ATOM     26  C   UNL     1       5.045   0.050  23.407  0.00  0.00    +0.122 A 
ATOM     27  C   UNL     1       3.655  -1.872  23.861  0.00  0.00    +0.005 A 
ATOM     28  C   UNL     1       4.916  -1.278  23.810  0.00  0.00    +0.046 A 
BRANCH  26   3
ATOM      3  O   UNL     1       6.275   0.629  23.357  0.00  0.00    -0.495 OA
ATOM     30  C   UNL     1       7.386  -0.227  23.089  0.00  0.00    +0.277 C 
ENDBRANCH  26   3
ENDBRANCH   6  22
ENDBRANCH  14   4
ENDBRANCH   8  14
BRANCH  10  15
ATOM     15  C   UNL     1      -1.428   3.035  26.876  0.00  0.00    +0.103 C 
BRANCH  15  19
ATOM      1  O   UNL     1       0.406   2.208  25.532  0.00  0.00    -0.276 OA
ATOM      5  N   UNL     1      -1.193   0.720  26.328  0.00  0.00    -0.304 N 
ATOM     19  C   UNL     1      -0.621   1.973  26.166  0.00  0.00    +0.214 C 
ATOM     32  H   UNL     1      -2.037   0.629  26.887  0.00  0.00    +0.150 HD
BRANCH   5  21
ATOM     21  C   UNL     1      -0.635  -0.483  25.756  0.00  0.00    +0.193 C 
BRANCH  21  23
ATOM     23  C   UNL     1      -1.667  -1.501  25.558  0.00  0.00    -0.087 C 
ATOM     29  C   UNL     1      -2.513  -2.338  25.398  0.00  0.00    +0.005 C 
ENDBRANCH  21  23
ENDBRANCH   5  21
ENDBRANCH  15  19
ENDBRANCH  10  15
TORSDOF 9
ENDMDL
MODEL 6
REMARK VINA RESULT:       1.0      2.293      5.564
REMARK  Name = 38028638
REMARK  13 active torsions:
REMARK  status: ('A' for Active; 'I' for Inactive)
REMARK    1  A    between atoms: O_3  and  C_26
REMARK    2  A    between atoms: O_3  and  C_30
REMARK    3  A    between atoms: N_4  and  C_14
REMARK    4  A    between atoms: N_5  and  C_21
REMARK    5  A    between atoms: N_6  and  C_22
REMARK    6  A    between atoms: C_7  and  C_11
REMARK    7  A    between atoms: C_8  and  C_14
REMARK    8  A    between atoms: C_10  and  C_15
REMARK    9  A    between atoms: C_11  and  C_16
REMARK   10  A    between atoms: C_11  and  C_17
REMARK   11  A    between atoms: C_12  and  C_18
REMARK   12  A    between atoms: C_15  and  C_19
REMARK   13  A    between atoms: C_21  and  C_23
REMARK                            x       y       z     vdW  Elec       q    Type
REMARK                         _______ _______ _______ _____ _____    ______ ____
ROOT
ATOM      7  C   UNL     1      -4.123   3.687  25.646  0.00  0.00    +0.000 C 
ATOM      8  C   UNL     1      -3.946   4.514  24.347  0.00  0.00    +0.032 C 
ATOM      9  C   UNL     1      -3.115   4.143  26.713  0.00  0.00    +0.012 C 
ATOM     10  C   UNL     1      -1.658   3.997  26.236  0.00  0.00    +0.023 C 
ATOM     12  C   UNL     1      -1.463   4.553  24.840  0.00  0.00    -0.073 C 
ATOM     13  C   UNL     1      -2.498   4.790  24.015  0.00  0.00    -0.022 C 
ATOM     18  C   UNL     1      -0.053   4.874  24.430  0.00  0.00    +0.039 C 
ENDROOT
BRANCH   7  11
ATOM     11  C   UNL     1      -5.548   3.796  26.198  0.00  0.00    -0.013 C 
ATOM     16  C   UNL     1      -6.306   4.917  25.496  0.00  0.00    +0.007 C 
ATOM     17  C   UNL     1      -6.281   2.467  26.042  0.00  0.00    +0.007 C 
ENDBRANCH   7  11
BRANCH   8  14
ATOM     14  C   UNL     1      -4.620   3.823  23.156  0.00  0.00    +0.113 C 
BRANCH  14   4
ATOM      2  O   UNL     1      -2.645   1.775  23.493  0.00  0.00    -0.253 OA
ATOM      4  N   UNL     1      -4.859   2.442  23.439  0.00  0.00    -0.299 N 
ATOM      6  N   UNL     1      -4.369   0.226  23.862  0.00  0.00    -0.269 N 
ATOM     20  C   UNL     1      -3.836   1.490  23.593  0.00  0.00    +0.304 C 
ATOM     31  H   UNL     1      -5.815   2.140  23.605  0.00  0.00    +0.150 HD
ATOM     33  H   UNL     1      -5.382   0.159  23.909  0.00  0.00    +0.156 HD
BRANCH   6  22
ATOM     22  C   UNL     1      -3.668  -0.984  24.078  0.00  0.00    +0.038 A 
ATOM     24  C   UNL     1      -2.357  -0.954  24.553  0.00  0.00    +0.069 A 
ATOM     25  C   UNL     1      -4.288  -2.206  23.818  0.00  0.00    +0.023 A 
ATOM     26  C   UNL     1      -1.665  -2.146  24.765  0.00  0.00    +0.122 A 
ATOM     27  C   UNL     1      -3.595  -3.398  24.030  0.00  0.00    +0.005 A 
ATOM     28  C   UNL     1      -2.284  -3.368  24.504  0.00  0.00    +0.046 A 
BRANCH  26   3
ATOM      3  O   UNL     1      -0.386  -2.117  25.229  0.00  0.00    -0.495 OA
ATOM     30  C   UNL     1       0.535  -1.270  24.543  0.00  0.00    +0.277 C 
ENDBRANCH  26   3
ENDBRANCH   6  22
ENDBRANCH  14   4
ENDBRANCH   8  14
BRANCH  10  15
ATOM     15  C   UNL     1      -1.194   2.538  26.316  0.00  0.00    +0.103 C 
BRANCH  15  19
ATOM      1  O   UNL     1       1.085   2.149  25.603  0.00  0.00    -0.276 OA
ATOM      5  N   UNL     1       0.654   2.674  27.827  0.00  0.00    -0.304 N 
ATOM     19  C   UNL     1       0.301   2.426  26.509  0.00  0.00    +0.214 C 
ATOM     32  H   UNL     1      -0.070   2.911  28.498  0.00  0.00    +0.150 HD
BRANCH   5  21
ATOM     21  C   UNL     1       2.019   2.633  28.299  0.00  0.00    +0.193 C 
BRANCH  21  23
ATOM     23  C   UNL     1       2.080   2.203  29.696  0.00  0.00    -0.087 C 
ATOM     29  C   UNL     1       2.130   1.847  30.842  0.00  0.00    +0.005 C 
ENDBRANCH  21  23
ENDBRANCH   5  21
ENDBRANCH  15  19
ENDBRANCH  10  15
TORSDOF 9
ENDMDL
MODEL 7
REMARK VINA RESULT:       1.6      1.111      3.412
REMARK  Name = 38028638
REMARK  13 active torsions:
REMARK  status: ('A' for Active; 'I' for Inactive)
REMARK    1  A    between atoms: O_3  and  C_26
REMARK    2  A    between atoms: O_3  and  C_30
REMARK    3  A    between atoms: N_4  and  C_14
REMARK    4  A    between atoms: N_5  and  C_21
REMARK    5  A    between atoms: N_6  and  C_22
REMARK    6  A    between atoms: C_7  and  C_11
REMARK    7  A    between atoms: C_8  and  C_14
REMARK    8  A    between atoms: C_10  and  C_15
REMARK    9  A    between atoms: C_11  and  C_16
REMARK   10  A    between atoms: C_11  and  C_17
REMARK   11  A    between atoms: C_12  and  C_18
REMARK   12  A    between atoms: C_15  and  C_19
REMARK   13  A    between atoms: C_21  and  C_23
REMARK                            x       y       z     vdW  Elec       q    Type
REMARK                         _______ _______ _______ _____ _____    ______ ____
ROOT
ATOM      7  C   UNL     1      -4.062   2.824  25.675  0.00  0.00    +0.000 C 
ATOM      8  C   UNL     1      -3.891   3.258  24.197  0.00  0.00    +0.032 C 
ATOM      9  C   UNL     1      -3.642   3.960  26.620  0.00  0.00    +0.012 C 
ATOM     10  C   UNL     1      -2.177   4.385  26.403  0.00  0.00    +0.023 C 
ATOM     12  C   UNL     1      -1.857   4.573  24.934  0.00  0.00    -0.073 C 
ATOM     13  C   UNL     1      -2.641   4.073  23.962  0.00  0.00    -0.022 C 
ATOM     18  C   UNL     1      -0.636   5.388  24.606  0.00  0.00    +0.039 C 
ENDROOT
BRANCH   7  11
ATOM     11  C   UNL     1      -5.504   2.402  25.979  0.00  0.00    -0.013 C 
ATOM     16  C   UNL     1      -6.474   3.516  25.601  0.00  0.00    +0.007 C 
ATOM     17  C   UNL     1      -5.848   1.112  25.242  0.00  0.00    +0.007 C 
ENDBRANCH   7  11
BRANCH   8  14
ATOM     14  C   UNL     1      -3.892   2.044  23.261  0.00  0.00    +0.113 C 
BRANCH  14   4
ATOM      2  O   UNL     1      -1.399   2.211  21.859  0.00  0.00    -0.253 OA
ATOM      4  N   UNL     1      -2.733   1.235  23.477  0.00  0.00    -0.299 N 
ATOM      6  N   UNL     1      -0.584   0.449  23.177  0.00  0.00    -0.269 N 
ATOM     20  C   UNL     1      -1.539   1.374  22.748  0.00  0.00    +0.304 C 
ATOM     31  H   UNL     1      -2.745   0.566  24.242  0.00  0.00    +0.150 HD
ATOM     33  H   UNL     1      -0.862  -0.179  23.927  0.00  0.00    +0.156 HD
BRANCH   6  22
ATOM     22  C   UNL     1       0.735   0.274  22.694  0.00  0.00    +0.038 A 
ATOM     24  C   UNL     1       1.811   0.817  23.396  0.00  0.00    +0.069 A 
ATOM     25  C   UNL     1       0.958  -0.439  21.516  0.00  0.00    +0.023 A 
ATOM     26  C   UNL     1       3.111   0.645  22.919  0.00  0.00    +0.122 A 
ATOM     27  C   UNL     1       2.258  -0.610  21.040  0.00  0.00    +0.005 A 
ATOM     28  C   UNL     1       3.334  -0.068  21.742  0.00  0.00    +0.046 A 
BRANCH  26   3
ATOM      3  O   UNL     1       4.162   1.174  23.604  0.00  0.00    -0.495 OA
ATOM     30  C   UNL     1       5.376   0.424  23.610  0.00  0.00    +0.277 C 
ENDBRANCH  26   3
ENDBRANCH   6  22
ENDBRANCH  14   4
ENDBRANCH   8  14
BRANCH  10  15
ATOM     15  C   UNL     1      -1.211   3.388  27.053  0.00  0.00    +0.103 C 
BRANCH  15  19
ATOM      1  O   UNL     1      -0.236   2.424  25.059  0.00  0.00    -0.276 OA
ATOM      5  N   UNL     1      -1.273   1.040  26.612  0.00  0.00    -0.304 N 
ATOM     19  C   UNL     1      -0.840   2.261  26.117  0.00  0.00    +0.214 C 
ATOM     32  H   UNL     1      -1.752   1.009  27.507  0.00  0.00    +0.150 HD
BRANCH   5  21
ATOM     21  C   UNL     1      -1.058  -0.212  25.924  0.00  0.00    +0.193 C 
BRANCH  21  23
ATOM     23  C   UNL     1      -2.312  -0.947  25.762  0.00  0.00    -0.087 C 
ATOM     29  C   UNL     1      -3.343  -1.550  25.633  0.00  0.00    +0.005 C 
ENDBRANCH  21  23
ENDBRANCH   5  21
ENDBRANCH  15  19
ENDBRANCH  10  15
TORSDOF 9
ENDMDL
MODEL 8
REMARK VINA RESULT:       1.7      2.046      4.096
REMARK  Name = 38028638
REMARK  13 active torsions:
REMARK  status: ('A' for Active; 'I' for Inactive)
REMARK    1  A    between atoms: O_3  and  C_26
REMARK    2  A    between atoms: O_3  and  C_30
REMARK    3  A    between atoms: N_4  and  C_14
REMARK    4  A    between atoms: N_5  and  C_21
REMARK    5  A    between atoms: N_6  and  C_22
REMARK    6  A    between atoms: C_7  and  C_11
REMARK    7  A    between atoms: C_8  and  C_14
REMARK    8  A    between atoms: C_10  and  C_15
REMARK    9  A    between atoms: C_11  and  C_16
REMARK   10  A    between atoms: C_11  and  C_17
REMARK   11  A    between atoms: C_12  and  C_18
REMARK   12  A    between atoms: C_15  and  C_19
REMARK   13  A    between atoms: C_21  and  C_23
REMARK                            x       y       z     vdW  Elec       q    Type
REMARK                         _______ _______ _______ _____ _____    ______ ____
ROOT
ATOM      7  C   UNL     1      -2.480   1.446  24.807  0.00  0.00    +0.000 C 
ATOM      8  C   UNL     1      -1.687   0.463  23.908  0.00  0.00    +0.032 C 
ATOM      9  C   UNL     1      -3.239   0.679  25.901  0.00  0.00    +0.012 C 
ATOM     10  C   UNL     1      -4.225  -0.349  25.313  0.00  0.00    +0.023 C 
ATOM     12  C   UNL     1      -3.586  -1.182  24.222  0.00  0.00    -0.073 C 
ATOM     13  C   UNL     1      -2.445  -0.810  23.614  0.00  0.00    -0.022 C 
ATOM     18  C   UNL     1      -4.265  -2.478  23.874  0.00  0.00    +0.039 C 
ENDROOT
BRANCH   7  11
ATOM     11  C   UNL     1      -1.564   2.493  25.449  0.00  0.00    -0.013 C 
ATOM     16  C   UNL     1      -0.323   1.827  26.033  0.00  0.00    +0.007 C 
ATOM     17  C   UNL     1      -1.176   3.558  24.427  0.00  0.00    +0.007 C 
ENDBRANCH   7  11
BRANCH   8  14
ATOM     14  C   UNL     1      -1.277   1.129  22.590  0.00  0.00    +0.113 C 
BRANCH  14   4
ATOM      2  O   UNL     1       0.647  -0.704  23.661  0.00  0.00    -0.253 OA
ATOM      4  N   UNL     1       0.146   1.230  22.493  0.00  0.00    -0.299 N 
ATOM      6  N   UNL     1       2.359   0.648  22.795  0.00  0.00    -0.269 N 
ATOM     20  C   UNL     1       1.032   0.288  23.046  0.00  0.00    +0.304 C 
ATOM     31  H   UNL     1       0.542   1.985  21.941  0.00  0.00    +0.150 HD
ATOM     33  H   UNL     1       2.508   1.506  22.270  0.00  0.00    +0.156 HD
BRANCH   6  22
ATOM     22  C   UNL     1       3.534  -0.039  23.184  0.00  0.00    +0.038 A 
ATOM     24  C   UNL     1       4.767   0.612  23.143  0.00  0.00    +0.069 A 
ATOM     25  C   UNL     1       3.459  -1.366  23.609  0.00  0.00    +0.023 A 
ATOM     26  C   UNL     1       5.925  -0.065  23.526  0.00  0.00    +0.122 A 
ATOM     27  C   UNL     1       4.617  -2.042  23.992  0.00  0.00    +0.005 A 
ATOM     28  C   UNL     1       5.850  -1.391  23.950  0.00  0.00    +0.046 A 
BRANCH  26   3
ATOM      3  O   UNL     1       7.128   0.569  23.486  0.00  0.00    -0.495 OA
ATOM     30  C   UNL     1       8.263  -0.213  23.114  0.00  0.00    +0.277 C 
ENDBRANCH  26   3
ENDBRANCH   6  22
ENDBRANCH  14   4
ENDBRANCH   8  14
BRANCH  10  15
ATOM     15  C   UNL     1      -5.500   0.336  24.807  0.00  0.00    +0.103 C 
BRANCH  15  19
ATOM      1  O   UNL     1      -6.378   1.656  26.634  0.00  0.00    -0.276 OA
ATOM      5  N   UNL     1      -5.319   2.719  24.859  0.00  0.00    -0.304 N 
ATOM     19  C   UNL     1      -5.793   1.617  25.554  0.00  0.00    +0.214 C 
ATOM     32  H   UNL     1      -4.833   2.579  23.978  0.00  0.00    +0.150 HD
BRANCH   5  21
ATOM     21  C   UNL     1      -5.463   4.075  25.336  0.00  0.00    +0.193 C 
BRANCH  21  23
ATOM     23  C   UNL     1      -4.319   4.467  26.160  0.00  0.00    -0.087 C 
ATOM     29  C   UNL     1      -3.382   4.787  26.839  0.00  0.00    +0.005 C 
ENDBRANCH  21  23
ENDBRANCH   5  21
ENDBRANCH  15  19
ENDBRANCH  10  15
TORSDOF 9
ENDMDL
MODEL 9
REMARK VINA RESULT:       1.7      1.888      5.385
REMARK  Name = 38028638
REMARK  13 active torsions:
REMARK  status: ('A' for Active; 'I' for Inactive)
REMARK    1  A    between atoms: O_3  and  C_26
REMARK    2  A    between atoms: O_3  and  C_30
REMARK    3  A    between atoms: N_4  and  C_14
REMARK    4  A    between atoms: N_5  and  C_21
REMARK    5  A    between atoms: N_6  and  C_22
REMARK    6  A    between atoms: C_7  and  C_11
REMARK    7  A    between atoms: C_8  and  C_14
REMARK    8  A    between atoms: C_10  and  C_15
REMARK    9  A    between atoms: C_11  and  C_16
REMARK   10  A    between atoms: C_11  and  C_17
REMARK   11  A    between atoms: C_12  and  C_18
REMARK   12  A    between atoms: C_15  and  C_19
REMARK   13  A    between atoms: C_21  and  C_23
REMARK                            x       y       z     vdW  Elec       q    Type
REMARK                         _______ _______ _______ _____ _____    ______ ____
ROOT
ATOM      7  C   UNL     1      -2.152   3.808  25.078  0.00  0.00    +0.000 C 
ATOM      8  C   UNL     1      -3.384   3.871  24.142  0.00  0.00    +0.032 C 
ATOM      9  C   UNL     1      -0.853   3.838  24.258  0.00  0.00    +0.012 C 
ATOM     10  C   UNL     1      -0.768   2.667  23.261  0.00  0.00    +0.023 C 
ATOM     12  C   UNL     1      -2.056   2.495  22.482  0.00  0.00    -0.073 C 
ATOM     13  C   UNL     1      -3.213   3.051  22.884  0.00  0.00    -0.022 C 
ATOM     18  C   UNL     1      -1.976   1.706  21.205  0.00  0.00    +0.039 C 
ENDROOT
BRANCH   7  11
ATOM     11  C   UNL     1      -2.150   4.957  26.093  0.00  0.00    -0.013 C 
ATOM     16  C   UNL     1      -2.123   6.302  25.373  0.00  0.00    +0.007 C 
ATOM     17  C   UNL     1      -3.366   4.859  27.009  0.00  0.00    +0.007 C 
ENDBRANCH   7  11
BRANCH   8  14
ATOM     14  C   UNL     1      -4.657   3.426  24.872  0.00  0.00    +0.113 C 
BRANCH  14   4
ATOM      2  O   UNL     1      -2.933   1.146  25.069  0.00  0.00    -0.253 OA
ATOM      4  N   UNL     1      -4.985   2.075  24.541  0.00  0.00    -0.299 N 
ATOM      6  N   UNL     1      -4.683  -0.198  24.267  0.00  0.00    -0.269 N 
ATOM     20  C   UNL     1      -4.084   1.002  24.664  0.00  0.00    +0.304 C 
ATOM     31  H   UNL     1      -5.940   1.862  24.264  0.00  0.00    +0.150 HD
ATOM     33  H   UNL     1      -5.648  -0.144  23.953  0.00  0.00    +0.156 HD
BRANCH   6  22
ATOM     22  C   UNL     1      -4.107  -1.490  24.247  0.00  0.00    +0.038 A 
ATOM     24  C   UNL     1      -2.796  -1.675  24.684  0.00  0.00    +0.069 A 
ATOM     25  C   UNL     1      -4.850  -2.579  23.789  0.00  0.00    +0.023 A 
ATOM     26  C   UNL     1      -2.228  -2.949  24.663  0.00  0.00    +0.122 A 
ATOM     27  C   UNL     1      -4.281  -3.851  23.767  0.00  0.00    +0.005 A 
ATOM     28  C   UNL     1      -2.970  -4.037  24.205  0.00  0.00    +0.046 A 
BRANCH  26   3
ATOM      3  O   UNL     1      -0.949  -3.130  25.091  0.00  0.00    -0.495 OA
ATOM     30  C   UNL     1      -0.254  -1.979  25.571  0.00  0.00    +0.277 C 
ENDBRANCH  26   3
ENDBRANCH   6  22
ENDBRANCH  14   4
ENDBRANCH   8  14
BRANCH  10  15
ATOM     15  C   UNL     1      -0.377   1.365  23.970  0.00  0.00    +0.103 C 
BRANCH  15  19
ATOM      1  O   UNL     1       0.157  -0.497  22.520  0.00  0.00    -0.276 OA
ATOM      5  N   UNL     1       1.829   1.002  23.123  0.00  0.00    -0.304 N 
ATOM     19  C   UNL     1       0.534   0.506  23.122  0.00  0.00    +0.214 C 
ATOM     32  H   UNL     1       2.035   1.850  23.642  0.00  0.00    +0.150 HD
BRANCH   5  21
ATOM     21  C   UNL     1       2.912   0.380  22.398  0.00  0.00    +0.193 C 
BRANCH  21  23
ATOM     23  C   UNL     1       4.167   0.473  23.143  0.00  0.00    -0.087 C 
ATOM     29  C   UNL     1       5.200   0.551  23.751  0.00  0.00    +0.005 C 
ENDBRANCH  21  23
ENDBRANCH   5  21
ENDBRANCH  15  19
ENDBRANCH  10  15
TORSDOF 9
ENDMDL
MODEL 10
REMARK VINA RESULT:       1.9      2.005      4.556
REMARK  Name = 38028638
REMARK  13 active torsions:
REMARK  status: ('A' for Active; 'I' for Inactive)
REMARK    1  A    between atoms: O_3  and  C_26
REMARK    2  A    between atoms: O_3  and  C_30
REMARK    3  A    between atoms: N_4  and  C_14
REMARK    4  A    between atoms: N_5  and  C_21
REMARK    5  A    between atoms: N_6  and  C_22
REMARK    6  A    between atoms: C_7  and  C_11
REMARK    7  A    between atoms: C_8  and  C_14
REMARK    8  A    between atoms: C_10  and  C_15
REMARK    9  A    between atoms: C_11  and  C_16
REMARK   10  A    between atoms: C_11  and  C_17
REMARK   11  A    between atoms: C_12  and  C_18
REMARK   12  A    between atoms: C_15  and  C_19
REMARK   13  A    between atoms: C_21  and  C_23
REMARK                            x       y       z     vdW  Elec       q    Type
REMARK                         _______ _______ _______ _____ _____    ______ ____
ROOT
ATOM      7  C   UNL     1      -3.607   1.894  24.564  0.00  0.00    +0.000 C 
ATOM      8  C   UNL     1      -2.668   2.064  23.343  0.00  0.00    +0.032 C 
ATOM      9  C   UNL     1      -3.974   3.265  25.153  0.00  0.00    +0.012 C 
ATOM     10  C   UNL     1      -2.731   4.057  25.601  0.00  0.00    +0.023 C 
ATOM     12  C   UNL     1      -1.644   4.043  24.546  0.00  0.00    -0.073 C 
ATOM     13  C   UNL     1      -1.639   3.153  23.537  0.00  0.00    -0.022 C 
ATOM     18  C   UNL     1      -0.585   5.105  24.651  0.00  0.00    +0.039 C 
ENDROOT
BRANCH   7  11
ATOM     11  C   UNL     1      -4.883   1.129  24.196  0.00  0.00    -0.013 C 
ATOM     16  C   UNL     1      -4.722  -0.355  24.508  0.00  0.00    +0.007 C 
ATOM     17  C   UNL     1      -6.084   1.710  24.936  0.00  0.00    +0.007 C 
ENDBRANCH   7  11
BRANCH   8  14
ATOM     14  C   UNL     1      -1.959   0.748  23.003  0.00  0.00    +0.113 C 
BRANCH  14   4
ATOM      2  O   UNL     1       0.158  -0.959  23.903  0.00  0.00    -0.253 OA
ATOM      4  N   UNL     1      -0.557   0.958  22.823  0.00  0.00    -0.299 N 
ATOM      6  N   UNL     1       1.708   0.538  22.971  0.00  0.00    -0.269 N 
ATOM     20  C   UNL     1       0.430   0.073  23.293  0.00  0.00    +0.304 C 
ATOM     31  H   UNL     1      -0.253   1.754  22.268  0.00  0.00    +0.150 HD
ATOM     33  H   UNL     1       1.759   1.417  22.463  0.00  0.00    +0.156 HD
BRANCH   6  22
ATOM     22  C   UNL     1       2.952  -0.067  23.269  0.00  0.00    +0.038 A 
ATOM     24  C   UNL     1       4.124   0.687  23.213  0.00  0.00    +0.069 A 
ATOM     25  C   UNL     1       3.007  -1.416  23.618  0.00  0.00    +0.023 A 
ATOM     26  C   UNL     1       5.351   0.092  23.506  0.00  0.00    +0.122 A 
ATOM     27  C   UNL     1       4.234  -2.011  23.910  0.00  0.00    +0.005 A 
ATOM     28  C   UNL     1       5.406  -1.257  23.854  0.00  0.00    +0.046 A 
BRANCH  26   3
ATOM      3  O   UNL     1       6.495   0.827  23.452  0.00  0.00    -0.495 OA
ATOM     30  C   UNL     1       7.724   0.110  23.342  0.00  0.00    +0.277 C 
ENDBRANCH  26   3
ENDBRANCH   6  22
ENDBRANCH  14   4
ENDBRANCH   8  14
BRANCH  10  15
ATOM     15  C   UNL     1      -2.200   3.540  26.943  0.00  0.00    +0.103 C 
BRANCH  15  19
ATOM      1  O   UNL     1      -0.863   1.731  26.052  0.00  0.00    -0.276 OA
ATOM      5  N   UNL     1       0.089   3.228  27.555  0.00  0.00    -0.304 N 
ATOM     19  C   UNL     1      -0.942   2.719  26.780  0.00  0.00    +0.214 C 
ATOM     32  H   UNL     1      -0.074   4.061  28.111  0.00  0.00    +0.150 HD
BRANCH   5  21
ATOM     21  C   UNL     1       1.408   2.641  27.597  0.00  0.00    +0.193 C 
BRANCH  21  23
ATOM     23  C   UNL     1       1.809   2.342  28.971  0.00  0.00    -0.087 C 
ATOM     29  C   UNL     1       2.140   2.098  30.100  0.00  0.00    +0.005 C 
ENDBRANCH  21  23
ENDBRANCH   5  21
ENDBRANCH  15  19
ENDBRANCH  10  15
TORSDOF 9
ENDMDL
