MODEL 1
REMARK VINA RESULT:      -3.5      0.000      0.000
REMARK  Name = 26744180
REMARK  7 active torsions:
REMARK  status: ('A' for Active; 'I' for Inactive)
REMARK    1  A    between atoms: O_1  and  C_11
REMARK    2  A    between atoms: O_3  and  C_24
REMARK    3  A    between atoms: O_3  and  C_25
REMARK    4  A    between atoms: N_4  and  C_13
REMARK    5  A    between atoms: C_9  and  C_14
REMARK    6  A    between atoms: C_13  and  C_15
REMARK    7  A    between atoms: C_16  and  C_18
REMARK                            x       y       z     vdW  Elec       q    Type
REMARK                         _______ _______ _______ _____ _____    ______ ____
ROOT
ATOM      4  N   UNL     1      -4.935   1.349  24.976  0.00  0.00    -0.282 NA
ATOM      9  C   UNL     1      -4.019   2.245  24.242  0.00  0.00    +0.149 C 
ATOM     10  C   UNL     1      -4.329   3.654  24.782  0.00  0.00    +0.061 C 
ATOM     11  C   UNL     1      -5.463   3.452  25.779  0.00  0.00    +0.130 C 
ATOM     12  C   UNL     1      -6.103   2.152  25.332  0.00  0.00    +0.117 C 
ENDROOT
BRANCH   9  14
ATOM      2  O   UNL     1      -2.125   1.706  25.689  0.00  0.00    -0.336 OA
ATOM      5  N   UNL     1      -1.650   1.647  23.501  0.00  0.00    -0.190 NA
ATOM      8  N   UNL     1      -0.772   1.355  25.593  0.00  0.00    -0.056 NA
ATOM     14  C   UNL     1      -2.564   1.859  24.413  0.00  0.00    +0.245 A 
ATOM     16  C   UNL     1      -0.566   1.341  24.274  0.00  0.00    +0.202 A 
BRANCH  16  18
ATOM     18  C   UNL     1       0.707   1.024  23.694  0.00  0.00    +0.023 A 
ATOM     20  C   UNL     1       0.894  -0.196  23.044  0.00  0.00    +0.015 A 
ATOM     21  C   UNL     1       1.759   1.936  23.781  0.00  0.00    +0.015 A 
ATOM     22  C   UNL     1       2.132  -0.503  22.481  0.00  0.00    +0.046 A 
ATOM     23  C   UNL     1       2.997   1.629  23.220  0.00  0.00    +0.046 A 
ATOM     24  C   UNL     1       3.184   0.409  22.569  0.00  0.00    +0.120 A 
BRANCH  24   3
ATOM      3  O   UNL     1       4.393   0.109  22.021  0.00  0.00    -0.495 OA
ATOM     25  C   UNL     1       5.494  -0.038  22.917  0.00  0.00    +0.277 C 
ENDBRANCH  24   3
ENDBRANCH  16  18
ENDBRANCH   9  14
BRANCH  11   1
ATOM      1  O   UNL     1      -6.376   4.532  25.727  0.00  0.00    -0.390 OA
ATOM     26  H   UNL     1      -5.919   5.317  26.074  0.00  0.00    +0.210 HD
ENDBRANCH  11   1
BRANCH   4  13
ATOM     13  C   UNL     1      -5.298   0.156  24.221  0.00  0.00    +0.159 C 
BRANCH  13  15
ATOM      6  N   UNL     1      -3.610  -1.024  25.648  0.00  0.00    -0.347 N 
ATOM      7  N   UNL     1      -4.188  -2.064  23.774  0.00  0.00    -0.239 NA
ATOM     15  C   UNL     1      -4.375  -0.996  24.515  0.00  0.00    +0.121 A 
ATOM     17  C   UNL     1      -2.889  -2.184  25.627  0.00  0.00    +0.104 A 
ATOM     19  C   UNL     1      -3.263  -2.810  24.461  0.00  0.00    +0.130 A 
ATOM     27  H   UNL     1      -3.580  -0.315  26.368  0.00  0.00    +0.167 HD
ENDBRANCH  13  15
ENDBRANCH   4  13
TORSDOF 6
ENDMDL
MODEL 2
REMARK VINA RESULT:      -2.0      1.992      3.664
REMARK  Name = 26744180
REMARK  7 active torsions:
REMARK  status: ('A' for Active; 'I' for Inactive)
REMARK    1  A    between atoms: O_1  and  C_11
REMARK    2  A    between atoms: O_3  and  C_24
REMARK    3  A    between atoms: O_3  and  C_25
REMARK    4  A    between atoms: N_4  and  C_13
REMARK    5  A    between atoms: C_9  and  C_14
REMARK    6  A    between atoms: C_13  and  C_15
REMARK    7  A    between atoms: C_16  and  C_18
REMARK                            x       y       z     vdW  Elec       q    Type
REMARK                         _______ _______ _______ _____ _____    ______ ____
ROOT
ATOM      4  N   UNL     1      -4.065   2.716  25.314  0.00  0.00    -0.282 NA
ATOM      9  C   UNL     1      -3.973   1.261  25.547  0.00  0.00    +0.149 C 
ATOM     10  C   UNL     1      -5.292   0.689  24.991  0.00  0.00    +0.061 C 
ATOM     11  C   UNL     1      -6.075   1.904  24.510  0.00  0.00    +0.130 C 
ATOM     12  C   UNL     1      -5.488   3.047  25.315  0.00  0.00    +0.117 C 
ENDROOT
BRANCH   9  14
ATOM      2  O   UNL     1      -2.843  -0.667  24.557  0.00  0.00    -0.336 OA
ATOM      5  N   UNL     1      -1.593   1.190  24.627  0.00  0.00    -0.190 NA
ATOM      8  N   UNL     1      -1.608  -1.007  23.991  0.00  0.00    -0.056 NA
ATOM     14  C   UNL     1      -2.749   0.643  24.904  0.00  0.00    +0.245 A 
ATOM     16  C   UNL     1      -0.925   0.138  24.069  0.00  0.00    +0.202 A 
BRANCH  16  18
ATOM     18  C   UNL     1       0.423   0.268  23.596  0.00  0.00    +0.023 A 
ATOM     20  C   UNL     1       0.991  -0.743  22.821  0.00  0.00    +0.015 A 
ATOM     21  C   UNL     1       1.166   1.405  23.912  0.00  0.00    +0.015 A 
ATOM     22  C   UNL     1       2.303  -0.617  22.363  0.00  0.00    +0.046 A 
ATOM     23  C   UNL     1       2.477   1.531  23.455  0.00  0.00    +0.046 A 
ATOM     24  C   UNL     1       3.046   0.520  22.681  0.00  0.00    +0.120 A 
BRANCH  24   3
ATOM      3  O   UNL     1       4.326   0.644  22.234  0.00  0.00    -0.495 OA
ATOM     25  C   UNL     1       5.365   0.224  23.117  0.00  0.00    +0.277 C 
ENDBRANCH  24   3
ENDBRANCH  16  18
ENDBRANCH   9  14
BRANCH  11   1
ATOM      1  O   UNL     1      -7.458   1.741  24.761  0.00  0.00    -0.390 OA
ATOM     26  H   UNL     1      -7.779   2.563  25.167  0.00  0.00    +0.210 HD
ENDBRANCH  11   1
BRANCH   4  13
ATOM     13  C   UNL     1      -3.318   3.502  26.289  0.00  0.00    +0.159 C 
BRANCH  13  15
ATOM      6  N   UNL     1      -0.984   3.746  25.411  0.00  0.00    -0.347 N 
ATOM      7  N   UNL     1      -2.276   5.543  25.234  0.00  0.00    -0.239 NA
ATOM     15  C   UNL     1      -2.215   4.295  25.641  0.00  0.00    +0.121 A 
ATOM     17  C   UNL     1      -0.211   4.705  24.819  0.00  0.00    +0.104 A 
ATOM     19  C   UNL     1      -1.030   5.805  24.720  0.00  0.00    +0.130 A 
ATOM     27  H   UNL     1      -0.696   2.804  25.639  0.00  0.00    +0.167 HD
ENDBRANCH  13  15
ENDBRANCH   4  13
TORSDOF 6
ENDMDL
MODEL 3
REMARK VINA RESULT:      -1.2      1.474      1.732
REMARK  Name = 26744180
REMARK  7 active torsions:
REMARK  status: ('A' for Active; 'I' for Inactive)
REMARK    1  A    between atoms: O_1  and  C_11
REMARK    2  A    between atoms: O_3  and  C_24
REMARK    3  A    between atoms: O_3  and  C_25
REMARK    4  A    between atoms: N_4  and  C_13
REMARK    5  A    between atoms: C_9  and  C_14
REMARK    6  A    between atoms: C_13  and  C_15
REMARK    7  A    between atoms: C_16  and  C_18
REMARK                            x       y       z     vdW  Elec       q    Type
REMARK                         _______ _______ _______ _____ _____    ______ ____
ROOT
ATOM      4  N   UNL     1      -3.519   1.613  25.024  0.00  0.00    -0.282 NA
ATOM      9  C   UNL     1      -2.543   2.224  24.099  0.00  0.00    +0.149 C 
ATOM     10  C   UNL     1      -2.171   3.569  24.750  0.00  0.00    +0.061 C 
ATOM     11  C   UNL     1      -3.022   3.644  26.012  0.00  0.00    +0.130 C 
ATOM     12  C   UNL     1      -4.185   2.718  25.713  0.00  0.00    +0.117 C 
ENDROOT
BRANCH   9  14
ATOM      2  O   UNL     1      -1.584   0.008  23.718  0.00  0.00    -0.336 OA
ATOM      5  N   UNL     1      -0.077   1.665  23.751  0.00  0.00    -0.190 NA
ATOM      8  N   UNL     1      -0.338  -0.594  23.503  0.00  0.00    -0.056 NA
ATOM     14  C   UNL     1      -1.340   1.338  23.854  0.00  0.00    +0.245 A 
ATOM     16  C   UNL     1       0.500   0.445  23.537  0.00  0.00    +0.202 A 
BRANCH  16  18
ATOM     18  C   UNL     1       1.915   0.303  23.359  0.00  0.00    +0.023 A 
ATOM     20  C   UNL     1       2.534  -0.918  23.630  0.00  0.00    +0.015 A 
ATOM     21  C   UNL     1       2.674   1.385  22.914  0.00  0.00    +0.015 A 
ATOM     22  C   UNL     1       3.911  -1.055  23.458  0.00  0.00    +0.046 A 
ATOM     23  C   UNL     1       4.051   1.249  22.742  0.00  0.00    +0.046 A 
ATOM     24  C   UNL     1       4.670   0.029  23.013  0.00  0.00    +0.120 A 
BRANCH  24   3
ATOM      3  O   UNL     1       6.014  -0.104  22.844  0.00  0.00    -0.495 OA
ATOM     25  C   UNL     1       6.754  -0.654  23.934  0.00  0.00    +0.277 C 
ENDBRANCH  24   3
ENDBRANCH  16  18
ENDBRANCH   9  14
BRANCH  11   1
ATOM      1  O   UNL     1      -3.454   4.970  26.247  0.00  0.00    -0.390 OA
ATOM     26  H   UNL     1      -4.234   4.925  26.826  0.00  0.00    +0.210 HD
ENDBRANCH  11   1
BRANCH   4  13
ATOM     13  C   UNL     1      -4.469   0.731  24.358  0.00  0.00    +0.159 C 
BRANCH  13  15
ATOM      6  N   UNL     1      -3.504  -1.155  25.696  0.00  0.00    -0.347 N 
ATOM      7  N   UNL     1      -4.341  -1.705  23.715  0.00  0.00    -0.239 NA
ATOM     15  C   UNL     1      -4.119  -0.720  24.555  0.00  0.00    +0.121 A 
ATOM     17  C   UNL     1      -3.322  -2.504  25.575  0.00  0.00    +0.104 A 
ATOM     19  C   UNL     1      -3.847  -2.821  24.344  0.00  0.00    +0.130 A 
ATOM     27  H   UNL     1      -3.231  -0.584  26.484  0.00  0.00    +0.167 HD
ENDBRANCH  13  15
ENDBRANCH   4  13
TORSDOF 6
ENDMDL
MODEL 4
REMARK VINA RESULT:       0.3      1.982      3.992
REMARK  Name = 26744180
REMARK  7 active torsions:
REMARK  status: ('A' for Active; 'I' for Inactive)
REMARK    1  A    between atoms: O_1  and  C_11
REMARK    2  A    between atoms: O_3  and  C_24
REMARK    3  A    between atoms: O_3  and  C_25
REMARK    4  A    between atoms: N_4  and  C_13
REMARK    5  A    between atoms: C_9  and  C_14
REMARK    6  A    between atoms: C_13  and  C_15
REMARK    7  A    between atoms: C_16  and  C_18
REMARK                            x       y       z     vdW  Elec       q    Type
REMARK                         _______ _______ _______ _____ _____    ______ ____
ROOT
ATOM      4  N   UNL     1      -3.699  -0.291  24.487  0.00  0.00    -0.282 NA
ATOM      9  C   UNL     1      -2.482  -1.068  24.797  0.00  0.00    +0.149 C 
ATOM     10  C   UNL     1      -2.723  -2.449  24.157  0.00  0.00    +0.061 C 
ATOM     11  C   UNL     1      -4.119  -2.364  23.552  0.00  0.00    +0.130 C 
ATOM     12  C   UNL     1      -4.785  -1.259  24.349  0.00  0.00    +0.117 C 
ENDROOT
BRANCH   9  14
ATOM      2  O   UNL     1      -1.353   0.866  23.816  0.00  0.00    -0.336 OA
ATOM      5  N   UNL     1       0.002  -0.866  24.242  0.00  0.00    -0.190 NA
ATOM      8  N   UNL     1      -0.072   1.265  23.414  0.00  0.00    -0.056 NA
ATOM     14  C   UNL     1      -1.220  -0.400  24.292  0.00  0.00    +0.245 A 
ATOM     16  C   UNL     1       0.671   0.192  23.696  0.00  0.00    +0.202 A 
BRANCH  16  18
ATOM     18  C   UNL     1       2.082   0.142  23.447  0.00  0.00    +0.023 A 
ATOM     20  C   UNL     1       2.733   1.246  22.896  0.00  0.00    +0.015 A 
ATOM     21  C   UNL     1       2.804  -1.010  23.755  0.00  0.00    +0.015 A 
ATOM     22  C   UNL     1       4.106   1.197  22.653  0.00  0.00    +0.046 A 
ATOM     23  C   UNL     1       4.177  -1.061  23.512  0.00  0.00    +0.046 A 
ATOM     24  C   UNL     1       4.827   0.043  22.961  0.00  0.00    +0.120 A 
BRANCH  24   3
ATOM      3  O   UNL     1       6.167  -0.006  22.724  0.00  0.00    -0.495 OA
ATOM     25  C   UNL     1       6.985  -0.586  23.739  0.00  0.00    +0.277 C 
ENDBRANCH  24   3
ENDBRANCH  16  18
ENDBRANCH   9  14
BRANCH  11   1
ATOM      1  O   UNL     1      -4.801  -3.596  23.691  0.00  0.00    -0.390 OA
ATOM     26  H   UNL     1      -4.671  -3.900  24.605  0.00  0.00    +0.210 HD
ENDBRANCH  11   1
BRANCH   4  13
ATOM     13  C   UNL     1      -3.998   0.730  25.483  0.00  0.00    +0.159 C 
BRANCH  13  15
ATOM      6  N   UNL     1      -2.675   2.858  25.488  0.00  0.00    -0.347 N 
ATOM      7  N   UNL     1      -4.341   2.759  24.024  0.00  0.00    -0.239 NA
ATOM     15  C   UNL     1      -3.700   2.115  24.973  0.00  0.00    +0.121 A 
ATOM     17  C   UNL     1      -2.662   4.053  24.826  0.00  0.00    +0.104 A 
ATOM     19  C   UNL     1      -3.698   3.969  23.927  0.00  0.00    +0.130 A 
ATOM     27  H   UNL     1      -2.043   2.578  26.226  0.00  0.00    +0.167 HD
ENDBRANCH  13  15
ENDBRANCH   4  13
TORSDOF 6
ENDMDL
