MODEL 1
REMARK VINA RESULT:      -2.1      0.000      0.000
REMARK  Name = 38027396
REMARK  16 active torsions:
REMARK  status: ('A' for Active; 'I' for Inactive)
REMARK    1  A    between atoms: S_1  and  N_5
REMARK    2  A    between atoms: S_1  and  C_22
REMARK    3  A    between atoms: N_5  and  C_16
REMARK    4  A    between atoms: N_6  and  C_23
REMARK    5  A    between atoms: N_7  and  C_24
REMARK    6  A    between atoms: N_7  and  C_30
REMARK    7  A    between atoms: N_7  and  C_31
REMARK    8  A    between atoms: C_9  and  C_13
REMARK    9  A    between atoms: C_10  and  C_16
REMARK   10  A    between atoms: C_12  and  C_17
REMARK   11  A    between atoms: C_13  and  C_18
REMARK   12  A    between atoms: C_13  and  C_19
REMARK   13  A    between atoms: C_14  and  C_20
REMARK   14  A    between atoms: C_17  and  C_21
REMARK   15  A    between atoms: C_23  and  C_24
REMARK   16  A    between atoms: C_29  and  C_32
REMARK                            x       y       z     vdW  Elec       q    Type
REMARK                         _______ _______ _______ _____ _____    ______ ____
ROOT
ATOM      9  C   UNL     1      -2.218   3.614  24.998  0.00  0.00    +0.000 C 
ATOM     10  C   UNL     1      -3.350   3.891  23.978  0.00  0.00    +0.030 C 
ATOM     11  C   UNL     1      -0.928   3.207  24.270  0.00  0.00    +0.012 C 
ATOM     12  C   UNL     1      -1.122   1.949  23.401  0.00  0.00    +0.023 C 
ATOM     14  C   UNL     1      -2.377   2.036  22.557  0.00  0.00    -0.073 C 
ATOM     15  C   UNL     1      -3.356   2.920  22.822  0.00  0.00    -0.023 C 
ATOM     20  C   UNL     1      -2.462   1.115  21.372  0.00  0.00    +0.039 C 
ENDROOT
BRANCH   9  13
ATOM     13  C   UNL     1      -1.948   4.828  25.892  0.00  0.00    -0.013 C 
ATOM     18  C   UNL     1      -1.712   6.073  25.041  0.00  0.00    +0.007 C 
ATOM     19  C   UNL     1      -3.107   5.046  26.858  0.00  0.00    +0.007 C 
ENDBRANCH   9  13
BRANCH  10  16
ATOM     16  C   UNL     1      -4.723   3.883  24.660  0.00  0.00    +0.113 C 
BRANCH  16   5
ATOM      5  N   UNL     1      -4.725   2.867  25.725  0.00  0.00    -0.189 NA
ATOM     33  H   UNL     1      -3.835   2.705  26.211  0.00  0.00    +0.148 HD
BRANCH   5   1
ATOM      1  S   UNL     1      -5.853   1.591  25.690  0.00  0.00    +0.058 S 
ATOM      3  O   UNL     1      -6.801   1.820  24.616  0.00  0.00    -0.153 OA
ATOM      4  O   UNL     1      -6.323   1.335  27.037  0.00  0.00    -0.153 OA
BRANCH   1  22
ATOM     22  C   UNL     1      -4.832   0.222  25.230  0.00  0.00    +0.105 A 
ATOM     25  C   UNL     1      -4.883  -0.281  23.929  0.00  0.00    +0.030 A 
ATOM     26  C   UNL     1      -3.974  -0.354  26.166  0.00  0.00    +0.030 A 
ATOM     27  C   UNL     1      -4.078  -1.359  23.566  0.00  0.00    +0.021 A 
ATOM     28  C   UNL     1      -3.168  -1.433  25.803  0.00  0.00    +0.021 A 
ATOM     29  C   UNL     1      -3.220  -1.936  24.503  0.00  0.00    +0.052 A 
BRANCH  29  32
ATOM      8  N   UNL     1      -1.725  -3.939  23.828  0.00  0.00    -0.191 NA
ATOM     32  C   UNL     1      -2.395  -3.042  24.131  0.00  0.00    +0.099 C 
ENDBRANCH  29  32
ENDBRANCH   1  22
ENDBRANCH   5   1
ENDBRANCH  16   5
ENDBRANCH  10  16
BRANCH  12  17
ATOM     17  C   UNL     1      -1.124   0.680  24.259  0.00  0.00    +0.103 C 
BRANCH  17  21
ATOM      2  O   UNL     1       0.290  -1.261  24.555  0.00  0.00    -0.276 OA
ATOM      6  N   UNL     1       0.906   0.383  23.032  0.00  0.00    -0.314 N 
ATOM     21  C   UNL     1       0.082  -0.190  23.990  0.00  0.00    +0.214 C 
ATOM     34  H   UNL     1       0.649   1.273  22.617  0.00  0.00    +0.149 HD
BRANCH   6  23
ATOM     23  C   UNL     1       2.133  -0.230  22.578  0.00  0.00    +0.119 C 
BRANCH  23  24
ATOM     24  C   UNL     1       3.332   0.669  22.849  0.00  0.00    +0.102 C 
BRANCH  24   7
ATOM      7  N   UNL     1       4.526  -0.134  23.073  0.00  0.00    -0.307 NA
ATOM     30  C   UNL     1       4.187  -1.384  23.759  0.00  0.00    +0.104 C 
ATOM     31  C   UNL     1       5.516   0.616  23.849  0.00  0.00    +0.104 C 
ENDBRANCH  24   7
ENDBRANCH  23  24
ENDBRANCH   6  23
ENDBRANCH  17  21
ENDBRANCH  12  17
TORSDOF 11
ENDMDL
MODEL 2
REMARK VINA RESULT:      -0.0      2.119      7.087
REMARK  Name = 38027396
REMARK  16 active torsions:
REMARK  status: ('A' for Active; 'I' for Inactive)
REMARK    1  A    between atoms: S_1  and  N_5
REMARK    2  A    between atoms: S_1  and  C_22
REMARK    3  A    between atoms: N_5  and  C_16
REMARK    4  A    between atoms: N_6  and  C_23
REMARK    5  A    between atoms: N_7  and  C_24
REMARK    6  A    between atoms: N_7  and  C_30
REMARK    7  A    between atoms: N_7  and  C_31
REMARK    8  A    between atoms: C_9  and  C_13
REMARK    9  A    between atoms: C_10  and  C_16
REMARK   10  A    between atoms: C_12  and  C_17
REMARK   11  A    between atoms: C_13  and  C_18
REMARK   12  A    between atoms: C_13  and  C_19
REMARK   13  A    between atoms: C_14  and  C_20
REMARK   14  A    between atoms: C_17  and  C_21
REMARK   15  A    between atoms: C_23  and  C_24
REMARK   16  A    between atoms: C_29  and  C_32
REMARK                            x       y       z     vdW  Elec       q    Type
REMARK                         _______ _______ _______ _____ _____    ______ ____
ROOT
ATOM      9  C   UNL     1      -3.390  -0.822  25.044  0.00  0.00    +0.000 C 
ATOM     10  C   UNL     1      -2.173  -0.179  24.335  0.00  0.00    +0.030 C 
ATOM     11  C   UNL     1      -4.686  -0.500  24.285  0.00  0.00    +0.012 C 
ATOM     12  C   UNL     1      -4.932   1.017  24.173  0.00  0.00    +0.023 C 
ATOM     14  C   UNL     1      -3.686   1.759  23.732  0.00  0.00    -0.073 C 
ATOM     15  C   UNL     1      -2.463   1.204  23.799  0.00  0.00    -0.023 C 
ATOM     20  C   UNL     1      -3.883   3.139  23.169  0.00  0.00    +0.039 C 
ENDROOT
BRANCH   9  13
ATOM     13  C   UNL     1      -3.232  -2.341  25.178  0.00  0.00    -0.013 C 
ATOM     18  C   UNL     1      -4.173  -3.060  24.215  0.00  0.00    +0.007 C 
ATOM     19  C   UNL     1      -1.785  -2.749  24.926  0.00  0.00    +0.007 C 
ENDBRANCH   9  13
BRANCH  10  16
ATOM     16  C   UNL     1      -0.957  -0.120  25.267  0.00  0.00    +0.113 C 
BRANCH  16   5
ATOM      5  N   UNL     1       0.233  -0.585  24.534  0.00  0.00    -0.189 NA
ATOM     33  H   UNL     1       0.966  -1.045  25.087  0.00  0.00    +0.148 HD
BRANCH   5   1
ATOM      1  S   UNL     1       0.694   0.174  23.081  0.00  0.00    +0.058 S 
ATOM      3  O   UNL     1       0.345   1.580  23.144  0.00  0.00    -0.153 OA
ATOM      4  O   UNL     1       0.256  -0.638  21.962  0.00  0.00    -0.153 OA
BRANCH   1  22
ATOM     22  C   UNL     1       2.456   0.046  23.153  0.00  0.00    +0.105 A 
ATOM     25  C   UNL     1       3.052  -1.134  23.599  0.00  0.00    +0.030 A 
ATOM     26  C   UNL     1       3.250   1.124  22.763  0.00  0.00    +0.030 A 
ATOM     27  C   UNL     1       4.442  -1.236  23.656  0.00  0.00    +0.021 A 
ATOM     28  C   UNL     1       4.640   1.023  22.819  0.00  0.00    +0.021 A 
ATOM     29  C   UNL     1       5.236  -0.157  23.266  0.00  0.00    +0.052 A 
BRANCH  29  32
ATOM      8  N   UNL     1       7.816  -0.344  23.369  0.00  0.00    -0.191 NA
ATOM     32  C   UNL     1       6.660  -0.260  23.324  0.00  0.00    +0.099 C 
ENDBRANCH  29  32
ENDBRANCH   1  22
ENDBRANCH   5   1
ENDBRANCH  16   5
ENDBRANCH  10  16
BRANCH  12  17
ATOM     17  C   UNL     1      -5.474   1.587  25.488  0.00  0.00    +0.103 C 
BRANCH  17  21
ATOM      2  O   UNL     1      -5.689   3.997  25.529  0.00  0.00    -0.276 OA
ATOM      6  N   UNL     1      -3.697   3.013  26.212  0.00  0.00    -0.314 N 
ATOM     21  C   UNL     1      -4.999   3.001  25.733  0.00  0.00    +0.214 C 
ATOM     34  H   UNL     1      -3.206   2.136  26.353  0.00  0.00    +0.149 HD
BRANCH   6  23
ATOM     23  C   UNL     1      -2.986   4.229  26.533  0.00  0.00    +0.119 C 
BRANCH  23  24
ATOM     24  C   UNL     1      -2.337   4.832  25.296  0.00  0.00    +0.102 C 
BRANCH  24   7
ATOM      7  N   UNL     1      -0.895   4.635  25.333  0.00  0.00    -0.307 NA
ATOM     30  C   UNL     1      -0.314   4.823  24.001  0.00  0.00    +0.104 C 
ATOM     31  C   UNL     1      -0.568   3.302  25.844  0.00  0.00    +0.104 C 
ENDBRANCH  24   7
ENDBRANCH  23  24
ENDBRANCH   6  23
ENDBRANCH  17  21
ENDBRANCH  12  17
TORSDOF 11
ENDMDL
MODEL 3
REMARK VINA RESULT:       1.2      3.035      4.269
REMARK  Name = 38027396
REMARK  16 active torsions:
REMARK  status: ('A' for Active; 'I' for Inactive)
REMARK    1  A    between atoms: S_1  and  N_5
REMARK    2  A    between atoms: S_1  and  C_22
REMARK    3  A    between atoms: N_5  and  C_16
REMARK    4  A    between atoms: N_6  and  C_23
REMARK    5  A    between atoms: N_7  and  C_24
REMARK    6  A    between atoms: N_7  and  C_30
REMARK    7  A    between atoms: N_7  and  C_31
REMARK    8  A    between atoms: C_9  and  C_13
REMARK    9  A    between atoms: C_10  and  C_16
REMARK   10  A    between atoms: C_12  and  C_17
REMARK   11  A    between atoms: C_13  and  C_18
REMARK   12  A    between atoms: C_13  and  C_19
REMARK   13  A    between atoms: C_14  and  C_20
REMARK   14  A    between atoms: C_17  and  C_21
REMARK   15  A    between atoms: C_23  and  C_24
REMARK   16  A    between atoms: C_29  and  C_32
REMARK                            x       y       z     vdW  Elec       q    Type
REMARK                         _______ _______ _______ _____ _____    ______ ____
ROOT
ATOM      9  C   UNL     1      -3.771   2.780  25.249  0.00  0.00    +0.000 C 
ATOM     10  C   UNL     1      -4.711   2.036  24.268  0.00  0.00    +0.030 C 
ATOM     11  C   UNL     1      -2.957   3.849  24.506  0.00  0.00    +0.012 C 
ATOM     12  C   UNL     1      -2.102   3.248  23.374  0.00  0.00    +0.023 C 
ATOM     14  C   UNL     1      -2.901   2.287  22.516  0.00  0.00    -0.073 C 
ATOM     15  C   UNL     1      -4.071   1.767  22.926  0.00  0.00    -0.023 C 
ATOM     20  C   UNL     1      -2.345   1.973  21.155  0.00  0.00    +0.039 C 
ENDROOT
BRANCH   9  13
ATOM     13  C   UNL     1      -4.549   3.427  26.400  0.00  0.00    -0.013 C 
ATOM     18  C   UNL     1      -3.658   4.405  27.160  0.00  0.00    +0.007 C 
ATOM     19  C   UNL     1      -5.795   4.129  25.871  0.00  0.00    +0.007 C 
ENDBRANCH   9  13
BRANCH  10  16
ATOM     16  C   UNL     1      -5.210   0.718  24.870  0.00  0.00    +0.113 C 
BRANCH  16   5
ATOM      5  N   UNL     1      -4.086   0.036  25.533  0.00  0.00    -0.189 NA
ATOM     33  H   UNL     1      -3.408   0.632  26.024  0.00  0.00    +0.148 HD
BRANCH   5   1
ATOM      1  S   UNL     1      -3.546  -1.476  24.965  0.00  0.00    +0.058 S 
ATOM      3  O   UNL     1      -4.340  -1.866  23.816  0.00  0.00    -0.153 OA
ATOM      4  O   UNL     1      -3.394  -2.379  26.089  0.00  0.00    -0.153 OA
BRANCH   1  22
ATOM     22  C   UNL     1      -1.919  -1.084  24.393  0.00  0.00    +0.105 A 
ATOM     25  C   UNL     1      -1.710  -0.756  23.054  0.00  0.00    +0.030 A 
ATOM     26  C   UNL     1      -0.844  -1.102  25.282  0.00  0.00    +0.030 A 
ATOM     27  C   UNL     1      -0.427  -0.446  22.602  0.00  0.00    +0.021 A 
ATOM     28  C   UNL     1       0.439  -0.792  24.831  0.00  0.00    +0.021 A 
ATOM     29  C   UNL     1       0.648  -0.465  23.491  0.00  0.00    +0.052 A 
BRANCH  29  32
ATOM      8  N   UNL     1       3.030   0.111  22.656  0.00  0.00    -0.191 NA
ATOM     32  C   UNL     1       1.962  -0.148  23.030  0.00  0.00    +0.099 C 
ENDBRANCH  29  32
ENDBRANCH   1  22
ENDBRANCH   5   1
ENDBRANCH  16   5
ENDBRANCH  10  16
BRANCH  12  17
ATOM     17  C   UNL     1      -0.845   2.572  23.930  0.00  0.00    +0.103 C 
BRANCH  17  21
ATOM      2  O   UNL     1      -0.340   4.542  25.241  0.00  0.00    -0.276 OA
ATOM      6  N   UNL     1       0.340   2.455  26.003  0.00  0.00    -0.314 N 
ATOM     21  C   UNL     1      -0.269   3.324  25.109  0.00  0.00    +0.214 C 
ATOM     34  H   UNL     1       0.346   1.459  25.811  0.00  0.00    +0.149 HD
BRANCH   6  23
ATOM     23  C   UNL     1       0.977   2.898  27.222  0.00  0.00    +0.119 C 
BRANCH  23  24
ATOM     24  C   UNL     1       0.585   2.019  28.401  0.00  0.00    +0.102 C 
BRANCH  24   7
ATOM      7  N   UNL     1       1.569   2.134  29.469  0.00  0.00    -0.307 NA
ATOM     30  C   UNL     1       0.965   2.725  30.666  0.00  0.00    +0.104 C 
ATOM     31  C   UNL     1       2.714   2.936  29.032  0.00  0.00    +0.104 C 
ENDBRANCH  24   7
ENDBRANCH  23  24
ENDBRANCH   6  23
ENDBRANCH  17  21
ENDBRANCH  12  17
TORSDOF 11
ENDMDL
MODEL 4
REMARK VINA RESULT:       1.8      2.383      3.034
REMARK  Name = 38027396
REMARK  16 active torsions:
REMARK  status: ('A' for Active; 'I' for Inactive)
REMARK    1  A    between atoms: S_1  and  N_5
REMARK    2  A    between atoms: S_1  and  C_22
REMARK    3  A    between atoms: N_5  and  C_16
REMARK    4  A    between atoms: N_6  and  C_23
REMARK    5  A    between atoms: N_7  and  C_24
REMARK    6  A    between atoms: N_7  and  C_30
REMARK    7  A    between atoms: N_7  and  C_31
REMARK    8  A    between atoms: C_9  and  C_13
REMARK    9  A    between atoms: C_10  and  C_16
REMARK   10  A    between atoms: C_12  and  C_17
REMARK   11  A    between atoms: C_13  and  C_18
REMARK   12  A    between atoms: C_13  and  C_19
REMARK   13  A    between atoms: C_14  and  C_20
REMARK   14  A    between atoms: C_17  and  C_21
REMARK   15  A    between atoms: C_23  and  C_24
REMARK   16  A    between atoms: C_29  and  C_32
REMARK                            x       y       z     vdW  Elec       q    Type
REMARK                         _______ _______ _______ _____ _____    ______ ____
ROOT
ATOM      9  C   UNL     1      -1.726   3.843  24.683  0.00  0.00    +0.000 C 
ATOM     10  C   UNL     1      -3.201   3.812  24.211  0.00  0.00    +0.030 C 
ATOM     11  C   UNL     1      -0.780   3.546  23.509  0.00  0.00    +0.012 C 
ATOM     12  C   UNL     1      -1.059   2.171  22.871  0.00  0.00    +0.023 C 
ATOM     14  C   UNL     1      -2.539   1.957  22.619  0.00  0.00    -0.073 C 
ATOM     15  C   UNL     1      -3.480   2.709  23.217  0.00  0.00    -0.023 C 
ATOM     20  C   UNL     1      -2.910   0.889  21.629  0.00  0.00    +0.039 C 
ENDROOT
BRANCH   9  13
ATOM     13  C   UNL     1      -1.360   5.189  25.315  0.00  0.00    -0.013 C 
ATOM     18  C   UNL     1      -0.014   5.678  24.786  0.00  0.00    +0.007 C 
ATOM     19  C   UNL     1      -2.452   6.218  25.046  0.00  0.00    +0.007 C 
ENDBRANCH   9  13
BRANCH  10  16
ATOM     16  C   UNL     1      -4.160   3.683  25.400  0.00  0.00    +0.113 C 
BRANCH  16   5
ATOM      5  N   UNL     1      -5.475   3.239  24.911  0.00  0.00    -0.189 NA
ATOM     33  H   UNL     1      -6.098   3.965  24.535  0.00  0.00    +0.148 HD
BRANCH   5   1
ATOM      1  S   UNL     1      -6.190   1.827  25.539  0.00  0.00    +0.058 S 
ATOM      3  O   UNL     1      -7.353   1.486  24.742  0.00  0.00    -0.153 OA
ATOM      4  O   UNL     1      -6.302   1.951  26.979  0.00  0.00    -0.153 OA
BRANCH   1  22
ATOM     22  C   UNL     1      -4.939   0.619  25.220  0.00  0.00    +0.105 A 
ATOM     25  C   UNL     1      -3.735   0.659  25.924  0.00  0.00    +0.030 A 
ATOM     26  C   UNL     1      -5.155  -0.375  24.266  0.00  0.00    +0.030 A 
ATOM     27  C   UNL     1      -2.748  -0.294  25.675  0.00  0.00    +0.021 A 
ATOM     28  C   UNL     1      -4.169  -1.328  24.016  0.00  0.00    +0.021 A 
ATOM     29  C   UNL     1      -2.965  -1.287  24.719  0.00  0.00    +0.052 A 
BRANCH  29  32
ATOM      8  N   UNL     1      -1.134  -3.057  24.252  0.00  0.00    -0.191 NA
ATOM     32  C   UNL     1      -1.954  -2.264  24.462  0.00  0.00    +0.099 C 
ENDBRANCH  29  32
ENDBRANCH   1  22
ENDBRANCH   5   1
ENDBRANCH  16   5
ENDBRANCH  10  16
BRANCH  12  17
ATOM     17  C   UNL     1      -0.477   1.038  23.721  0.00  0.00    +0.103 C 
BRANCH  17  21
ATOM      2  O   UNL     1       1.848   1.489  24.213  0.00  0.00    -0.276 OA
ATOM      6  N   UNL     1       0.229   1.948  25.816  0.00  0.00    -0.314 N 
ATOM     21  C   UNL     1       0.676   1.506  24.579  0.00  0.00    +0.214 C 
ATOM     34  H   UNL     1      -0.763   1.927  26.028  0.00  0.00    +0.149 HD
BRANCH   6  23
ATOM     23  C   UNL     1       1.115   2.451  26.841  0.00  0.00    +0.119 C 
BRANCH  23  24
ATOM     24  C   UNL     1       0.485   2.337  28.221  0.00  0.00    +0.102 C 
BRANCH  24   7
ATOM      7  N   UNL     1       1.515   2.173  29.237  0.00  0.00    -0.307 NA
ATOM     30  C   UNL     1       1.008   2.563  30.555  0.00  0.00    +0.104 C 
ATOM     31  C   UNL     1       2.704   2.959  28.900  0.00  0.00    +0.104 C 
ENDBRANCH  24   7
ENDBRANCH  23  24
ENDBRANCH   6  23
ENDBRANCH  17  21
ENDBRANCH  12  17
TORSDOF 11
ENDMDL
