MODEL 1
REMARK VINA RESULT:      -1.8      0.000      0.000
REMARK  Name = 75367643
REMARK  7 active torsions:
REMARK  status: ('A' for Active; 'I' for Inactive)
REMARK    1  A    between atoms: O_5  and  C_10
REMARK    2  A    between atoms: O_5  and  C_18
REMARK    3  A    between atoms: O_7  and  C_24
REMARK    4  A    between atoms: O_7  and  C_29
REMARK    5  A    between atoms: C_15  and  C_16
REMARK    6  A    between atoms: C_16  and  C_17
REMARK    7  A    between atoms: C_26  and  C_28
REMARK                            x       y       z     vdW  Elec       q    Type
REMARK                         _______ _______ _______ _____ _____    ______ ____
ROOT
ATOM      4  O   UNL     1      -6.291   4.469  25.366  0.00  0.00    -0.375 OA
ATOM      6  O   UNL     1      -1.459   5.341  25.319  0.00  0.00    -0.275 OA
ATOM      8  N   UNL     1      -3.214   3.820  25.124  0.00  0.00    -0.295 N 
ATOM     10  C   UNL     1      -5.245   2.266  25.224  0.00  0.00    +0.218 C 
ATOM     11  C   UNL     1      -3.736   2.474  25.379  0.00  0.00    +0.154 C 
ATOM     12  C   UNL     1      -4.063   4.775  24.406  0.00  0.00    +0.136 C 
ATOM     13  C   UNL     1      -6.072   3.244  26.055  0.00  0.00    +0.206 C 
ATOM     14  C   UNL     1      -5.158   5.330  25.308  0.00  0.00    +0.179 C 
ATOM     15  C   UNL     1      -1.934   4.222  25.527  0.00  0.00    +0.220 C 
ENDROOT
BRANCH  10   5
ATOM      5  O   UNL     1      -5.553   0.945  25.672  0.00  0.00    -0.469 OA
BRANCH   5  18
ATOM      9  N   UNL     1      -3.950  -0.623  26.259  0.00  0.00    -0.221 NA
ATOM     18  C   UNL     1      -4.692  -0.046  25.288  0.00  0.00    +0.215 A 
ATOM     21  C   UNL     1      -4.628  -0.398  23.949  0.00  0.00    +0.068 A 
ATOM     25  C   UNL     1      -3.745  -1.408  23.584  0.00  0.00    +0.019 A 
ATOM     26  C   UNL     1      -2.964  -2.026  24.554  0.00  0.00    +0.073 A 
ATOM     27  C   UNL     1      -3.103  -1.600  25.865  0.00  0.00    +0.127 A 
BRANCH  26  28
ATOM      1  F   UNL     1      -1.082  -2.739  23.260  0.00  0.00    -0.166 F 
ATOM      2  F   UNL     1      -2.610  -4.222  23.674  0.00  0.00    -0.166 F 
ATOM      3  F   UNL     1      -1.288  -3.554  25.266  0.00  0.00    -0.166 F 
ATOM     28  C   UNL     1      -2.010  -3.109  24.195  0.00  0.00    +0.419 C 
ENDBRANCH  26  28
ENDBRANCH   5  18
ENDBRANCH  10   5
BRANCH  15  16
ATOM     16  C   UNL     1      -1.109   3.198  26.270  0.00  0.00    +0.131 C 
BRANCH  16  17
ATOM     17  C   UNL     1      -0.449   2.260  25.313  0.00  0.00    -0.038 A 
ATOM     19  C   UNL     1       0.492   2.740  24.402  0.00  0.00    +0.007 A 
ATOM     20  C   UNL     1      -0.773   0.903  25.330  0.00  0.00    +0.007 A 
ATOM     22  C   UNL     1       1.109   1.863  23.509  0.00  0.00    +0.046 A 
ATOM     23  C   UNL     1      -0.158   0.027  24.436  0.00  0.00    +0.046 A 
ATOM     24  C   UNL     1       0.784   0.507  23.526  0.00  0.00    +0.120 A 
BRANCH  24   7
ATOM      7  O   UNL     1       1.386  -0.348  22.655  0.00  0.00    -0.495 OA
ATOM     29  C   UNL     1       2.691   0.004  22.197  0.00  0.00    +0.277 C 
ENDBRANCH  24   7
ENDBRANCH  16  17
ENDBRANCH  15  16
TORSDOF 6
ENDMDL
MODEL 2
REMARK VINA RESULT:      -1.4      2.849      5.504
REMARK  Name = 75367643
REMARK  7 active torsions:
REMARK  status: ('A' for Active; 'I' for Inactive)
REMARK    1  A    between atoms: O_5  and  C_10
REMARK    2  A    between atoms: O_5  and  C_18
REMARK    3  A    between atoms: O_7  and  C_24
REMARK    4  A    between atoms: O_7  and  C_29
REMARK    5  A    between atoms: C_15  and  C_16
REMARK    6  A    between atoms: C_16  and  C_17
REMARK    7  A    between atoms: C_26  and  C_28
REMARK                            x       y       z     vdW  Elec       q    Type
REMARK                         _______ _______ _______ _____ _____    ______ ____
ROOT
ATOM      4  O   UNL     1      -0.805   4.576  24.611  0.00  0.00    -0.375 OA
ATOM      6  O   UNL     1      -5.322   3.765  26.354  0.00  0.00    -0.275 OA
ATOM      8  N   UNL     1      -3.330   2.909  25.500  0.00  0.00    -0.295 N 
ATOM     10  C   UNL     1      -1.194   2.187  24.291  0.00  0.00    +0.218 C 
ATOM     11  C   UNL     1      -2.654   1.914  24.661  0.00  0.00    +0.154 C 
ATOM     12  C   UNL     1      -2.512   3.889  26.221  0.00  0.00    +0.136 C 
ATOM     13  C   UNL     1      -0.986   3.552  23.641  0.00  0.00    +0.206 C 
ATOM     14  C   UNL     1      -1.995   4.974  25.285  0.00  0.00    +0.179 C 
ATOM     15  C   UNL     1      -4.722   2.950  25.649  0.00  0.00    +0.220 C 
ENDROOT
BRANCH  10   5
ATOM      5  O   UNL     1      -0.788   1.190  23.350  0.00  0.00    -0.469 OA
BRANCH   5  18
ATOM      9  N   UNL     1       1.387   1.821  23.846  0.00  0.00    -0.221 NA
ATOM     18  C   UNL     1       0.550   0.916  23.292  0.00  0.00    +0.215 A 
ATOM     21  C   UNL     1       0.969  -0.254  22.678  0.00  0.00    +0.068 A 
ATOM     25  C   UNL     1       2.335  -0.511  22.631  0.00  0.00    +0.019 A 
ATOM     26  C   UNL     1       3.227   0.396  23.190  0.00  0.00    +0.073 A 
ATOM     27  C   UNL     1       2.707   1.537  23.780  0.00  0.00    +0.127 A 
BRANCH  26  28
ATOM      1  F   UNL     1       5.062  -1.061  23.674  0.00  0.00    -0.166 F 
ATOM      2  F   UNL     1       5.424   1.070  23.855  0.00  0.00    -0.166 F 
ATOM      3  F   UNL     1       5.204   0.172  21.888  0.00  0.00    -0.166 F 
ATOM     28  C   UNL     1       4.694   0.150  23.155  0.00  0.00    +0.419 C 
ENDBRANCH  26  28
ENDBRANCH   5  18
ENDBRANCH  10   5
BRANCH  15  16
ATOM     16  C   UNL     1      -5.512   1.922  24.875  0.00  0.00    +0.131 C 
BRANCH  16  17
ATOM     17  C   UNL     1      -4.788   0.615  24.846  0.00  0.00    -0.038 A 
ATOM     19  C   UNL     1      -4.539  -0.019  23.629  0.00  0.00    +0.007 A 
ATOM     20  C   UNL     1      -4.359   0.028  26.038  0.00  0.00    +0.007 A 
ATOM     22  C   UNL     1      -3.862  -1.239  23.602  0.00  0.00    +0.046 A 
ATOM     23  C   UNL     1      -3.683  -1.191  26.011  0.00  0.00    +0.046 A 
ATOM     24  C   UNL     1      -3.434  -1.824  24.793  0.00  0.00    +0.120 A 
BRANCH  24   7
ATOM      7  O   UNL     1      -2.773  -3.014  24.767  0.00  0.00    -0.495 OA
ATOM     29  C   UNL     1      -1.395  -2.983  24.398  0.00  0.00    +0.277 C 
ENDBRANCH  24   7
ENDBRANCH  16  17
ENDBRANCH  15  16
TORSDOF 6
ENDMDL
MODEL 3
REMARK VINA RESULT:      -0.3      2.891      5.848
REMARK  Name = 75367643
REMARK  7 active torsions:
REMARK  status: ('A' for Active; 'I' for Inactive)
REMARK    1  A    between atoms: O_5  and  C_10
REMARK    2  A    between atoms: O_5  and  C_18
REMARK    3  A    between atoms: O_7  and  C_24
REMARK    4  A    between atoms: O_7  and  C_29
REMARK    5  A    between atoms: C_15  and  C_16
REMARK    6  A    between atoms: C_16  and  C_17
REMARK    7  A    between atoms: C_26  and  C_28
REMARK                            x       y       z     vdW  Elec       q    Type
REMARK                         _______ _______ _______ _____ _____    ______ ____
ROOT
ATOM      4  O   UNL     1      -1.575  -1.006  25.991  0.00  0.00    -0.375 OA
ATOM      6  O   UNL     1      -6.257   0.459  26.176  0.00  0.00    -0.275 OA
ATOM      8  N   UNL     1      -4.269   0.279  24.973  0.00  0.00    -0.295 N 
ATOM     10  C   UNL     1      -1.935   0.245  23.925  0.00  0.00    +0.218 C 
ATOM     11  C   UNL     1      -3.330   0.869  24.013  0.00  0.00    +0.154 C 
ATOM     12  C   UNL     1      -3.973  -1.050  25.516  0.00  0.00    +0.136 C 
ATOM     13  C   UNL     1      -1.226   0.172  25.274  0.00  0.00    +0.206 C 
ATOM     14  C   UNL     1      -2.876  -0.986  26.570  0.00  0.00    +0.179 C 
ATOM     15  C   UNL     1      -5.441   0.930  25.380  0.00  0.00    +0.220 C 
ENDROOT
BRANCH  10   5
ATOM      5  O   UNL     1      -1.144   1.064  23.061  0.00  0.00    -0.469 OA
BRANCH   5  18
ATOM      9  N   UNL     1       0.982   1.713  23.719  0.00  0.00    -0.221 NA
ATOM     18  C   UNL     1       0.203   0.827  23.060  0.00  0.00    +0.215 A 
ATOM     21  C   UNL     1       0.688  -0.289  22.396  0.00  0.00    +0.068 A 
ATOM     25  C   UNL     1       2.061  -0.508  22.409  0.00  0.00    +0.019 A 
ATOM     26  C   UNL     1       2.895   0.382  23.076  0.00  0.00    +0.073 A 
ATOM     27  C   UNL     1       2.311   1.467  23.709  0.00  0.00    +0.127 A 
BRANCH  26  28
ATOM      1  F   UNL     1       5.030   1.059  23.915  0.00  0.00    -0.166 F 
ATOM      2  F   UNL     1       4.968   0.294  21.886  0.00  0.00    -0.166 F 
ATOM      3  F   UNL     1       4.718  -1.064  23.565  0.00  0.00    -0.166 F 
ATOM     28  C   UNL     1       4.368   0.175  23.108  0.00  0.00    +0.419 C 
ENDBRANCH  26  28
ENDBRANCH   5  18
ENDBRANCH  10   5
BRANCH  15  16
ATOM     16  C   UNL     1      -5.688   2.300  24.795  0.00  0.00    +0.131 C 
BRANCH  16  17
ATOM     17  C   UNL     1      -4.463   3.150  24.910  0.00  0.00    -0.038 A 
ATOM     19  C   UNL     1      -3.835   3.630  23.761  0.00  0.00    +0.007 A 
ATOM     20  C   UNL     1      -3.948   3.462  26.169  0.00  0.00    +0.007 A 
ATOM     22  C   UNL     1      -2.693   4.423  23.870  0.00  0.00    +0.046 A 
ATOM     23  C   UNL     1      -2.805   4.254  26.277  0.00  0.00    +0.046 A 
ATOM     24  C   UNL     1      -2.178   4.735  25.128  0.00  0.00    +0.120 A 
BRANCH  24   7
ATOM      7  O   UNL     1      -1.064   5.510  25.234  0.00  0.00    -0.495 OA
ATOM     29  C   UNL     1       0.035   5.186  24.383  0.00  0.00    +0.277 C 
ENDBRANCH  24   7
ENDBRANCH  16  17
ENDBRANCH  15  16
TORSDOF 6
ENDMDL
MODEL 4
REMARK VINA RESULT:       0.7      2.758      5.517
REMARK  Name = 75367643
REMARK  7 active torsions:
REMARK  status: ('A' for Active; 'I' for Inactive)
REMARK    1  A    between atoms: O_5  and  C_10
REMARK    2  A    between atoms: O_5  and  C_18
REMARK    3  A    between atoms: O_7  and  C_24
REMARK    4  A    between atoms: O_7  and  C_29
REMARK    5  A    between atoms: C_15  and  C_16
REMARK    6  A    between atoms: C_16  and  C_17
REMARK    7  A    between atoms: C_26  and  C_28
REMARK                            x       y       z     vdW  Elec       q    Type
REMARK                         _______ _______ _______ _____ _____    ______ ____
ROOT
ATOM      4  O   UNL     1      -3.759  -2.164  24.391  0.00  0.00    -0.375 OA
ATOM      6  O   UNL     1      -6.981   1.537  24.568  0.00  0.00    -0.275 OA
ATOM      8  N   UNL     1      -4.763   0.820  24.571  0.00  0.00    -0.295 N 
ATOM     10  C   UNL     1      -2.421  -0.172  24.844  0.00  0.00    +0.218 C 
ATOM     11  C   UNL     1      -3.398   0.983  25.078  0.00  0.00    +0.154 C 
ATOM     12  C   UNL     1      -5.023  -0.232  23.584  0.00  0.00    +0.136 C 
ATOM     13  C   UNL     1      -2.944  -1.511  25.356  0.00  0.00    +0.206 C 
ATOM     14  C   UNL     1      -5.061  -1.607  24.238  0.00  0.00    +0.179 C 
ATOM     15  C   UNL     1      -5.824   1.638  24.982  0.00  0.00    +0.220 C 
ENDROOT
BRANCH  10   5
ATOM      5  O   UNL     1      -1.215   0.124  25.552  0.00  0.00    -0.469 OA
BRANCH   5  18
ATOM      9  N   UNL     1       0.423  -0.817  24.208  0.00  0.00    -0.221 NA
ATOM     18  C   UNL     1      -0.088   0.288  24.795  0.00  0.00    +0.215 A 
ATOM     21  C   UNL     1       0.460   1.555  24.673  0.00  0.00    +0.068 A 
ATOM     25  C   UNL     1       1.606   1.696  23.898  0.00  0.00    +0.019 A 
ATOM     26  C   UNL     1       2.161   0.583  23.279  0.00  0.00    +0.073 A 
ATOM     27  C   UNL     1       1.537  -0.641  23.464  0.00  0.00    +0.127 A 
BRANCH  26  28
ATOM      1  F   UNL     1       3.188   0.395  21.126  0.00  0.00    -0.166 F 
ATOM      2  F   UNL     1       4.408  -0.115  22.845  0.00  0.00    -0.166 F 
ATOM      3  F   UNL     1       3.910   1.963  22.448  0.00  0.00    -0.166 F 
ATOM     28  C   UNL     1       3.387   0.701  22.444  0.00  0.00    +0.419 C 
ENDBRANCH  26  28
ENDBRANCH   5  18
ENDBRANCH  10   5
BRANCH  15  16
ATOM     16  C   UNL     1      -5.499   2.699  26.007  0.00  0.00    +0.131 C 
BRANCH  16  17
ATOM     17  C   UNL     1      -4.220   3.391  25.659  0.00  0.00    -0.038 A 
ATOM     19  C   UNL     1      -4.006   3.849  24.359  0.00  0.00    +0.007 A 
ATOM     20  C   UNL     1      -3.241   3.579  26.635  0.00  0.00    +0.007 A 
ATOM     22  C   UNL     1      -2.813   4.496  24.035  0.00  0.00    +0.046 A 
ATOM     23  C   UNL     1      -2.048   4.225  26.310  0.00  0.00    +0.046 A 
ATOM     24  C   UNL     1      -1.835   4.684  25.010  0.00  0.00    +0.120 A 
BRANCH  24   7
ATOM      7  O   UNL     1      -0.671   5.315  24.694  0.00  0.00    -0.495 OA
ATOM     29  C   UNL     1      -0.028   4.923  23.483  0.00  0.00    +0.277 C 
ENDBRANCH  24   7
ENDBRANCH  16  17
ENDBRANCH  15  16
TORSDOF 6
ENDMDL
MODEL 5
REMARK VINA RESULT:       0.8      3.338      5.436
REMARK  Name = 75367643
REMARK  7 active torsions:
REMARK  status: ('A' for Active; 'I' for Inactive)
REMARK    1  A    between atoms: O_5  and  C_10
REMARK    2  A    between atoms: O_5  and  C_18
REMARK    3  A    between atoms: O_7  and  C_24
REMARK    4  A    between atoms: O_7  and  C_29
REMARK    5  A    between atoms: C_15  and  C_16
REMARK    6  A    between atoms: C_16  and  C_17
REMARK    7  A    between atoms: C_26  and  C_28
REMARK                            x       y       z     vdW  Elec       q    Type
REMARK                         _______ _______ _______ _____ _____    ______ ____
ROOT
ATOM      4  O   UNL     1      -4.886  -2.519  23.718  0.00  0.00    -0.375 OA
ATOM      6  O   UNL     1      -0.523  -2.136  25.937  0.00  0.00    -0.275 OA
ATOM      8  N   UNL     1      -2.645  -1.256  25.542  0.00  0.00    -0.295 N 
ATOM     10  C   UNL     1      -4.894  -0.314  24.768  0.00  0.00    +0.218 C 
ATOM     11  C   UNL     1      -3.489  -0.077  25.328  0.00  0.00    +0.154 C 
ATOM     12  C   UNL     1      -3.278  -2.577  25.560  0.00  0.00    +0.136 C 
ATOM     13  C   UNL     1      -4.893  -1.119  23.471  0.00  0.00    +0.206 C 
ATOM     14  C   UNL     1      -3.634  -3.040  24.153  0.00  0.00    +0.179 C 
ATOM     15  C   UNL     1      -1.261  -1.167  25.743  0.00  0.00    +0.220 C 
ENDROOT
BRANCH  10   5
ATOM      5  O   UNL     1      -5.474   0.962  24.488  0.00  0.00    -0.469 OA
BRANCH   5  18
ATOM      9  N   UNL     1      -3.635   2.139  23.709  0.00  0.00    -0.221 NA
ATOM     18  C   UNL     1      -4.648   2.046  24.599  0.00  0.00    +0.215 A 
ATOM     21  C   UNL     1      -4.888   2.973  25.601  0.00  0.00    +0.068 A 
ATOM     25  C   UNL     1      -4.034   4.066  25.694  0.00  0.00    +0.019 A 
ATOM     26  C   UNL     1      -2.981   4.197  24.796  0.00  0.00    +0.073 A 
ATOM     27  C   UNL     1      -2.826   3.215  23.831  0.00  0.00    +0.127 A 
BRANCH  26  28
ATOM      1  F   UNL     1      -2.156   6.075  26.028  0.00  0.00    -0.166 F 
ATOM      2  F   UNL     1      -2.225   6.268  23.868  0.00  0.00    -0.166 F 
ATOM      3  F   UNL     1      -0.737   4.983  24.795  0.00  0.00    -0.166 F 
ATOM     28  C   UNL     1      -2.049   5.355  24.870  0.00  0.00    +0.419 C 
ENDBRANCH  26  28
ENDBRANCH   5  18
ENDBRANCH  10   5
BRANCH  15  16
ATOM     16  C   UNL     1      -0.663   0.219  25.704  0.00  0.00    +0.131 C 
BRANCH  16  17
ATOM     17  C   UNL     1       0.362   0.319  24.621  0.00  0.00    -0.038 A 
ATOM     19  C   UNL     1       1.070   1.507  24.437  0.00  0.00    +0.007 A 
ATOM     20  C   UNL     1       0.612  -0.776  23.793  0.00  0.00    +0.007 A 
ATOM     22  C   UNL     1       2.027   1.600  23.426  0.00  0.00    +0.046 A 
ATOM     23  C   UNL     1       1.567  -0.682  22.782  0.00  0.00    +0.046 A 
ATOM     24  C   UNL     1       2.276   0.505  22.599  0.00  0.00    +0.120 A 
BRANCH  24   7
ATOM      7  O   UNL     1       3.210   0.596  21.613  0.00  0.00    -0.495 OA
ATOM     29  C   UNL     1       4.577   0.473  22.001  0.00  0.00    +0.277 C 
ENDBRANCH  24   7
ENDBRANCH  16  17
ENDBRANCH  15  16
TORSDOF 6
ENDMDL
MODEL 6
REMARK VINA RESULT:       0.8      2.346      4.853
REMARK  Name = 75367643
REMARK  7 active torsions:
REMARK  status: ('A' for Active; 'I' for Inactive)
REMARK    1  A    between atoms: O_5  and  C_10
REMARK    2  A    between atoms: O_5  and  C_18
REMARK    3  A    between atoms: O_7  and  C_24
REMARK    4  A    between atoms: O_7  and  C_29
REMARK    5  A    between atoms: C_15  and  C_16
REMARK    6  A    between atoms: C_16  and  C_17
REMARK    7  A    between atoms: C_26  and  C_28
REMARK                            x       y       z     vdW  Elec       q    Type
REMARK                         _______ _______ _______ _____ _____    ______ ____
ROOT
ATOM      4  O   UNL     1      -2.736   4.019  23.125  0.00  0.00    -0.375 OA
ATOM      6  O   UNL     1      -6.942   2.267  24.953  0.00  0.00    -0.275 OA
ATOM      8  N   UNL     1      -4.684   2.757  25.260  0.00  0.00    -0.295 N 
ATOM     10  C   UNL     1      -2.149   3.100  25.310  0.00  0.00    +0.218 C 
ATOM     11  C   UNL     1      -3.393   2.388  25.848  0.00  0.00    +0.154 C 
ATOM     12  C   UNL     1      -4.770   3.996  24.481  0.00  0.00    +0.136 C 
ATOM     13  C   UNL     1      -2.009   2.996  23.794  0.00  0.00    +0.206 C 
ATOM     14  C   UNL     1      -4.147   3.828  23.102  0.00  0.00    +0.179 C 
ATOM     15  C   UNL     1      -5.838   1.980  25.424  0.00  0.00    +0.220 C 
ENDROOT
BRANCH  10   5
ATOM      5  O   UNL     1      -1.002   2.481  25.897  0.00  0.00    -0.469 OA
BRANCH   5  18
ATOM      9  N   UNL     1       0.880   2.575  24.547  0.00  0.00    -0.221 NA
ATOM     18  C   UNL     1      -0.146   1.847  25.040  0.00  0.00    +0.215 A 
ATOM     21  C   UNL     1      -0.372   0.515  24.728  0.00  0.00    +0.068 A 
ATOM     25  C   UNL     1       0.512  -0.107  23.854  0.00  0.00    +0.019 A 
ATOM     26  C   UNL     1       1.580   0.609  23.326  0.00  0.00    +0.073 A 
ATOM     27  C   UNL     1       1.718   1.936  23.701  0.00  0.00    +0.127 A 
BRANCH  26  28
ATOM      1  F   UNL     1       1.978  -0.437  21.212  0.00  0.00    -0.166 F 
ATOM      2  F   UNL     1       3.150  -1.144  22.895  0.00  0.00    -0.166 F 
ATOM      3  F   UNL     1       3.563   0.807  22.030  0.00  0.00    -0.166 F 
ATOM     28  C   UNL     1       2.543  -0.028  22.389  0.00  0.00    +0.419 C 
ENDBRANCH  26  28
ENDBRANCH   5  18
ENDBRANCH  10   5
BRANCH  15  16
ATOM     16  C   UNL     1      -5.686   0.711  26.227  0.00  0.00    +0.131 C 
BRANCH  16  17
ATOM     17  C   UNL     1      -4.695  -0.204  25.583  0.00  0.00    -0.038 A 
ATOM     19  C   UNL     1      -3.759  -0.881  26.364  0.00  0.00    +0.007 A 
ATOM     20  C   UNL     1      -4.705  -0.380  24.199  0.00  0.00    +0.007 A 
ATOM     22  C   UNL     1      -2.834  -1.735  25.763  0.00  0.00    +0.046 A 
ATOM     23  C   UNL     1      -3.780  -1.232  23.597  0.00  0.00    +0.046 A 
ATOM     24  C   UNL     1      -2.845  -1.910  24.379  0.00  0.00    +0.120 A 
BRANCH  24   7
ATOM      7  O   UNL     1      -1.943  -2.743  23.792  0.00  0.00    -0.495 OA
ATOM     29  C   UNL     1      -0.794  -3.101  24.559  0.00  0.00    +0.277 C 
ENDBRANCH  24   7
ENDBRANCH  16  17
ENDBRANCH  15  16
TORSDOF 6
ENDMDL
MODEL 7
REMARK VINA RESULT:       1.2      3.339      7.095
REMARK  Name = 75367643
REMARK  7 active torsions:
REMARK  status: ('A' for Active; 'I' for Inactive)
REMARK    1  A    between atoms: O_5  and  C_10
REMARK    2  A    between atoms: O_5  and  C_18
REMARK    3  A    between atoms: O_7  and  C_24
REMARK    4  A    between atoms: O_7  and  C_29
REMARK    5  A    between atoms: C_15  and  C_16
REMARK    6  A    between atoms: C_16  and  C_17
REMARK    7  A    between atoms: C_26  and  C_28
REMARK                            x       y       z     vdW  Elec       q    Type
REMARK                         _______ _______ _______ _____ _____    ______ ____
ROOT
ATOM      4  O   UNL     1       2.933   0.409  22.279  0.00  0.00    -0.375 OA
ATOM      6  O   UNL     1      -0.682  -2.766  23.253  0.00  0.00    -0.275 OA
ATOM      8  N   UNL     1       0.103  -0.571  23.265  0.00  0.00    -0.295 N 
ATOM     10  C   UNL     1       1.238   1.713  23.459  0.00  0.00    +0.218 C 
ATOM     11  C   UNL     1       0.165   0.731  23.936  0.00  0.00    +0.154 C 
ATOM     12  C   UNL     1       0.791  -0.731  21.981  0.00  0.00    +0.136 C 
ATOM     13  C   UNL     1       2.644   1.119  23.477  0.00  0.00    +0.206 C 
ATOM     14  C   UNL     1       2.296  -0.860  22.171  0.00  0.00    +0.179 C 
ATOM     15  C   UNL     1      -0.599  -1.662  23.796  0.00  0.00    +0.220 C 
ENDROOT
BRANCH  10   5
ATOM      5  O   UNL     1       1.228   2.835  24.343  0.00  0.00    -0.469 OA
BRANCH   5  18
ATOM      9  N   UNL     1      -0.711   4.088  24.131  0.00  0.00    -0.221 NA
ATOM     18  C   UNL     1       0.012   3.201  24.851  0.00  0.00    +0.215 A 
ATOM     21  C   UNL     1      -0.406   2.654  26.053  0.00  0.00    +0.068 A 
ATOM     25  C   UNL     1      -1.646   3.042  26.548  0.00  0.00    +0.019 A 
ATOM     26  C   UNL     1      -2.419   3.952  25.837  0.00  0.00    +0.073 A 
ATOM     27  C   UNL     1      -1.910   4.442  24.644  0.00  0.00    +0.127 A 
BRANCH  26  28
ATOM      1  F   UNL     1      -4.319   3.510  27.221  0.00  0.00    -0.166 F 
ATOM      2  F   UNL     1      -4.683   4.556  25.356  0.00  0.00    -0.166 F 
ATOM      3  F   UNL     1      -3.700   5.583  27.001  0.00  0.00    -0.166 F 
ATOM     28  C   UNL     1      -3.749   4.388  26.340  0.00  0.00    +0.419 C 
ENDBRANCH  26  28
ENDBRANCH   5  18
ENDBRANCH  10   5
BRANCH  15  16
ATOM     16  C   UNL     1      -1.281  -1.440  25.125  0.00  0.00    +0.131 C 
BRANCH  16  17
ATOM     17  C   UNL     1      -2.473  -0.554  24.963  0.00  0.00    -0.038 A 
ATOM     19  C   UNL     1      -3.565  -0.689  25.821  0.00  0.00    +0.007 A 
ATOM     20  C   UNL     1      -2.495   0.409  23.954  0.00  0.00    +0.007 A 
ATOM     22  C   UNL     1      -4.678   0.139  25.670  0.00  0.00    +0.046 A 
ATOM     23  C   UNL     1      -3.608   1.236  23.802  0.00  0.00    +0.046 A 
ATOM     24  C   UNL     1      -4.699   1.101  24.661  0.00  0.00    +0.120 A 
BRANCH  24   7
ATOM      7  O   UNL     1      -5.784   1.909  24.513  0.00  0.00    -0.495 OA
ATOM     29  C   UNL     1      -6.648   2.048  25.641  0.00  0.00    +0.277 C 
ENDBRANCH  24   7
ENDBRANCH  16  17
ENDBRANCH  15  16
TORSDOF 6
ENDMDL
MODEL 8
REMARK VINA RESULT:       1.9      3.510      6.054
REMARK  Name = 75367643
REMARK  7 active torsions:
REMARK  status: ('A' for Active; 'I' for Inactive)
REMARK    1  A    between atoms: O_5  and  C_10
REMARK    2  A    between atoms: O_5  and  C_18
REMARK    3  A    between atoms: O_7  and  C_24
REMARK    4  A    between atoms: O_7  and  C_29
REMARK    5  A    between atoms: C_15  and  C_16
REMARK    6  A    between atoms: C_16  and  C_17
REMARK    7  A    between atoms: C_26  and  C_28
REMARK                            x       y       z     vdW  Elec       q    Type
REMARK                         _______ _______ _______ _____ _____    ______ ____
ROOT
ATOM      4  O   UNL     1      -3.212  -3.723  24.880  0.00  0.00    -0.375 OA
ATOM      6  O   UNL     1       1.132  -1.465  24.517  0.00  0.00    -0.275 OA
ATOM      8  N   UNL     1      -1.188  -1.313  24.685  0.00  0.00    -0.295 N 
ATOM     10  C   UNL     1      -3.744  -1.357  24.589  0.00  0.00    +0.218 C 
ATOM     11  C   UNL     1      -2.427  -0.632  24.299  0.00  0.00    +0.154 C 
ATOM     12  C   UNL     1      -1.269  -2.438  25.621  0.00  0.00    +0.136 C 
ATOM     13  C   UNL     1      -3.793  -2.766  24.003  0.00  0.00    +0.206 C 
ATOM     14  C   UNL     1      -1.790  -3.694  24.935  0.00  0.00    +0.179 C 
ATOM     15  C   UNL     1       0.069  -0.923  24.205  0.00  0.00    +0.220 C 
ENDROOT
BRANCH  10   5
ATOM      5  O   UNL     1      -4.800  -0.601  23.993  0.00  0.00    -0.469 OA
BRANCH   5  18
ATOM      9  N   UNL     1      -5.659   1.038  25.390  0.00  0.00    -0.221 NA
ATOM     18  C   UNL     1      -4.873   0.721  24.337  0.00  0.00    +0.215 A 
ATOM     21  C   UNL     1      -4.151   1.647  23.601  0.00  0.00    +0.068 A 
ATOM     25  C   UNL     1      -4.242   2.984  23.970  0.00  0.00    +0.019 A 
ATOM     26  C   UNL     1      -5.040   3.350  25.048  0.00  0.00    +0.073 A 
ATOM     27  C   UNL     1      -5.723   2.348  25.718  0.00  0.00    +0.127 A 
BRANCH  26  28
ATOM      1  F   UNL     1      -4.356   5.104  26.524  0.00  0.00    -0.166 F 
ATOM      2  F   UNL     1      -6.420   5.130  25.855  0.00  0.00    -0.166 F 
ATOM      3  F   UNL     1      -4.825   5.647  24.471  0.00  0.00    -0.166 F 
ATOM     28  C   UNL     1      -5.159   4.772  25.467  0.00  0.00    +0.419 C 
ENDBRANCH  26  28
ENDBRANCH   5  18
ENDBRANCH  10   5
BRANCH  15  16
ATOM     16  C   UNL     1       0.090   0.236  23.236  0.00  0.00    +0.131 C 
BRANCH  16  17
ATOM     17  C   UNL     1      -0.311   1.502  23.923  0.00  0.00    -0.038 A 
ATOM     19  C   UNL     1      -0.272   1.584  25.315  0.00  0.00    +0.007 A 
ATOM     20  C   UNL     1      -0.724   2.602  23.171  0.00  0.00    +0.007 A 
ATOM     22  C   UNL     1      -0.645   2.766  25.955  0.00  0.00    +0.046 A 
ATOM     23  C   UNL     1      -1.099   3.783  23.812  0.00  0.00    +0.046 A 
ATOM     24  C   UNL     1      -1.058   3.865  25.203  0.00  0.00    +0.120 A 
BRANCH  24   7
ATOM      7  O   UNL     1      -1.422   5.018  25.828  0.00  0.00    -0.495 OA
ATOM     29  C   UNL     1      -1.683   6.151  25.000  0.00  0.00    +0.277 C 
ENDBRANCH  24   7
ENDBRANCH  16  17
ENDBRANCH  15  16
TORSDOF 6
ENDMDL
MODEL 9
REMARK VINA RESULT:       2.2      2.042      4.470
REMARK  Name = 75367643
REMARK  7 active torsions:
REMARK  status: ('A' for Active; 'I' for Inactive)
REMARK    1  A    between atoms: O_5  and  C_10
REMARK    2  A    between atoms: O_5  and  C_18
REMARK    3  A    between atoms: O_7  and  C_24
REMARK    4  A    between atoms: O_7  and  C_29
REMARK    5  A    between atoms: C_15  and  C_16
REMARK    6  A    between atoms: C_16  and  C_17
REMARK    7  A    between atoms: C_26  and  C_28
REMARK                            x       y       z     vdW  Elec       q    Type
REMARK                         _______ _______ _______ _____ _____    ______ ____
ROOT
ATOM      4  O   UNL     1      -5.235   5.287  26.135  0.00  0.00    -0.375 OA
ATOM      6  O   UNL     1      -6.622   0.795  24.721  0.00  0.00    -0.275 OA
ATOM      8  N   UNL     1      -4.908   2.263  25.302  0.00  0.00    -0.295 N 
ATOM     10  C   UNL     1      -3.155   4.086  25.691  0.00  0.00    +0.218 C 
ATOM     11  C   UNL     1      -3.537   2.734  25.083  0.00  0.00    +0.154 C 
ATOM     12  C   UNL     1      -5.707   2.898  26.354  0.00  0.00    +0.136 C 
ATOM     13  C   UNL     1      -4.099   5.214  25.282  0.00  0.00    +0.206 C 
ATOM     14  C   UNL     1      -6.207   4.269  25.919  0.00  0.00    +0.179 C 
ATOM     15  C   UNL     1      -5.477   1.223  24.555  0.00  0.00    +0.220 C 
ENDROOT
BRANCH  10   5
ATOM      5  O   UNL     1      -1.847   4.422  25.224  0.00  0.00    -0.469 OA
BRANCH   5  18
ATOM      9  N   UNL     1      -1.382   2.993  23.459  0.00  0.00    -0.221 NA
ATOM     18  C   UNL     1      -1.098   3.397  24.718  0.00  0.00    +0.215 A 
ATOM     21  C   UNL     1      -0.106   2.837  25.507  0.00  0.00    +0.068 A 
ATOM     25  C   UNL     1       0.642   1.795  24.969  0.00  0.00    +0.019 A 
ATOM     26  C   UNL     1       0.379   1.351  23.679  0.00  0.00    +0.073 A 
ATOM     27  C   UNL     1      -0.635   1.978  22.972  0.00  0.00    +0.127 A 
BRANCH  26  28
ATOM      1  F   UNL     1       2.478   0.543  22.864  0.00  0.00    -0.166 F 
ATOM      2  F   UNL     1       0.693  -0.167  21.857  0.00  0.00    -0.166 F 
ATOM      3  F   UNL     1       1.169  -0.884  23.854  0.00  0.00    -0.166 F 
ATOM     28  C   UNL     1       1.162   0.239  23.076  0.00  0.00    +0.419 C 
ENDBRANCH  26  28
ENDBRANCH   5  18
ENDBRANCH  10   5
BRANCH  15  16
ATOM     16  C   UNL     1      -4.610   0.614  23.479  0.00  0.00    +0.131 C 
BRANCH  16  17
ATOM     17  C   UNL     1      -3.684  -0.403  24.064  0.00  0.00    -0.038 A 
ATOM     19  C   UNL     1      -2.668  -0.005  24.932  0.00  0.00    +0.007 A 
ATOM     20  C   UNL     1      -3.836  -1.752  23.741  0.00  0.00    +0.007 A 
ATOM     22  C   UNL     1      -1.804  -0.955  25.478  0.00  0.00    +0.046 A 
ATOM     23  C   UNL     1      -2.971  -2.701  24.286  0.00  0.00    +0.046 A 
ATOM     24  C   UNL     1      -1.956  -2.303  25.155  0.00  0.00    +0.120 A 
BRANCH  24   7
ATOM      7  O   UNL     1      -1.114  -3.229  25.688  0.00  0.00    -0.495 OA
ATOM     29  C   UNL     1       0.280  -2.922  25.678  0.00  0.00    +0.277 C 
ENDBRANCH  24   7
ENDBRANCH  16  17
ENDBRANCH  15  16
TORSDOF 6
ENDMDL
MODEL 10
REMARK VINA RESULT:       2.2      3.483      7.049
REMARK  Name = 75367643
REMARK  7 active torsions:
REMARK  status: ('A' for Active; 'I' for Inactive)
REMARK    1  A    between atoms: O_5  and  C_10
REMARK    2  A    between atoms: O_5  and  C_18
REMARK    3  A    between atoms: O_7  and  C_24
REMARK    4  A    between atoms: O_7  and  C_29
REMARK    5  A    between atoms: C_15  and  C_16
REMARK    6  A    between atoms: C_16  and  C_17
REMARK    7  A    between atoms: C_26  and  C_28
REMARK                            x       y       z     vdW  Elec       q    Type
REMARK                         _______ _______ _______ _____ _____    ______ ____
ROOT
ATOM      4  O   UNL     1      -0.670  -2.101  26.551  0.00  0.00    -0.375 OA
ATOM      6  O   UNL     1      -4.652  -2.388  23.694  0.00  0.00    -0.275 OA
ATOM      8  N   UNL     1      -2.442  -1.704  23.973  0.00  0.00    -0.295 N 
ATOM     10  C   UNL     1      -0.129  -0.785  24.566  0.00  0.00    +0.218 C 
ATOM     11  C   UNL     1      -1.402  -0.701  23.720  0.00  0.00    +0.154 C 
ATOM     12  C   UNL     1      -2.085  -2.908  24.727  0.00  0.00    +0.136 C 
ATOM     13  C   UNL     1      -0.407  -0.790  26.067  0.00  0.00    +0.206 C 
ATOM     14  C   UNL     1      -1.956  -2.612  26.215  0.00  0.00    +0.179 C 
ATOM     15  C   UNL     1      -3.757  -1.561  23.510  0.00  0.00    +0.220 C 
ENDROOT
BRANCH  10   5
ATOM      5  O   UNL     1       0.666   0.366  24.275  0.00  0.00    -0.469 OA
BRANCH   5  18
ATOM      9  N   UNL     1      -0.039   2.413  23.445  0.00  0.00    -0.221 NA
ATOM     18  C   UNL     1       0.086   1.583  24.504  0.00  0.00    +0.215 A 
ATOM     21  C   UNL     1      -0.335   1.894  25.788  0.00  0.00    +0.068 A 
ATOM     25  C   UNL     1      -0.922   3.138  25.996  0.00  0.00    +0.019 A 
ATOM     26  C   UNL     1      -1.067   4.019  24.931  0.00  0.00    +0.073 A 
ATOM     27  C   UNL     1      -0.613   3.612  23.686  0.00  0.00    +0.127 A 
BRANCH  26  28
ATOM      1  F   UNL     1      -2.467   5.757  24.069  0.00  0.00    -0.166 F 
ATOM      2  F   UNL     1      -0.786   6.366  25.298  0.00  0.00    -0.166 F 
ATOM      3  F   UNL     1      -2.508   5.407  26.215  0.00  0.00    -0.166 F 
ATOM     28  C   UNL     1      -1.690   5.356  25.121  0.00  0.00    +0.419 C 
ENDBRANCH  26  28
ENDBRANCH   5  18
ENDBRANCH  10   5
BRANCH  15  16
ATOM     16  C   UNL     1      -4.068  -0.295  22.747  0.00  0.00    +0.131 C 
BRANCH  16  17
ATOM     17  C   UNL     1      -4.407   0.816  23.688  0.00  0.00    -0.038 A 
ATOM     19  C   UNL     1      -3.962   2.111  23.428  0.00  0.00    +0.007 A 
ATOM     20  C   UNL     1      -5.171   0.556  24.826  0.00  0.00    +0.007 A 
ATOM     22  C   UNL     1      -4.280   3.148  24.306  0.00  0.00    +0.046 A 
ATOM     23  C   UNL     1      -5.487   1.592  25.704  0.00  0.00    +0.046 A 
ATOM     24  C   UNL     1      -5.043   2.888  25.444  0.00  0.00    +0.120 A 
BRANCH  24   7
ATOM      7  O   UNL     1      -5.353   3.900  26.300  0.00  0.00    -0.495 OA
ATOM     29  C   UNL     1      -5.981   5.053  25.742  0.00  0.00    +0.277 C 
ENDBRANCH  24   7
ENDBRANCH  16  17
ENDBRANCH  15  16
TORSDOF 6
ENDMDL
