MODEL 1
REMARK VINA RESULT:      23.4      0.000      0.000
REMARK  Name = 28963221
REMARK  3 active torsions:
REMARK  status: ('A' for Active; 'I' for Inactive)
REMARK    1  A    between atoms: N_8  and  C_11
REMARK    2  A    between atoms: C_19  and  C_24
REMARK    3  A    between atoms: C_22  and  C_25
REMARK                            x       y       z     vdW  Elec       q    Type
REMARK                         _______ _______ _______ _____ _____    ______ ____
ROOT
ATOM      4  O   UNL     1       1.660  -1.015  20.550  0.00  0.00    -0.273 OA
ATOM      5  O   UNL     1      -0.537  -0.682  25.267  0.00  0.00    -0.270 OA
ATOM      7  N   UNL     1       1.167  -0.399  23.716  0.00  0.00    -0.286 N 
ATOM      9  N   UNL     1      -0.327  -0.082  21.182  0.00  0.00    -0.283 N 
ATOM     10  C   UNL     1       1.668   0.327  22.555  0.00  0.00    +0.164 C 
ATOM     11  C   UNL     1       3.922  -0.862  22.867  0.00  0.00    +0.077 C 
ATOM     12  C   UNL     1       3.196   0.423  22.471  0.00  0.00    +0.054 C 
ATOM     13  C   UNL     1       3.425  -1.323  24.233  0.00  0.00    +0.041 C 
ATOM     14  C   UNL     1       1.924  -1.556  24.200  0.00  0.00    +0.111 C 
ATOM     15  C   UNL     1       1.020  -0.340  21.356  0.00  0.00    +0.238 C 
ATOM     16  C   UNL     1      -0.110  -0.170  24.231  0.00  0.00    +0.249 C 
ATOM     17  C   UNL     1      -1.049   0.684  23.456  0.00  0.00    +0.059 A 
ATOM     18  C   UNL     1      -1.195   0.610  22.059  0.00  0.00    +0.046 A 
ATOM     20  C   UNL     1      -1.961   1.441  24.211  0.00  0.00    +0.023 A 
ATOM     21  C   UNL     1      -2.294   1.245  21.457  0.00  0.00    +0.024 A 
ATOM     22  C   UNL     1      -3.017   2.108  23.589  0.00  0.00    -0.014 A 
ATOM     23  C   UNL     1      -3.191   1.998  22.215  0.00  0.00    +0.010 A 
ATOM     35  H   UNL     1      -0.713  -0.331  20.274  0.00  0.00    +0.155 HD
ENDROOT
BRANCH  22  25
ATOM      2  F   UNL     1      -5.304   0.976  24.765  0.00  0.00    -0.205 F 
ATOM      3  F   UNL     1      -6.584   5.132  26.626  0.00  0.00    -0.205 F 
ATOM     25  C   UNL     1      -3.944   2.889  24.377  0.00  0.00    +0.018 A 
ATOM     27  C   UNL     1      -5.067   2.285  24.943  0.00  0.00    +0.134 A 
ATOM     28  C   UNL     1      -3.713   4.251  24.572  0.00  0.00    +0.014 A 
ATOM     31  C   UNL     1      -5.960   3.042  25.702  0.00  0.00    +0.077 A 
ATOM     32  C   UNL     1      -4.604   5.008  25.332  0.00  0.00    +0.039 A 
ATOM     33  C   UNL     1      -5.728   4.404  25.897  0.00  0.00    +0.126 A 
ENDBRANCH  22  25
BRANCH  11   8
ATOM      6  O   UNL     1       5.383   0.891  24.609  0.00  0.00    -0.270 OA
ATOM      8  N   UNL     1       5.351  -0.658  22.883  0.00  0.00    -0.308 N 
ATOM     19  C   UNL     1       5.968   0.214  23.767  0.00  0.00    +0.251 C 
ATOM     34  H   UNL     1       5.898  -1.140  22.178  0.00  0.00    +0.149 HD
BRANCH  19  24
ATOM      1  S   UNL     1       8.298  -0.854  22.747  0.00  0.00    -0.092 S 
ATOM     24  C   UNL     1       7.443   0.331  23.639  0.00  0.00    +0.074 A 
ATOM     26  C   UNL     1       8.281   1.296  24.153  0.00  0.00    +0.021 A 
ATOM     29  C   UNL     1       9.643   1.060  23.809  0.00  0.00    +0.008 A 
ATOM     30  C   UNL     1       9.795  -0.077  23.046  0.00  0.00    +0.046 A 
ENDBRANCH  19  24
ENDBRANCH  11   8
TORSDOF 3
ENDMDL
MODEL 2
REMARK VINA RESULT:      27.0      4.491     10.373
REMARK  Name = 28963221
REMARK  3 active torsions:
REMARK  status: ('A' for Active; 'I' for Inactive)
REMARK    1  A    between atoms: N_8  and  C_11
REMARK    2  A    between atoms: C_19  and  C_24
REMARK    3  A    between atoms: C_22  and  C_25
REMARK                            x       y       z     vdW  Elec       q    Type
REMARK                         _______ _______ _______ _____ _____    ______ ____
ROOT
ATOM      4  O   UNL     1      -0.963  -1.865  24.691  0.00  0.00    -0.273 OA
ATOM      5  O   UNL     1       2.190   0.285  21.138  0.00  0.00    -0.270 OA
ATOM      7  N   UNL     1       0.591   0.310  22.821  0.00  0.00    -0.286 N 
ATOM      9  N   UNL     1       1.292  -2.092  24.399  0.00  0.00    -0.283 N 
ATOM     10  C   UNL     1       0.292   0.146  24.238  0.00  0.00    +0.164 C 
ATOM     11  C   UNL     1      -2.070   1.040  23.775  0.00  0.00    +0.077 C 
ATOM     12  C   UNL     1      -0.889   0.982  24.744  0.00  0.00    +0.054 C 
ATOM     13  C   UNL     1      -1.574   1.475  22.400  0.00  0.00    +0.041 C 
ATOM     14  C   UNL     1      -0.520   0.507  21.886  0.00  0.00    +0.111 C 
ATOM     15  C   UNL     1       0.127  -1.349  24.440  0.00  0.00    +0.238 C 
ATOM     16  C   UNL     1       1.864   0.062  22.304  0.00  0.00    +0.249 C 
ATOM     17  C   UNL     1       2.878  -0.579  23.184  0.00  0.00    +0.059 A 
ATOM     18  C   UNL     1       2.590  -1.646  24.055  0.00  0.00    +0.046 A 
ATOM     20  C   UNL     1       4.215  -0.210  22.957  0.00  0.00    +0.023 A 
ATOM     21  C   UNL     1       3.654  -2.362  24.626  0.00  0.00    +0.024 A 
ATOM     22  C   UNL     1       5.258  -0.900  23.574  0.00  0.00    -0.014 A 
ATOM     23  C   UNL     1       4.977  -1.984  24.398  0.00  0.00    +0.010 A 
ATOM     35  H   UNL     1       1.225  -3.044  24.753  0.00  0.00    +0.155 HD
ENDROOT
BRANCH  22  25
ATOM      2  F   UNL     1       6.325   1.489  24.596  0.00  0.00    -0.205 F 
ATOM      3  F   UNL     1      10.545   0.609  22.651  0.00  0.00    -0.205 F 
ATOM     25  C   UNL     1       6.628  -0.505  23.337  0.00  0.00    +0.018 A 
ATOM     27  C   UNL     1       7.116   0.690  23.865  0.00  0.00    +0.134 A 
ATOM     28  C   UNL     1       7.464  -1.325  22.577  0.00  0.00    +0.014 A 
ATOM     31  C   UNL     1       8.440   1.067  23.632  0.00  0.00    +0.077 A 
ATOM     32  C   UNL     1       8.787  -0.949  22.346  0.00  0.00    +0.039 A 
ATOM     33  C   UNL     1       9.275   0.247  22.873  0.00  0.00    +0.126 A 
ENDBRANCH  22  25
BRANCH  11   8
ATOM      6  O   UNL     1      -4.342   0.351  25.390  0.00  0.00    -0.270 OA
ATOM      8  N   UNL     1      -3.087   1.942  24.262  0.00  0.00    -0.308 N 
ATOM     19  C   UNL     1      -4.152   1.513  25.040  0.00  0.00    +0.251 C 
ATOM     34  H   UNL     1      -3.029   2.910  23.967  0.00  0.00    +0.149 HD
BRANCH  19  24
ATOM      1  S   UNL     1      -4.770   4.201  25.105  0.00  0.00    -0.092 S 
ATOM     24  C   UNL     1      -5.127   2.560  25.439  0.00  0.00    +0.074 A 
ATOM     26  C   UNL     1      -6.342   2.413  26.070  0.00  0.00    +0.021 A 
ATOM     29  C   UNL     1      -6.989   3.664  26.282  0.00  0.00    +0.008 A 
ATOM     30  C   UNL     1      -6.243   4.720  25.806  0.00  0.00    +0.046 A 
ENDBRANCH  19  24
ENDBRANCH  11   8
TORSDOF 3
ENDMDL
