MODEL 1
REMARK VINA RESULT:      -4.7      0.000      0.000
REMARK  Name = 56775480
REMARK  6 active torsions:
REMARK  status: ('A' for Active; 'I' for Inactive)
REMARK    1  A    between atoms: N_4  and  C_6
REMARK    2  A    between atoms: N_4  and  C_8
REMARK    3  A    between atoms: C_6  and  C_13
REMARK    4  A    between atoms: C_7  and  C_8
REMARK    5  A    between atoms: C_13  and  C_17
REMARK    6  A    between atoms: C_19  and  C_20
REMARK                            x       y       z     vdW  Elec       q    Type
REMARK                         _______ _______ _______ _____ _____    ______ ____
ROOT
ATOM      2  O   UNL     1      -2.047   4.583  25.342  0.00  0.00    -0.376 OA
ATOM      6  C   UNL     1      -2.633   2.645  24.666  0.00  0.00    +0.072 C 
ATOM     11  C   UNL     1      -1.494   3.254  25.475  0.00  0.00    +0.184 C 
ATOM     12  C   UNL     1      -3.203   4.060  24.650  0.00  0.00    +0.184 C 
ENDROOT
BRANCH   6   4
ATOM      4  N   UNL     1      -3.455   1.815  25.556  0.00  0.00    -0.306 NA
ATOM     26  H   UNL     1      -2.944   1.119  26.097  0.00  0.00    +0.123 HD
BRANCH   4   8
ATOM      8  C   UNL     1      -4.509   1.174  24.785  0.00  0.00    +0.085 C 
BRANCH   8   7
ATOM      7  C   UNL     1      -4.461  -0.343  24.957  0.00  0.00    +0.003 C 
ATOM      9  C   UNL     1      -3.318  -0.746  25.898  0.00  0.00    +0.005 C 
ATOM     10  C   UNL     1      -4.322  -1.040  23.598  0.00  0.00    +0.005 C 
ATOM     14  C   UNL     1      -3.217  -2.262  26.045  0.00  0.00    +0.000 C 
ATOM     15  C   UNL     1      -4.219  -2.556  23.749  0.00  0.00    +0.000 C 
ATOM     16  C   UNL     1      -3.087  -2.952  24.690  0.00  0.00    +0.000 C 
ENDBRANCH   8   7
ENDBRANCH   4   8
ENDBRANCH   6   4
BRANCH   6  13
ATOM     13  C   UNL     1      -2.323   1.974  23.364  0.00  0.00    +0.085 C 
BRANCH  13  17
ATOM      3  O   UNL     1       0.277  -0.495  23.817  0.00  0.00    -0.354 OA
ATOM      5  N   UNL     1      -1.052  -0.090  23.841  0.00  0.00    -0.083 NA
ATOM     17  C   UNL     1      -1.030   1.190  23.457  0.00  0.00    +0.086 A 
ATOM     18  C   UNL     1       0.272   1.642  23.181  0.00  0.00    +0.076 A 
ATOM     19  C   UNL     1       1.056   0.545  23.423  0.00  0.00    +0.167 A 
BRANCH  19  20
ATOM      1  F   UNL     1       6.513  -0.498  23.139  0.00  0.00    -0.205 F 
ATOM     20  C   UNL     1       2.462   0.276  23.348  0.00  0.00    +0.020 A 
ATOM     21  C   UNL     1       2.948  -0.989  23.677  0.00  0.00    +0.014 A 
ATOM     22  C   UNL     1       3.345   1.280  22.950  0.00  0.00    +0.014 A 
ATOM     23  C   UNL     1       4.317  -1.251  23.605  0.00  0.00    +0.039 A 
ATOM     24  C   UNL     1       4.713   1.019  22.879  0.00  0.00    +0.039 A 
ATOM     25  C   UNL     1       5.199  -0.248  23.207  0.00  0.00    +0.123 A 
ENDBRANCH  19  20
ENDBRANCH  13  17
ENDBRANCH   6  13
TORSDOF 6
ENDMDL
MODEL 2
REMARK VINA RESULT:      -4.0      1.641      2.223
REMARK  Name = 56775480
REMARK  6 active torsions:
REMARK  status: ('A' for Active; 'I' for Inactive)
REMARK    1  A    between atoms: N_4  and  C_6
REMARK    2  A    between atoms: N_4  and  C_8
REMARK    3  A    between atoms: C_6  and  C_13
REMARK    4  A    between atoms: C_7  and  C_8
REMARK    5  A    between atoms: C_13  and  C_17
REMARK    6  A    between atoms: C_19  and  C_20
REMARK                            x       y       z     vdW  Elec       q    Type
REMARK                         _______ _______ _______ _____ _____    ______ ____
ROOT
ATOM      2  O   UNL     1      -6.220   3.779  25.801  0.00  0.00    -0.376 OA
ATOM      6  C   UNL     1      -4.621   2.658  24.938  0.00  0.00    +0.072 C 
ATOM     11  C   UNL     1      -4.778   3.828  25.902  0.00  0.00    +0.184 C 
ATOM     12  C   UNL     1      -6.145   2.607  24.957  0.00  0.00    +0.184 C 
ENDROOT
BRANCH   6   4
ATOM      4  N   UNL     1      -4.101   1.501  25.679  0.00  0.00    -0.306 NA
ATOM     26  H   UNL     1      -3.089   1.384  25.648  0.00  0.00    +0.123 HD
BRANCH   4   8
ATOM      8  C   UNL     1      -4.758   0.291  25.211  0.00  0.00    +0.085 C 
BRANCH   8   7
ATOM      7  C   UNL     1      -3.826  -0.914  25.330  0.00  0.00    +0.003 C 
ATOM      9  C   UNL     1      -2.372  -0.458  25.508  0.00  0.00    +0.005 C 
ATOM     10  C   UNL     1      -3.966  -1.831  24.109  0.00  0.00    +0.005 C 
ATOM     14  C   UNL     1      -1.414  -1.645  25.578  0.00  0.00    +0.000 C 
ATOM     15  C   UNL     1      -3.005  -3.016  24.180  0.00  0.00    +0.000 C 
ATOM     16  C   UNL     1      -1.561  -2.560  24.365  0.00  0.00    +0.000 C 
ENDBRANCH   8   7
ENDBRANCH   4   8
ENDBRANCH   6   4
BRANCH   6  13
ATOM     13  C   UNL     1      -3.919   2.879  23.634  0.00  0.00    +0.085 C 
BRANCH  13  17
ATOM      3  O   UNL     1      -0.409   2.808  24.492  0.00  0.00    -0.354 OA
ATOM      5  N   UNL     1      -1.697   3.314  24.622  0.00  0.00    -0.083 NA
ATOM     17  C   UNL     1      -2.436   2.601  23.766  0.00  0.00    +0.086 A 
ATOM     18  C   UNL     1      -1.676   1.640  23.077  0.00  0.00    +0.076 A 
ATOM     19  C   UNL     1      -0.410   1.812  23.569  0.00  0.00    +0.167 A 
BRANCH  19  20
ATOM      1  F   UNL     1       4.512  -0.610  22.637  0.00  0.00    -0.205 F 
ATOM     20  C   UNL     1       0.858   1.188  23.328  0.00  0.00    +0.020 A 
ATOM     21  C   UNL     1       0.922  -0.177  23.049  0.00  0.00    +0.014 A 
ATOM     22  C   UNL     1       2.029   1.946  23.375  0.00  0.00    +0.014 A 
ATOM     23  C   UNL     1       2.156  -0.784  22.815  0.00  0.00    +0.039 A 
ATOM     24  C   UNL     1       3.263   1.339  23.141  0.00  0.00    +0.039 A 
ATOM     25  C   UNL     1       3.326  -0.027  22.861  0.00  0.00    +0.123 A 
ENDBRANCH  19  20
ENDBRANCH  13  17
ENDBRANCH   6  13
TORSDOF 6
ENDMDL
MODEL 3
REMARK VINA RESULT:      -3.5      1.435      3.852
REMARK  Name = 56775480
REMARK  6 active torsions:
REMARK  status: ('A' for Active; 'I' for Inactive)
REMARK    1  A    between atoms: N_4  and  C_6
REMARK    2  A    between atoms: N_4  and  C_8
REMARK    3  A    between atoms: C_6  and  C_13
REMARK    4  A    between atoms: C_7  and  C_8
REMARK    5  A    between atoms: C_13  and  C_17
REMARK    6  A    between atoms: C_19  and  C_20
REMARK                            x       y       z     vdW  Elec       q    Type
REMARK                         _______ _______ _______ _____ _____    ______ ____
ROOT
ATOM      2  O   UNL     1      -3.471  -2.744  24.626  0.00  0.00    -0.376 OA
ATOM      6  C   UNL     1      -3.311  -0.635  24.338  0.00  0.00    +0.072 C 
ATOM     11  C   UNL     1      -4.332  -1.732  24.056  0.00  0.00    +0.184 C 
ATOM     12  C   UNL     1      -2.502  -1.742  25.007  0.00  0.00    +0.184 C 
ENDROOT
BRANCH   6   4
ATOM      4  N   UNL     1      -3.846   0.253  25.377  0.00  0.00    -0.306 NA
ATOM     26  H   UNL     1      -4.263  -0.217  26.179  0.00  0.00    +0.123 HD
BRANCH   4   8
ATOM      8  C   UNL     1      -4.805   1.172  24.783  0.00  0.00    +0.085 C 
BRANCH   8   7
ATOM      7  C   UNL     1      -4.360   2.621  24.974  0.00  0.00    +0.003 C 
ATOM      9  C   UNL     1      -3.864   3.213  23.648  0.00  0.00    +0.005 C 
ATOM     10  C   UNL     1      -3.277   2.718  26.056  0.00  0.00    +0.005 C 
ATOM     14  C   UNL     1      -3.364   4.646  23.824  0.00  0.00    +0.000 C 
ATOM     15  C   UNL     1      -2.779   4.151  26.227  0.00  0.00    +0.000 C 
ATOM     16  C   UNL     1      -2.293   4.740  24.906  0.00  0.00    +0.000 C 
ENDBRANCH   8   7
ENDBRANCH   4   8
ENDBRANCH   6   4
BRANCH   6  13
ATOM     13  C   UNL     1      -2.707   0.109  23.187  0.00  0.00    +0.085 C 
BRANCH  13  17
ATOM      3  O   UNL     1       0.519   1.340  24.254  0.00  0.00    -0.354 OA
ATOM      5  N   UNL     1      -0.871   1.367  24.258  0.00  0.00    -0.083 NA
ATOM     17  C   UNL     1      -1.237   0.381  23.434  0.00  0.00    +0.086 A 
ATOM     18  C   UNL     1      -0.134  -0.297  22.888  0.00  0.00    +0.076 A 
ATOM     19  C   UNL     1       0.945   0.345  23.436  0.00  0.00    +0.167 A 
BRANCH  19  20
ATOM      1  F   UNL     1       6.463  -0.247  23.038  0.00  0.00    -0.205 F 
ATOM     20  C   UNL     1       2.368   0.192  23.332  0.00  0.00    +0.020 A 
ATOM     21  C   UNL     1       2.967  -1.017  23.684  0.00  0.00    +0.014 A 
ATOM     22  C   UNL     1       3.152   1.254  22.881  0.00  0.00    +0.014 A 
ATOM     23  C   UNL     1       4.350  -1.166  23.585  0.00  0.00    +0.039 A 
ATOM     24  C   UNL     1       4.535   1.105  22.781  0.00  0.00    +0.039 A 
ATOM     25  C   UNL     1       5.135  -0.105  23.133  0.00  0.00    +0.123 A 
ENDBRANCH  19  20
ENDBRANCH  13  17
ENDBRANCH   6  13
TORSDOF 6
ENDMDL
MODEL 4
REMARK VINA RESULT:      -3.4      3.352      6.554
REMARK  Name = 56775480
REMARK  6 active torsions:
REMARK  status: ('A' for Active; 'I' for Inactive)
REMARK    1  A    between atoms: N_4  and  C_6
REMARK    2  A    between atoms: N_4  and  C_8
REMARK    3  A    between atoms: C_6  and  C_13
REMARK    4  A    between atoms: C_7  and  C_8
REMARK    5  A    between atoms: C_13  and  C_17
REMARK    6  A    between atoms: C_19  and  C_20
REMARK                            x       y       z     vdW  Elec       q    Type
REMARK                         _______ _______ _______ _____ _____    ______ ____
ROOT
ATOM      2  O   UNL     1       3.027  -1.074  22.144  0.00  0.00    -0.376 OA
ATOM      6  C   UNL     1       1.581   0.144  23.136  0.00  0.00    +0.072 C 
ATOM     11  C   UNL     1       1.954  -0.211  21.701  0.00  0.00    +0.184 C 
ATOM     12  C   UNL     1       2.666  -0.854  23.527  0.00  0.00    +0.184 C 
ENDROOT
BRANCH   6   4
ATOM      4  N   UNL     1       0.269  -0.440  23.443  0.00  0.00    -0.306 NA
ATOM     26  H   UNL     1      -0.498   0.227  23.514  0.00  0.00    +0.123 HD
BRANCH   4   8
ATOM      8  C   UNL     1       0.362  -1.226  24.663  0.00  0.00    +0.085 C 
BRANCH   8   7
ATOM      7  C   UNL     1      -1.016  -1.723  25.096  0.00  0.00    +0.003 C 
ATOM      9  C   UNL     1      -1.775  -2.320  23.903  0.00  0.00    +0.005 C 
ATOM     10  C   UNL     1      -1.822  -0.592  25.745  0.00  0.00    +0.005 C 
ATOM     14  C   UNL     1      -3.177  -2.777  24.299  0.00  0.00    +0.000 C 
ATOM     15  C   UNL     1      -3.224  -1.051  26.139  0.00  0.00    +0.000 C 
ATOM     16  C   UNL     1      -3.973  -1.651  24.953  0.00  0.00    +0.000 C 
ENDBRANCH   8   7
ENDBRANCH   4   8
ENDBRANCH   6   4
BRANCH   6  13
ATOM     13  C   UNL     1       1.707   1.566  23.589  0.00  0.00    +0.085 C 
BRANCH  13  17
ATOM      3  O   UNL     1      -0.759   2.576  26.029  0.00  0.00    -0.354 OA
ATOM      5  N   UNL     1       0.525   2.187  25.667  0.00  0.00    -0.083 NA
ATOM     17  C   UNL     1       0.469   2.003  24.344  0.00  0.00    +0.086 A 
ATOM     18  C   UNL     1      -0.810   2.260  23.823  0.00  0.00    +0.076 A 
ATOM     19  C   UNL     1      -1.545   2.616  24.923  0.00  0.00    +0.167 A 
BRANCH  19  20
ATOM      1  F   UNL     1      -6.830   4.136  25.766  0.00  0.00    -0.205 F 
ATOM     20  C   UNL     1      -2.907   3.007  25.141  0.00  0.00    +0.020 A 
ATOM     21  C   UNL     1      -3.945   2.248  24.601  0.00  0.00    +0.014 A 
ATOM     22  C   UNL     1      -3.194   4.148  25.891  0.00  0.00    +0.014 A 
ATOM     23  C   UNL     1      -5.271   2.629  24.813  0.00  0.00    +0.039 A 
ATOM     24  C   UNL     1      -4.519   4.528  26.103  0.00  0.00    +0.039 A 
ATOM     25  C   UNL     1      -5.558   3.769  25.563  0.00  0.00    +0.123 A 
ENDBRANCH  19  20
ENDBRANCH  13  17
ENDBRANCH   6  13
TORSDOF 6
ENDMDL
MODEL 5
REMARK VINA RESULT:      -2.7      3.453      6.952
REMARK  Name = 56775480
REMARK  6 active torsions:
REMARK  status: ('A' for Active; 'I' for Inactive)
REMARK    1  A    between atoms: N_4  and  C_6
REMARK    2  A    between atoms: N_4  and  C_8
REMARK    3  A    between atoms: C_6  and  C_13
REMARK    4  A    between atoms: C_7  and  C_8
REMARK    5  A    between atoms: C_13  and  C_17
REMARK    6  A    between atoms: C_19  and  C_20
REMARK                            x       y       z     vdW  Elec       q    Type
REMARK                         _______ _______ _______ _____ _____    ______ ____
ROOT
ATOM      2  O   UNL     1       4.597   0.089  22.688  0.00  0.00    -0.376 OA
ATOM      6  C   UNL     1       2.497   0.287  23.015  0.00  0.00    +0.072 C 
ATOM     11  C   UNL     1       3.639  -0.569  23.549  0.00  0.00    +0.184 C 
ATOM     12  C   UNL     1       3.579   0.997  22.209  0.00  0.00    +0.184 C 
ENDROOT
BRANCH   6   4
ATOM      4  N   UNL     1       2.039   1.185  24.084  0.00  0.00    -0.306 NA
ATOM     26  H   UNL     1       1.506   0.739  24.829  0.00  0.00    +0.123 HD
BRANCH   4   8
ATOM      8  C   UNL     1       1.270   2.275  23.504  0.00  0.00    +0.085 C 
BRANCH   8   7
ATOM      7  C   UNL     1       0.557   3.076  24.593  0.00  0.00    +0.003 C 
ATOM      9  C   UNL     1       0.004   2.142  25.677  0.00  0.00    +0.005 C 
ATOM     10  C   UNL     1      -0.561   3.936  23.990  0.00  0.00    +0.005 C 
ATOM     14  C   UNL     1      -0.759   2.915  26.750  0.00  0.00    +0.000 C 
ATOM     15  C   UNL     1      -1.323   4.706  25.066  0.00  0.00    +0.000 C 
ATOM     16  C   UNL     1      -1.865   3.776  26.146  0.00  0.00    +0.000 C 
ENDBRANCH   8   7
ENDBRANCH   4   8
ENDBRANCH   6   4
BRANCH   6  13
ATOM     13  C   UNL     1       1.369  -0.377  22.288  0.00  0.00    +0.085 C 
BRANCH  13  17
ATOM      3  O   UNL     1      -1.365  -0.733  24.624  0.00  0.00    -0.354 OA
ATOM      5  N   UNL     1      -0.110  -1.080  24.137  0.00  0.00    -0.083 NA
ATOM     17  C   UNL     1       0.083  -0.280  23.084  0.00  0.00    +0.086 A 
ATOM     18  C   UNL     1      -1.002   0.584  22.862  0.00  0.00    +0.076 A 
ATOM     19  C   UNL     1      -1.886   0.259  23.857  0.00  0.00    +0.167 A 
BRANCH  19  20
ATOM      1  F   UNL     1      -6.930   2.070  25.349  0.00  0.00    -0.205 F 
ATOM     20  C   UNL     1      -3.185   0.726  24.243  0.00  0.00    +0.020 A 
ATOM     21  C   UNL     1      -4.020  -0.088  25.007  0.00  0.00    +0.014 A 
ATOM     22  C   UNL     1      -3.615   1.994  23.851  0.00  0.00    +0.014 A 
ATOM     23  C   UNL     1      -5.285   0.366  25.382  0.00  0.00    +0.039 A 
ATOM     24  C   UNL     1      -4.880   2.448  24.225  0.00  0.00    +0.039 A 
ATOM     25  C   UNL     1      -5.715   1.634  24.990  0.00  0.00    +0.123 A 
ENDBRANCH  19  20
ENDBRANCH  13  17
ENDBRANCH   6  13
TORSDOF 6
ENDMDL
MODEL 6
REMARK VINA RESULT:      -1.1      1.995      3.740
REMARK  Name = 56775480
REMARK  6 active torsions:
REMARK  status: ('A' for Active; 'I' for Inactive)
REMARK    1  A    between atoms: N_4  and  C_6
REMARK    2  A    between atoms: N_4  and  C_8
REMARK    3  A    between atoms: C_6  and  C_13
REMARK    4  A    between atoms: C_7  and  C_8
REMARK    5  A    between atoms: C_13  and  C_17
REMARK    6  A    between atoms: C_19  and  C_20
REMARK                            x       y       z     vdW  Elec       q    Type
REMARK                         _______ _______ _______ _____ _____    ______ ____
ROOT
ATOM      2  O   UNL     1      -2.492  -2.709  24.669  0.00  0.00    -0.376 OA
ATOM      6  C   UNL     1      -2.186  -0.613  24.407  0.00  0.00    +0.072 C 
ATOM     11  C   UNL     1      -3.354  -1.591  24.356  0.00  0.00    +0.184 C 
ATOM     12  C   UNL     1      -1.360  -1.824  24.826  0.00  0.00    +0.184 C 
ENDROOT
BRANCH   6   4
ATOM      4  N   UNL     1      -2.357   0.268  25.569  0.00  0.00    -0.306 NA
ATOM     26  H   UNL     1      -3.246   0.174  26.060  0.00  0.00    +0.123 HD
BRANCH   4   8
ATOM      8  C   UNL     1      -2.156   1.651  25.163  0.00  0.00    +0.085 C 
BRANCH   8   7
ATOM      7  C   UNL     1      -3.493   2.336  24.885  0.00  0.00    +0.003 C 
ATOM      9  C   UNL     1      -3.629   3.616  25.720  0.00  0.00    +0.005 C 
ATOM     10  C   UNL     1      -4.660   1.379  25.158  0.00  0.00    +0.005 C 
ATOM     14  C   UNL     1      -4.980   4.292  25.499  0.00  0.00    +0.000 C 
ATOM     15  C   UNL     1      -6.010   2.058  24.938  0.00  0.00    +0.000 C 
ATOM     16  C   UNL     1      -6.139   3.335  25.763  0.00  0.00    +0.000 C 
ENDBRANCH   8   7
ENDBRANCH   4   8
ENDBRANCH   6   4
BRANCH   6  13
ATOM     13  C   UNL     1      -1.805   0.129  23.163  0.00  0.00    +0.085 C 
BRANCH  13  17
ATOM      3  O   UNL     1       1.456  -0.466  21.724  0.00  0.00    -0.354 OA
ATOM      5  N   UNL     1       0.069  -0.411  21.647  0.00  0.00    -0.083 NA
ATOM     17  C   UNL     1      -0.328  -0.038  22.867  0.00  0.00    +0.086 A 
ATOM     18  C   UNL     1       0.751   0.155  23.746  0.00  0.00    +0.076 A 
ATOM     19  C   UNL     1       1.850  -0.127  22.978  0.00  0.00    +0.167 A 
BRANCH  19  20
ATOM      1  F   UNL     1       7.341  -0.170  23.871  0.00  0.00    -0.205 F 
ATOM     20  C   UNL     1       3.265  -0.138  23.209  0.00  0.00    +0.020 A 
ATOM     21  C   UNL     1       4.027   0.994  22.921  0.00  0.00    +0.014 A 
ATOM     22  C   UNL     1       3.880  -1.281  23.721  0.00  0.00    +0.014 A 
ATOM     23  C   UNL     1       5.404   0.983  23.144  0.00  0.00    +0.039 A 
ATOM     24  C   UNL     1       5.256  -1.291  23.945  0.00  0.00    +0.039 A 
ATOM     25  C   UNL     1       6.019  -0.159  23.656  0.00  0.00    +0.123 A 
ENDBRANCH  19  20
ENDBRANCH  13  17
ENDBRANCH   6  13
TORSDOF 6
ENDMDL
