MODEL 1
REMARK VINA RESULT:      -4.1      0.000      0.000
REMARK  Name = 11883334
REMARK  7 active torsions:
REMARK  status: ('A' for Active; 'I' for Inactive)
REMARK    1  A    between atoms: O_3  and  C_13
REMARK    2  A    between atoms: O_3  and  C_17
REMARK    3  A    between atoms: N_7  and  C_12
REMARK    4  A    between atoms: N_8  and  C_18
REMARK    5  A    between atoms: N_9  and  C_19
REMARK    6  A    between atoms: C_22  and  C_29
REMARK    7  A    between atoms: C_29  and  C_31
REMARK                            x       y       z     vdW  Elec       q    Type
REMARK                         _______ _______ _______ _____ _____    ______ ____
ROOT
ATOM      1  O   UNL     1      -8.450  -8.926  10.854  0.00  0.00    -0.368 OA
ATOM      2  O   UNL     1     -10.203 -10.388   8.807  0.00  0.00    -0.368 OA
ATOM     10  C   UNL     1      -9.848 -10.713  10.167  0.00  0.00    +0.173 C 
ATOM     11  C   UNL     1      -8.410 -10.276  10.363  0.00  0.00    +0.192 C 
ATOM     12  C   UNL     1     -10.625  -9.845  11.129  0.00  0.00    +0.131 C 
ATOM     13  C   UNL     1      -7.855 -10.344   8.961  0.00  0.00    +0.235 C 
ATOM     14  C   UNL     1      -9.811  -8.562  11.135  0.00  0.00    +0.185 C 
ATOM     15  C   UNL     1      -9.036  -9.902   8.127  0.00  0.00    +0.207 C 
ENDROOT
BRANCH  12   7
ATOM      4  O   UNL     1      -9.016  -9.142  13.392  0.00  0.00    -0.252 OA
ATOM      7  N   UNL     1     -10.680 -10.437  12.443  0.00  0.00    -0.292 N 
ATOM      8  N   UNL     1     -10.132 -10.781  14.648  0.00  0.00    -0.269 N 
ATOM     16  C   UNL     1      -9.854 -10.032  13.500  0.00  0.00    +0.304 C 
ATOM     32  H   UNL     1     -11.393 -11.134  12.630  0.00  0.00    +0.151 HD
ATOM     33  H   UNL     1     -10.860 -11.487  14.567  0.00  0.00    +0.156 HD
BRANCH   8  18
ATOM     18  C   UNL     1      -9.520 -10.681  15.918  0.00  0.00    +0.035 A 
ATOM     20  C   UNL     1      -8.129 -10.696  16.026  0.00  0.00    +0.034 A 
ATOM     21  C   UNL     1     -10.307 -10.567  17.064  0.00  0.00    +0.023 A 
ATOM     22  C   UNL     1      -7.525 -10.596  17.280  0.00  0.00    +0.019 A 
ATOM     25  C   UNL     1      -9.704 -10.467  18.318  0.00  0.00    +0.002 A 
ATOM     26  C   UNL     1      -8.313 -10.482  18.426  0.00  0.00    +0.011 A 
BRANCH  22  29
ATOM      6  O   UNL     1      -5.346 -10.766  16.395  0.00  0.00    -0.292 OA
ATOM     29  C   UNL     1      -6.076 -10.611  17.394  0.00  0.00    +0.160 C 
ATOM     31  C   UNL     1      -5.411 -10.433  18.755  0.00  0.00    +0.091 C 
ENDBRANCH  22  29
ENDBRANCH   8  18
ENDBRANCH  12   7
BRANCH  13   3
ATOM      3  O   UNL     1      -6.727  -9.522   8.761  0.00  0.00    -0.442 OA
BRANCH   3  17
ATOM      5  O   UNL     1      -4.833 -10.768   8.467  0.00  0.00    -0.226 OA
ATOM      9  N   UNL     1      -5.216  -9.557  10.433  0.00  0.00    -0.251 N 
ATOM     17  C   UNL     1      -5.509 -10.025   9.167  0.00  0.00    +0.405 C 
ATOM     34  H   UNL     1      -5.906  -8.942  10.857  0.00  0.00    +0.158 HD
BRANCH   9  19
ATOM     19  C   UNL     1      -4.071  -9.826  11.217  0.00  0.00    +0.036 A 
ATOM     23  C   UNL     1      -2.802  -9.507  10.731  0.00  0.00    +0.023 A 
ATOM     24  C   UNL     1      -4.207 -10.411  12.476  0.00  0.00    +0.023 A 
ATOM     27  C   UNL     1      -1.672  -9.773  11.504  0.00  0.00    +0.002 A 
ATOM     28  C   UNL     1      -3.077 -10.677  13.249  0.00  0.00    +0.002 A 
ATOM     30  C   UNL     1      -1.809 -10.357  12.763  0.00  0.00    +0.000 A 
ENDBRANCH   9  19
ENDBRANCH   3  17
ENDBRANCH  13   3
TORSDOF 6
ENDMDL
