MODEL 1
REMARK VINA RESULT:      -6.6      0.000      0.000
REMARK  Name = 75367813
REMARK  4 active torsions:
REMARK  status: ('A' for Active; 'I' for Inactive)
REMARK    1  A    between atoms: O_2  and  C_5
REMARK    2  A    between atoms: O_2  and  C_11
REMARK    3  A    between atoms: C_10  and  C_12
REMARK    4  A    between atoms: C_11  and  C_13
REMARK                            x       y       z     vdW  Elec       q    Type
REMARK                         _______ _______ _______ _____ _____    ______ ____
ROOT
ATOM      1  O   UNL     1      -2.460  -2.610  24.976  0.00  0.00    -0.376 OA
ATOM      3  O   UNL     1      -4.889   1.545  24.587  0.00  0.00    -0.270 OA
ATOM      4  N   UNL     1      -2.942   0.349  24.061  0.00  0.00    -0.293 N 
ATOM      5  C   UNL     1      -0.811  -1.056  24.069  0.00  0.00    +0.161 C 
ATOM      6  C   UNL     1      -1.478   0.319  23.966  0.00  0.00    +0.142 C 
ATOM      7  C   UNL     1      -3.684  -0.875  23.755  0.00  0.00    +0.136 C 
ATOM      8  C   UNL     1      -1.283  -1.865  25.275  0.00  0.00    +0.193 C 
ATOM      9  C   UNL     1      -3.657  -1.840  24.935  0.00  0.00    +0.179 C 
ATOM     10  C   UNL     1      -3.665   1.484  24.463  0.00  0.00    +0.247 C 
ENDROOT
BRANCH  10  12
ATOM     12  C   UNL     1      -2.919   2.715  24.768  0.00  0.00    +0.037 A 
ATOM     14  C   UNL     1      -1.634   2.896  24.260  0.00  0.00    +0.013 A 
ATOM     15  C   UNL     1      -3.499   3.702  25.564  0.00  0.00    +0.013 A 
ATOM     18  C   UNL     1      -0.927   4.063  24.547  0.00  0.00    +0.001 A 
ATOM     19  C   UNL     1      -2.793   4.870  25.853  0.00  0.00    +0.001 A 
ATOM     22  C   UNL     1      -1.507   5.051  25.343  0.00  0.00    +0.000 A 
ENDBRANCH  10  12
BRANCH   5   2
ATOM      2  O   UNL     1       0.594  -0.824  24.185  0.00  0.00    -0.368 OA
BRANCH   2  11
ATOM     11  C   UNL     1       1.143  -0.374  22.956  0.00  0.00    +0.195 C 
BRANCH  11  13
ATOM     13  C   UNL     1       2.630  -0.238  23.108  0.00  0.00    -0.022 A 
ATOM     16  C   UNL     1       3.374  -1.280  23.662  0.00  0.00    +0.006 A 
ATOM     17  C   UNL     1       3.269   0.932  22.695  0.00  0.00    +0.006 A 
ATOM     20  C   UNL     1       4.756  -1.152  23.803  0.00  0.00    +0.000 A 
ATOM     21  C   UNL     1       4.650   1.059  22.837  0.00  0.00    +0.000 A 
ATOM     23  C   UNL     1       5.393   0.017  23.390  0.00  0.00    +0.000 A 
ENDBRANCH  11  13
ENDBRANCH   2  11
ENDBRANCH   5   2
TORSDOF 4
ENDMDL
MODEL 2
REMARK VINA RESULT:      -6.4      2.660      5.727
REMARK  Name = 75367813
REMARK  4 active torsions:
REMARK  status: ('A' for Active; 'I' for Inactive)
REMARK    1  A    between atoms: O_2  and  C_5
REMARK    2  A    between atoms: O_2  and  C_11
REMARK    3  A    between atoms: C_10  and  C_12
REMARK    4  A    between atoms: C_11  and  C_13
REMARK                            x       y       z     vdW  Elec       q    Type
REMARK                         _______ _______ _______ _____ _____    ______ ____
ROOT
ATOM      1  O   UNL     1      -2.198  -2.573  23.965  0.00  0.00    -0.376 OA
ATOM      3  O   UNL     1       1.162   0.893  24.066  0.00  0.00    -0.270 OA
ATOM      4  N   UNL     1      -0.740  -0.030  25.077  0.00  0.00    -0.293 N 
ATOM      5  C   UNL     1      -3.035  -1.000  25.633  0.00  0.00    +0.161 C 
ATOM      6  C   UNL     1      -2.057   0.176  25.692  0.00  0.00    +0.142 C 
ATOM      7  C   UNL     1      -0.262  -1.403  24.903  0.00  0.00    +0.136 C 
ATOM      8  C   UNL     1      -3.190  -1.584  24.231  0.00  0.00    +0.193 C 
ATOM      9  C   UNL     1      -0.902  -2.055  23.683  0.00  0.00    +0.179 C 
ATOM     10  C   UNL     1       0.068   1.022  24.615  0.00  0.00    +0.247 C 
ENDROOT
BRANCH  10  12
ATOM     12  C   UNL     1      -0.413   2.401  24.792  0.00  0.00    +0.037 A 
ATOM     14  C   UNL     1      -1.180   2.735  25.907  0.00  0.00    +0.013 A 
ATOM     15  C   UNL     1      -0.098   3.375  23.845  0.00  0.00    +0.013 A 
ATOM     18  C   UNL     1      -1.635   4.043  26.076  0.00  0.00    +0.001 A 
ATOM     19  C   UNL     1      -0.552   4.684  24.013  0.00  0.00    +0.001 A 
ATOM     22  C   UNL     1      -1.320   5.017  25.129  0.00  0.00    +0.000 A 
ENDBRANCH  10  12
BRANCH   5   2
ATOM      2  O   UNL     1      -4.301  -0.505  26.073  0.00  0.00    -0.368 OA
BRANCH   2  11
ATOM     11  C   UNL     1      -5.089  -0.064  24.978  0.00  0.00    +0.195 C 
BRANCH  11  13
ATOM     13  C   UNL     1      -4.951   1.425  24.847  0.00  0.00    -0.022 A 
ATOM     16  C   UNL     1      -5.574   2.268  25.768  0.00  0.00    +0.006 A 
ATOM     17  C   UNL     1      -4.201   1.966  23.802  0.00  0.00    +0.006 A 
ATOM     20  C   UNL     1      -5.447   3.651  25.644  0.00  0.00    +0.000 A 
ATOM     21  C   UNL     1      -4.074   3.349  23.680  0.00  0.00    +0.000 A 
ATOM     23  C   UNL     1      -4.697   4.192  24.600  0.00  0.00    +0.000 A 
ENDBRANCH  11  13
ENDBRANCH   2  11
ENDBRANCH   5   2
TORSDOF 4
ENDMDL
MODEL 3
REMARK VINA RESULT:      -6.3      2.792      4.289
REMARK  Name = 75367813
REMARK  4 active torsions:
REMARK  status: ('A' for Active; 'I' for Inactive)
REMARK    1  A    between atoms: O_2  and  C_5
REMARK    2  A    between atoms: O_2  and  C_11
REMARK    3  A    between atoms: C_10  and  C_12
REMARK    4  A    between atoms: C_11  and  C_13
REMARK                            x       y       z     vdW  Elec       q    Type
REMARK                         _______ _______ _______ _____ _____    ______ ____
ROOT
ATOM      1  O   UNL     1      -0.893  -2.450  25.097  0.00  0.00    -0.376 OA
ATOM      3  O   UNL     1      -5.402  -0.913  24.313  0.00  0.00    -0.270 OA
ATOM      4  N   UNL     1      -3.111  -0.516  24.017  0.00  0.00    -0.293 N 
ATOM      5  C   UNL     1      -0.595  -0.171  24.280  0.00  0.00    +0.161 C 
ATOM      6  C   UNL     1      -1.988   0.427  24.058  0.00  0.00    +0.142 C 
ATOM      7  C   UNL     1      -2.831  -1.917  23.698  0.00  0.00    +0.136 C 
ATOM      8  C   UNL     1      -0.532  -1.124  25.471  0.00  0.00    +0.193 C 
ATOM      9  C   UNL     1      -2.290  -2.658  24.915  0.00  0.00    +0.179 C 
ATOM     10  C   UNL     1      -4.436  -0.149  24.304  0.00  0.00    +0.247 C 
ENDROOT
BRANCH  10  12
ATOM     12  C   UNL     1      -4.717   1.259  24.624  0.00  0.00    +0.037 A 
ATOM     14  C   UNL     1      -4.221   2.273  23.804  0.00  0.00    +0.013 A 
ATOM     15  C   UNL     1      -5.482   1.580  25.745  0.00  0.00    +0.013 A 
ATOM     18  C   UNL     1      -4.489   3.608  24.106  0.00  0.00    +0.001 A 
ATOM     19  C   UNL     1      -5.750   2.915  26.047  0.00  0.00    +0.001 A 
ATOM     22  C   UNL     1      -5.254   3.929  25.227  0.00  0.00    +0.000 A 
ENDBRANCH  10  12
BRANCH   5   2
ATOM      2  O   UNL     1       0.291   0.925  24.513  0.00  0.00    -0.368 OA
BRANCH   2  11
ATOM     11  C   UNL     1       0.027   1.543  25.762  0.00  0.00    +0.195 C 
BRANCH  11  13
ATOM     13  C   UNL     1      -0.576   2.896  25.520  0.00  0.00    -0.022 A 
ATOM     16  C   UNL     1      -0.085   3.705  24.495  0.00  0.00    +0.006 A 
ATOM     17  C   UNL     1      -1.626   3.346  26.321  0.00  0.00    +0.006 A 
ATOM     20  C   UNL     1      -0.645   4.963  24.271  0.00  0.00    +0.000 A 
ATOM     21  C   UNL     1      -2.185   4.603  26.096  0.00  0.00    +0.000 A 
ATOM     23  C   UNL     1      -1.695   5.411  25.071  0.00  0.00    +0.000 A 
ENDBRANCH  11  13
ENDBRANCH   2  11
ENDBRANCH   5   2
TORSDOF 4
ENDMDL
MODEL 4
REMARK VINA RESULT:      -6.3      2.489      6.413
REMARK  Name = 75367813
REMARK  4 active torsions:
REMARK  status: ('A' for Active; 'I' for Inactive)
REMARK    1  A    between atoms: O_2  and  C_5
REMARK    2  A    between atoms: O_2  and  C_11
REMARK    3  A    between atoms: C_10  and  C_12
REMARK    4  A    between atoms: C_11  and  C_13
REMARK                            x       y       z     vdW  Elec       q    Type
REMARK                         _______ _______ _______ _____ _____    ______ ____
ROOT
ATOM      1  O   UNL     1      -4.098   4.452  26.326  0.00  0.00    -0.376 OA
ATOM      3  O   UNL     1       0.541   3.322  25.609  0.00  0.00    -0.270 OA
ATOM      4  N   UNL     1      -1.647   3.268  24.771  0.00  0.00    -0.293 N 
ATOM      5  C   UNL     1      -4.153   2.974  24.385  0.00  0.00    +0.161 C 
ATOM      6  C   UNL     1      -2.719   2.510  24.115  0.00  0.00    +0.142 C 
ATOM      7  C   UNL     1      -1.929   4.637  25.204  0.00  0.00    +0.136 C 
ATOM      8  C   UNL     1      -4.459   3.151  25.871  0.00  0.00    +0.193 C 
ATOM      9  C   UNL     1      -2.700   4.648  26.519  0.00  0.00    +0.179 C 
ATOM     10  C   UNL     1      -0.375   2.733  25.035  0.00  0.00    +0.247 C 
ENDROOT
BRANCH  10  12
ATOM     12  C   UNL     1      -0.092   1.357  24.598  0.00  0.00    +0.037 A 
ATOM     14  C   UNL     1      -0.603   0.278  25.318  0.00  0.00    +0.013 A 
ATOM     15  C   UNL     1       0.685   1.133  23.462  0.00  0.00    +0.013 A 
ATOM     18  C   UNL     1      -0.336  -1.027  24.902  0.00  0.00    +0.001 A 
ATOM     19  C   UNL     1       0.953  -0.172  23.046  0.00  0.00    +0.001 A 
ATOM     22  C   UNL     1       0.441  -1.252  23.766  0.00  0.00    +0.000 A 
ENDBRANCH  10  12
BRANCH   5   2
ATOM      2  O   UNL     1      -5.018   1.972  23.848  0.00  0.00    -0.368 OA
BRANCH   2  11
ATOM     11  C   UNL     1      -5.520   1.124  24.870  0.00  0.00    +0.195 C 
BRANCH  11  13
ATOM     13  C   UNL     1      -4.740  -0.158  24.867  0.00  0.00    -0.022 A 
ATOM     16  C   UNL     1      -4.049  -0.558  26.011  0.00  0.00    +0.006 A 
ATOM     17  C   UNL     1      -4.705  -0.950  23.719  0.00  0.00    +0.006 A 
ATOM     20  C   UNL     1      -3.324  -1.749  26.008  0.00  0.00    +0.000 A 
ATOM     21  C   UNL     1      -3.980  -2.141  23.716  0.00  0.00    +0.000 A 
ATOM     23  C   UNL     1      -3.290  -2.541  24.860  0.00  0.00    +0.000 A 
ENDBRANCH  11  13
ENDBRANCH   2  11
ENDBRANCH   5   2
TORSDOF 4
ENDMDL
MODEL 5
REMARK VINA RESULT:      -5.9      2.833      5.330
REMARK  Name = 75367813
REMARK  4 active torsions:
REMARK  status: ('A' for Active; 'I' for Inactive)
REMARK    1  A    between atoms: O_2  and  C_5
REMARK    2  A    between atoms: O_2  and  C_11
REMARK    3  A    between atoms: C_10  and  C_12
REMARK    4  A    between atoms: C_11  and  C_13
REMARK                            x       y       z     vdW  Elec       q    Type
REMARK                         _______ _______ _______ _____ _____    ______ ____
ROOT
ATOM      1  O   UNL     1       0.934   2.410  23.989  0.00  0.00    -0.376 OA
ATOM      3  O   UNL     1      -3.075   5.068  24.401  0.00  0.00    -0.270 OA
ATOM      4  N   UNL     1      -1.786   3.309  25.260  0.00  0.00    -0.293 N 
ATOM      5  C   UNL     1      -0.396   1.201  25.639  0.00  0.00    +0.161 C 
ATOM      6  C   UNL     1      -1.728   1.943  25.793  0.00  0.00    +0.142 C 
ATOM      7  C   UNL     1      -0.530   4.040  25.082  0.00  0.00    +0.136 C 
ATOM      8  C   UNL     1       0.152   1.240  24.214  0.00  0.00    +0.193 C 
ATOM      9  C   UNL     1       0.180   3.604  23.806  0.00  0.00    +0.179 C 
ATOM     10  C   UNL     1      -2.983   3.938  24.880  0.00  0.00    +0.247 C 
ENDROOT
BRANCH  10  12
ATOM     12  C   UNL     1      -4.245   3.204  25.061  0.00  0.00    +0.037 A 
ATOM     14  C   UNL     1      -4.722   2.375  24.046  0.00  0.00    +0.013 A 
ATOM     15  C   UNL     1      -4.963   3.334  26.250  0.00  0.00    +0.013 A 
ATOM     18  C   UNL     1      -5.918   1.678  24.218  0.00  0.00    +0.001 A 
ATOM     19  C   UNL     1      -6.159   2.637  26.423  0.00  0.00    +0.001 A 
ATOM     22  C   UNL     1      -6.636   1.808  25.407  0.00  0.00    +0.000 A 
ENDBRANCH  10  12
BRANCH   5   2
ATOM      2  O   UNL     1      -0.638  -0.158  26.007  0.00  0.00    -0.368 OA
BRANCH   2  11
ATOM     11  C   UNL     1      -0.541  -1.020  24.885  0.00  0.00    +0.195 C 
BRANCH  11  13
ATOM     13  C   UNL     1      -1.904  -1.563  24.568  0.00  0.00    -0.022 A 
ATOM     16  C   UNL     1      -2.122  -2.942  24.563  0.00  0.00    +0.006 A 
ATOM     17  C   UNL     1      -2.953  -0.690  24.276  0.00  0.00    +0.006 A 
ATOM     20  C   UNL     1      -3.388  -3.446  24.267  0.00  0.00    +0.000 A 
ATOM     21  C   UNL     1      -4.218  -1.196  23.981  0.00  0.00    +0.000 A 
ATOM     23  C   UNL     1      -4.436  -2.573  23.976  0.00  0.00    +0.000 A 
ENDBRANCH  11  13
ENDBRANCH   2  11
ENDBRANCH   5   2
TORSDOF 4
ENDMDL
MODEL 6
REMARK VINA RESULT:      -5.7      2.701      5.619
REMARK  Name = 75367813
REMARK  4 active torsions:
REMARK  status: ('A' for Active; 'I' for Inactive)
REMARK    1  A    between atoms: O_2  and  C_5
REMARK    2  A    between atoms: O_2  and  C_11
REMARK    3  A    between atoms: C_10  and  C_12
REMARK    4  A    between atoms: C_11  and  C_13
REMARK                            x       y       z     vdW  Elec       q    Type
REMARK                         _______ _______ _______ _____ _____    ______ ____
ROOT
ATOM      1  O   UNL     1      -4.534  -2.750  23.867  0.00  0.00    -0.376 OA
ATOM      3  O   UNL     1      -0.140  -1.693  25.566  0.00  0.00    -0.270 OA
ATOM      4  N   UNL     1      -2.400  -1.084  25.448  0.00  0.00    -0.293 N 
ATOM      5  C   UNL     1      -4.778  -0.484  24.738  0.00  0.00    +0.161 C 
ATOM      6  C   UNL     1      -3.406  -0.034  25.249  0.00  0.00    +0.142 C 
ATOM      7  C   UNL     1      -2.861  -2.461  25.632  0.00  0.00    +0.136 C 
ATOM      8  C   UNL     1      -4.696  -1.382  23.506  0.00  0.00    +0.193 C 
ATOM      9  C   UNL     1      -3.222  -3.101  24.297  0.00  0.00    +0.179 C 
ATOM     10  C   UNL     1      -1.017  -0.839  25.435  0.00  0.00    +0.247 C 
ENDROOT
BRANCH  10  12
ATOM     12  C   UNL     1      -0.555   0.546  25.251  0.00  0.00    +0.037 A 
ATOM     14  C   UNL     1      -0.246   1.015  23.974  0.00  0.00    +0.013 A 
ATOM     15  C   UNL     1      -0.429   1.390  26.354  0.00  0.00    +0.013 A 
ATOM     18  C   UNL     1       0.191   2.328  23.800  0.00  0.00    +0.001 A 
ATOM     19  C   UNL     1       0.007   2.704  26.180  0.00  0.00    +0.001 A 
ATOM     22  C   UNL     1       0.317   3.173  24.902  0.00  0.00    +0.000 A 
ENDBRANCH  10  12
BRANCH   5   2
ATOM      2  O   UNL     1      -5.501   0.702  24.403  0.00  0.00    -0.368 OA
BRANCH   2  11
ATOM     11  C   UNL     1      -5.539   1.607  25.495  0.00  0.00    +0.195 C 
BRANCH  11  13
ATOM     13  C   UNL     1      -4.535   2.698  25.260  0.00  0.00    -0.022 A 
ATOM     16  C   UNL     1      -4.129   3.005  23.960  0.00  0.00    +0.006 A 
ATOM     17  C   UNL     1      -4.006   3.404  26.340  0.00  0.00    +0.006 A 
ATOM     20  C   UNL     1      -3.195   4.017  23.742  0.00  0.00    +0.000 A 
ATOM     21  C   UNL     1      -3.072   4.416  26.122  0.00  0.00    +0.000 A 
ATOM     23  C   UNL     1      -2.667   4.723  24.823  0.00  0.00    +0.000 A 
ENDBRANCH  11  13
ENDBRANCH   2  11
ENDBRANCH   5   2
TORSDOF 4
ENDMDL
MODEL 7
REMARK VINA RESULT:      -5.5      2.384      5.269
REMARK  Name = 75367813
REMARK  4 active torsions:
REMARK  status: ('A' for Active; 'I' for Inactive)
REMARK    1  A    between atoms: O_2  and  C_5
REMARK    2  A    between atoms: O_2  and  C_11
REMARK    3  A    between atoms: C_10  and  C_12
REMARK    4  A    between atoms: C_11  and  C_13
REMARK                            x       y       z     vdW  Elec       q    Type
REMARK                         _______ _______ _______ _____ _____    ______ ____
ROOT
ATOM      1  O   UNL     1       1.013  -0.665  23.430  0.00  0.00    -0.376 OA
ATOM      3  O   UNL     1      -0.618   3.878  23.350  0.00  0.00    -0.270 OA
ATOM      4  N   UNL     1      -0.286   1.931  24.612  0.00  0.00    -0.293 N 
ATOM      5  C   UNL     1      -0.203  -0.448  25.534  0.00  0.00    +0.161 C 
ATOM      6  C   UNL     1      -0.815   0.956  25.573  0.00  0.00    +0.142 C 
ATOM      7  C   UNL     1       1.047   1.703  24.052  0.00  0.00    +0.136 C 
ATOM      8  C   UNL     1      -0.166  -1.050  24.132  0.00  0.00    +0.193 C 
ATOM      9  C   UNL     1       1.001   0.669  22.933  0.00  0.00    +0.179 C 
ATOM     10  C   UNL     1      -1.010   3.054  24.176  0.00  0.00    +0.247 C 
ENDROOT
BRANCH  10  12
ATOM     12  C   UNL     1      -2.349   3.283  24.740  0.00  0.00    +0.037 A 
ATOM     14  C   UNL     1      -2.489   3.966  25.949  0.00  0.00    +0.013 A 
ATOM     15  C   UNL     1      -3.478   2.820  24.066  0.00  0.00    +0.013 A 
ATOM     18  C   UNL     1      -3.759   4.185  26.483  0.00  0.00    +0.001 A 
ATOM     19  C   UNL     1      -4.748   3.039  24.600  0.00  0.00    +0.001 A 
ATOM     22  C   UNL     1      -4.888   3.722  25.808  0.00  0.00    +0.000 A 
ENDBRANCH  10  12
BRANCH   5   2
ATOM      2  O   UNL     1      -1.013  -1.273  26.374  0.00  0.00    -0.368 OA
BRANCH   2  11
ATOM     11  C   UNL     1      -2.330  -0.756  26.485  0.00  0.00    +0.195 C 
BRANCH  11  13
ATOM     13  C   UNL     1      -3.182  -1.355  25.405  0.00  0.00    -0.022 A 
ATOM     16  C   UNL     1      -3.110  -2.722  25.135  0.00  0.00    +0.006 A 
ATOM     17  C   UNL     1      -4.047  -0.544  24.668  0.00  0.00    +0.006 A 
ATOM     20  C   UNL     1      -3.901  -3.277  24.130  0.00  0.00    +0.000 A 
ATOM     21  C   UNL     1      -4.837  -1.100  23.664  0.00  0.00    +0.000 A 
ATOM     23  C   UNL     1      -4.765  -2.467  23.395  0.00  0.00    +0.000 A 
ENDBRANCH  11  13
ENDBRANCH   2  11
ENDBRANCH   5   2
TORSDOF 4
ENDMDL
MODEL 8
REMARK VINA RESULT:      -5.0     17.950     18.970
REMARK  Name = 75367813
REMARK  4 active torsions:
REMARK  status: ('A' for Active; 'I' for Inactive)
REMARK    1  A    between atoms: O_2  and  C_5
REMARK    2  A    between atoms: O_2  and  C_11
REMARK    3  A    between atoms: C_10  and  C_12
REMARK    4  A    between atoms: C_11  and  C_13
REMARK                            x       y       z     vdW  Elec       q    Type
REMARK                         _______ _______ _______ _____ _____    ______ ____
ROOT
ATOM      1  O   UNL     1      15.861  -8.725  26.729  0.00  0.00    -0.376 OA
ATOM      3  O   UNL     1      17.052  -5.888  23.008  0.00  0.00    -0.270 OA
ATOM      4  N   UNL     1      17.320  -6.353  25.290  0.00  0.00    -0.293 N 
ATOM      5  C   UNL     1      17.022  -6.852  27.775  0.00  0.00    +0.161 C 
ATOM      6  C   UNL     1      17.389  -5.858  26.669  0.00  0.00    +0.142 C 
ATOM      7  C   UNL     1      17.400  -7.798  25.065  0.00  0.00    +0.136 C 
ATOM      8  C   UNL     1      15.692  -7.560  27.531  0.00  0.00    +0.193 C 
ATOM      9  C   UNL     1      16.060  -8.470  25.342  0.00  0.00    +0.179 C 
ATOM     10  C   UNL     1      17.147  -5.514  24.177  0.00  0.00    +0.247 C 
ENDROOT
BRANCH  10  12
ATOM     12  C   UNL     1      17.068  -4.062  24.403  0.00  0.00    +0.037 A 
ATOM     14  C   UNL     1      17.404  -3.531  25.648  0.00  0.00    +0.013 A 
ATOM     15  C   UNL     1      16.660  -3.217  23.372  0.00  0.00    +0.013 A 
ATOM     18  C   UNL     1      17.331  -2.155  25.863  0.00  0.00    +0.001 A 
ATOM     19  C   UNL     1      16.587  -1.840  23.585  0.00  0.00    +0.001 A 
ATOM     22  C   UNL     1      16.923  -1.309  24.831  0.00  0.00    +0.000 A 
ENDBRANCH  10  12
BRANCH   5   2
ATOM      2  O   UNL     1      16.934  -6.103  28.989  0.00  0.00    -0.368 OA
BRANCH   2  11
ATOM     11  C   UNL     1      15.587  -5.777  29.296  0.00  0.00    +0.195 C 
BRANCH  11  13
ATOM     13  C   UNL     1      15.569  -4.772  30.410  0.00  0.00    -0.022 A 
ATOM     16  C   UNL     1      16.237  -3.555  30.263  0.00  0.00    +0.006 A 
ATOM     17  C   UNL     1      14.886  -5.053  31.593  0.00  0.00    +0.006 A 
ATOM     20  C   UNL     1      16.222  -2.622  31.299  0.00  0.00    +0.000 A 
ATOM     21  C   UNL     1      14.871  -4.119  32.628  0.00  0.00    +0.000 A 
ATOM     23  C   UNL     1      15.538  -2.904  32.481  0.00  0.00    +0.000 A 
ENDBRANCH  11  13
ENDBRANCH   2  11
ENDBRANCH   5   2
TORSDOF 4
ENDMDL
MODEL 9
REMARK VINA RESULT:      -3.0      1.748      5.730
REMARK  Name = 75367813
REMARK  4 active torsions:
REMARK  status: ('A' for Active; 'I' for Inactive)
REMARK    1  A    between atoms: O_2  and  C_5
REMARK    2  A    between atoms: O_2  and  C_11
REMARK    3  A    between atoms: C_10  and  C_12
REMARK    4  A    between atoms: C_11  and  C_13
REMARK                            x       y       z     vdW  Elec       q    Type
REMARK                         _______ _______ _______ _____ _____    ______ ____
ROOT
ATOM      1  O   UNL     1      -4.734  -2.587  24.203  0.00  0.00    -0.376 OA
ATOM      3  O   UNL     1      -0.038  -2.543  25.327  0.00  0.00    -0.270 OA
ATOM      4  N   UNL     1      -2.021  -1.311  25.120  0.00  0.00    -0.293 N 
ATOM      5  C   UNL     1      -4.195  -0.212  24.357  0.00  0.00    +0.161 C 
ATOM      6  C   UNL     1      -2.697  -0.095  24.653  0.00  0.00    +0.142 C 
ATOM      7  C   UNL     1      -2.832  -2.366  25.730  0.00  0.00    +0.136 C 
ATOM      8  C   UNL     1      -4.539  -1.392  23.452  0.00  0.00    +0.193 C 
ATOM      9  C   UNL     1      -3.535  -3.201  24.666  0.00  0.00    +0.179 C 
ATOM     10  C   UNL     1      -0.640  -1.527  24.979  0.00  0.00    +0.247 C 
ENDROOT
BRANCH  10  12
ATOM     12  C   UNL     1       0.174  -0.466  24.367  0.00  0.00    +0.037 A 
ATOM     14  C   UNL     1       0.050   0.851  24.810  0.00  0.00    +0.013 A 
ATOM     15  C   UNL     1       1.071  -0.777  23.346  0.00  0.00    +0.013 A 
ATOM     18  C   UNL     1       0.823   1.858  24.231  0.00  0.00    +0.001 A 
ATOM     19  C   UNL     1       1.845   0.229  22.767  0.00  0.00    +0.001 A 
ATOM     22  C   UNL     1       1.721   1.547  23.210  0.00  0.00    +0.000 A 
ENDBRANCH  10  12
BRANCH   5   2
ATOM      2  O   UNL     1      -4.583   1.001  23.708  0.00  0.00    -0.368 OA
BRANCH   2  11
ATOM     11  C   UNL     1      -3.449   1.763  23.324  0.00  0.00    +0.195 C 
BRANCH  11  13
ATOM     13  C   UNL     1      -3.221   2.846  24.337  0.00  0.00    -0.022 A 
ATOM     16  C   UNL     1      -4.182   3.097  25.318  0.00  0.00    +0.006 A 
ATOM     17  C   UNL     1      -2.050   3.602  24.299  0.00  0.00    +0.006 A 
ATOM     20  C   UNL     1      -3.971   4.104  26.259  0.00  0.00    +0.000 A 
ATOM     21  C   UNL     1      -1.839   4.609  25.241  0.00  0.00    +0.000 A 
ATOM     23  C   UNL     1      -2.799   4.860  26.220  0.00  0.00    +0.000 A 
ENDBRANCH  11  13
ENDBRANCH   2  11
ENDBRANCH   5   2
TORSDOF 4
ENDMDL
