MODEL 1
REMARK VINA RESULT:      -6.9      0.000      0.000
REMARK  Name = 26744260
REMARK  7 active torsions:
REMARK  status: ('A' for Active; 'I' for Inactive)
REMARK    1  A    between atoms: O_2  and  C_12
REMARK    2  A    between atoms: O_3  and  C_18
REMARK    3  A    between atoms: O_3  and  C_23
REMARK    4  A    between atoms: N_4  and  C_16
REMARK    5  A    between atoms: C_7  and  C_14
REMARK    6  A    between atoms: C_8  and  C_15
REMARK    7  A    between atoms: C_16  and  C_17
REMARK                            x       y       z     vdW  Elec       q    Type
REMARK                         _______ _______ _______ _____ _____    ______ ____
ROOT
ATOM      4  N   UNL     1      -2.650   0.055  23.488  0.00  0.00    -0.284 NA
ATOM      8  C   UNL     1      -1.673   0.190  24.588  0.00  0.00    +0.149 C 
ATOM     11  C   UNL     1      -1.753  -1.145  25.352  0.00  0.00    +0.061 C 
ATOM     12  C   UNL     1      -2.833  -1.946  24.635  0.00  0.00    +0.130 C 
ATOM     13  C   UNL     1      -3.672  -0.880  23.954  0.00  0.00    +0.116 C 
ENDROOT
BRANCH   8  15
ATOM      1  O   UNL     1       0.231   1.714  24.422  0.00  0.00    -0.336 OA
ATOM      5  N   UNL     1       0.534  -0.246  23.381  0.00  0.00    -0.194 NA
ATOM      6  N   UNL     1       1.513   1.765  23.862  0.00  0.00    -0.061 NA
ATOM     14  C   UNL     1       1.619   0.574  23.265  0.00  0.00    +0.175 A 
ATOM     15  C   UNL     1      -0.276   0.497  24.092  0.00  0.00    +0.245 A 
BRANCH  14   7
ATOM      7  C   UNL     1       2.879   0.158  22.500  0.00  0.00    +0.060 C 
ATOM      9  C   UNL     1       4.001  -0.489  23.258  0.00  0.00    +0.012 C 
ATOM     10  C   UNL     1       4.153   0.913  22.745  0.00  0.00    +0.012 C 
ENDBRANCH  14   7
ENDBRANCH   8  15
BRANCH  12   2
ATOM      2  O   UNL     1      -3.594  -2.702  25.558  0.00  0.00    -0.390 OA
ATOM     24  H   UNL     1      -4.452  -2.258  25.662  0.00  0.00    +0.210 HD
ENDBRANCH  12   2
BRANCH   4  16
ATOM     16  C   UNL     1      -3.221   1.328  23.068  0.00  0.00    +0.124 C 
BRANCH  16  17
ATOM     17  C   UNL     1      -3.984   1.994  24.181  0.00  0.00    +0.008 A 
ATOM     18  C   UNL     1      -3.501   3.159  24.779  0.00  0.00    +0.124 A 
ATOM     19  C   UNL     1      -5.186   1.435  24.615  0.00  0.00    +0.008 A 
ATOM     20  C   UNL     1      -4.220   3.763  25.810  0.00  0.00    +0.046 A 
ATOM     21  C   UNL     1      -5.905   2.039  25.646  0.00  0.00    +0.001 A 
ATOM     22  C   UNL     1      -5.421   3.203  26.244  0.00  0.00    +0.004 A 
BRANCH  18   3
ATOM      3  O   UNL     1      -2.328   3.719  24.369  0.00  0.00    -0.495 OA
ATOM     23  C   UNL     1      -1.662   4.577  25.292  0.00  0.00    +0.277 C 
ENDBRANCH  18   3
ENDBRANCH  16  17
ENDBRANCH   4  16
TORSDOF 6
ENDMDL
MODEL 2
REMARK VINA RESULT:      -6.4      1.199      2.210
REMARK  Name = 26744260
REMARK  7 active torsions:
REMARK  status: ('A' for Active; 'I' for Inactive)
REMARK    1  A    between atoms: O_2  and  C_12
REMARK    2  A    between atoms: O_3  and  C_18
REMARK    3  A    between atoms: O_3  and  C_23
REMARK    4  A    between atoms: N_4  and  C_16
REMARK    5  A    between atoms: C_7  and  C_14
REMARK    6  A    between atoms: C_8  and  C_15
REMARK    7  A    between atoms: C_16  and  C_17
REMARK                            x       y       z     vdW  Elec       q    Type
REMARK                         _______ _______ _______ _____ _____    ______ ____
ROOT
ATOM      4  N   UNL     1      -2.269   0.401  23.494  0.00  0.00    -0.284 NA
ATOM      8  C   UNL     1      -1.149   0.423  24.457  0.00  0.00    +0.149 C 
ATOM     11  C   UNL     1      -1.386  -0.797  25.367  0.00  0.00    +0.061 C 
ATOM     12  C   UNL     1      -2.687  -1.414  24.866  0.00  0.00    +0.130 C 
ATOM     13  C   UNL     1      -3.383  -0.259  24.171  0.00  0.00    +0.116 C 
ENDROOT
BRANCH   8  15
ATOM      1  O   UNL     1       0.375  -0.549  22.812  0.00  0.00    -0.336 OA
ATOM      5  N   UNL     1       1.254   1.145  23.984  0.00  0.00    -0.194 NA
ATOM      6  N   UNL     1       1.683  -0.385  22.339  0.00  0.00    -0.061 NA
ATOM     14  C   UNL     1       2.136   0.632  23.077  0.00  0.00    +0.175 A 
ATOM     15  C   UNL     1       0.204   0.391  23.778  0.00  0.00    +0.245 A 
BRANCH  14   7
ATOM      7  C   UNL     1       3.555   1.185  22.915  0.00  0.00    +0.060 C 
ATOM      9  C   UNL     1       4.556   0.383  22.138  0.00  0.00    +0.012 C 
ATOM     10  C   UNL     1       4.682   0.498  23.629  0.00  0.00    +0.012 C 
ENDBRANCH  14   7
ENDBRANCH   8  15
BRANCH  12   2
ATOM      2  O   UNL     1      -3.452  -1.916  25.946  0.00  0.00    -0.390 OA
ATOM     24  H   UNL     1      -3.299  -1.333  26.708  0.00  0.00    +0.210 HD
ENDBRANCH  12   2
BRANCH   4  16
ATOM     16  C   UNL     1      -2.631   1.724  23.005  0.00  0.00    +0.124 C 
BRANCH  16  17
ATOM     17  C   UNL     1      -2.746   2.724  24.124  0.00  0.00    +0.008 A 
ATOM     18  C   UNL     1      -3.978   2.977  24.730  0.00  0.00    +0.124 A 
ATOM     19  C   UNL     1      -1.606   3.402  24.555  0.00  0.00    +0.008 A 
ATOM     20  C   UNL     1      -4.068   3.907  25.765  0.00  0.00    +0.046 A 
ATOM     21  C   UNL     1      -1.695   4.332  25.589  0.00  0.00    +0.001 A 
ATOM     22  C   UNL     1      -2.927   4.585  26.195  0.00  0.00    +0.004 A 
BRANCH  18   3
ATOM      3  O   UNL     1      -5.103   2.325  24.322  0.00  0.00    -0.495 OA
ATOM     23  C   UNL     1      -6.048   1.974  25.330  0.00  0.00    +0.277 C 
ENDBRANCH  18   3
ENDBRANCH  16  17
ENDBRANCH   4  16
TORSDOF 6
ENDMDL
MODEL 3
REMARK VINA RESULT:      -6.0      2.549      4.890
REMARK  Name = 26744260
REMARK  7 active torsions:
REMARK  status: ('A' for Active; 'I' for Inactive)
REMARK    1  A    between atoms: O_2  and  C_12
REMARK    2  A    between atoms: O_3  and  C_18
REMARK    3  A    between atoms: O_3  and  C_23
REMARK    4  A    between atoms: N_4  and  C_16
REMARK    5  A    between atoms: C_7  and  C_14
REMARK    6  A    between atoms: C_8  and  C_15
REMARK    7  A    between atoms: C_16  and  C_17
REMARK                            x       y       z     vdW  Elec       q    Type
REMARK                         _______ _______ _______ _____ _____    ______ ____
ROOT
ATOM      4  N   UNL     1      -3.524   1.916  24.827  0.00  0.00    -0.284 NA
ATOM      8  C   UNL     1      -2.704   3.140  24.943  0.00  0.00    +0.149 C 
ATOM     11  C   UNL     1      -3.599   4.145  25.693  0.00  0.00    +0.061 C 
ATOM     12  C   UNL     1      -4.916   3.410  25.916  0.00  0.00    +0.130 C 
ATOM     13  C   UNL     1      -4.919   2.352  24.828  0.00  0.00    +0.116 C 
ENDROOT
BRANCH   8  15
ATOM      1  O   UNL     1      -0.260   3.117  24.916  0.00  0.00    -0.336 OA
ATOM      5  N   UNL     1      -1.160   2.491  26.870  0.00  0.00    -0.194 NA
ATOM      6  N   UNL     1       0.815   2.827  25.766  0.00  0.00    -0.061 NA
ATOM     14  C   UNL     1       0.204   2.465  26.898  0.00  0.00    +0.175 A 
ATOM     15  C   UNL     1      -1.386   2.894  25.645  0.00  0.00    +0.245 A 
BRANCH  14   7
ATOM      7  C   UNL     1       0.988   2.049  28.146  0.00  0.00    +0.060 C 
ATOM      9  C   UNL     1       0.784   2.822  29.415  0.00  0.00    +0.012 C 
ATOM     10  C   UNL     1       2.070   2.956  28.653  0.00  0.00    +0.012 C 
ENDBRANCH  14   7
ENDBRANCH   8  15
BRANCH  12   2
ATOM      2  O   UNL     1      -6.012   4.297  25.789  0.00  0.00    -0.390 OA
ATOM     24  H   UNL     1      -6.484   4.062  24.973  0.00  0.00    +0.210 HD
ENDBRANCH  12   2
BRANCH   4  16
ATOM     16  C   UNL     1      -3.200   1.117  23.654  0.00  0.00    +0.124 C 
BRANCH  16  17
ATOM     17  C   UNL     1      -3.082  -0.346  23.988  0.00  0.00    +0.008 A 
ATOM     18  C   UNL     1      -1.864  -0.886  24.403  0.00  0.00    +0.124 A 
ATOM     19  C   UNL     1      -4.206  -1.165  23.877  0.00  0.00    +0.008 A 
ATOM     20  C   UNL     1      -1.772  -2.244  24.708  0.00  0.00    +0.046 A 
ATOM     21  C   UNL     1      -4.113  -2.522  24.181  0.00  0.00    +0.001 A 
ATOM     22  C   UNL     1      -2.896  -3.062  24.597  0.00  0.00    +0.004 A 
BRANCH  18   3
ATOM      3  O   UNL     1      -0.756  -0.102  24.517  0.00  0.00    -0.495 OA
ATOM     23  C   UNL     1       0.322  -0.371  23.623  0.00  0.00    +0.277 C 
ENDBRANCH  18   3
ENDBRANCH  16  17
ENDBRANCH   4  16
TORSDOF 6
ENDMDL
MODEL 4
REMARK VINA RESULT:      -5.3      1.711      3.914
REMARK  Name = 26744260
REMARK  7 active torsions:
REMARK  status: ('A' for Active; 'I' for Inactive)
REMARK    1  A    between atoms: O_2  and  C_12
REMARK    2  A    between atoms: O_3  and  C_18
REMARK    3  A    between atoms: O_3  and  C_23
REMARK    4  A    between atoms: N_4  and  C_16
REMARK    5  A    between atoms: C_7  and  C_14
REMARK    6  A    between atoms: C_8  and  C_15
REMARK    7  A    between atoms: C_16  and  C_17
REMARK                            x       y       z     vdW  Elec       q    Type
REMARK                         _______ _______ _______ _____ _____    ______ ____
ROOT
ATOM      4  N   UNL     1      -0.440   1.606  25.631  0.00  0.00    -0.284 NA
ATOM      8  C   UNL     1      -0.503   1.556  24.156  0.00  0.00    +0.149 C 
ATOM     11  C   UNL     1      -0.722   3.017  23.721  0.00  0.00    +0.061 C 
ATOM     12  C   UNL     1      -0.815   3.806  25.021  0.00  0.00    +0.130 C 
ATOM     13  C   UNL     1      -1.235   2.763  26.040  0.00  0.00    +0.116 C 
ENDROOT
BRANCH   8  15
ATOM      1  O   UNL     1       0.546  -0.146  22.750  0.00  0.00    -0.336 OA
ATOM      5  N   UNL     1       1.989   1.308  23.657  0.00  0.00    -0.194 NA
ATOM      6  N   UNL     1       1.817  -0.528  22.303  0.00  0.00    -0.061 NA
ATOM     14  C   UNL     1       2.614   0.376  22.879  0.00  0.00    +0.175 A 
ATOM     15  C   UNL     1       0.737   0.943  23.541  0.00  0.00    +0.245 A 
BRANCH  14   7
ATOM      7  C   UNL     1       4.132   0.366  22.679  0.00  0.00    +0.060 C 
ATOM      9  C   UNL     1       4.946  -0.672  23.393  0.00  0.00    +0.012 C 
ATOM     10  C   UNL     1       5.013   0.762  23.827  0.00  0.00    +0.012 C 
ENDBRANCH  14   7
ENDBRANCH   8  15
BRANCH  12   2
ATOM      2  O   UNL     1      -1.769   4.846  24.910  0.00  0.00    -0.390 OA
ATOM     24  H   UNL     1      -2.454   4.548  24.288  0.00  0.00    +0.210 HD
ENDBRANCH  12   2
BRANCH   4  16
ATOM     16  C   UNL     1      -0.894   0.377  26.267  0.00  0.00    +0.124 C 
BRANCH  16  17
ATOM     17  C   UNL     1      -1.893  -0.360  25.415  0.00  0.00    +0.008 A 
ATOM     18  C   UNL     1      -3.119   0.222  25.091  0.00  0.00    +0.124 A 
ATOM     19  C   UNL     1      -1.582  -1.637  24.949  0.00  0.00    +0.008 A 
ATOM     20  C   UNL     1      -4.033  -0.475  24.301  0.00  0.00    +0.046 A 
ATOM     21  C   UNL     1      -2.496  -2.334  24.160  0.00  0.00    +0.001 A 
ATOM     22  C   UNL     1      -3.723  -1.752  23.836  0.00  0.00    +0.004 A 
BRANCH  18   3
ATOM      3  O   UNL     1      -3.440   1.468  25.537  0.00  0.00    -0.495 OA
ATOM     23  C   UNL     1      -4.592   2.084  24.966  0.00  0.00    +0.277 C 
ENDBRANCH  18   3
ENDBRANCH  16  17
ENDBRANCH   4  16
TORSDOF 6
ENDMDL
MODEL 5
REMARK VINA RESULT:      -5.0      2.471      3.263
REMARK  Name = 26744260
REMARK  7 active torsions:
REMARK  status: ('A' for Active; 'I' for Inactive)
REMARK    1  A    between atoms: O_2  and  C_12
REMARK    2  A    between atoms: O_3  and  C_18
REMARK    3  A    between atoms: O_3  and  C_23
REMARK    4  A    between atoms: N_4  and  C_16
REMARK    5  A    between atoms: C_7  and  C_14
REMARK    6  A    between atoms: C_8  and  C_15
REMARK    7  A    between atoms: C_16  and  C_17
REMARK                            x       y       z     vdW  Elec       q    Type
REMARK                         _______ _______ _______ _____ _____    ______ ____
ROOT
ATOM      4  N   UNL     1      -3.326  -0.517  24.651  0.00  0.00    -0.284 NA
ATOM      8  C   UNL     1      -2.080  -0.489  25.446  0.00  0.00    +0.149 C 
ATOM     11  C   UNL     1      -1.300  -1.741  25.000  0.00  0.00    +0.061 C 
ATOM     12  C   UNL     1      -2.207  -2.431  23.989  0.00  0.00    +0.130 C 
ATOM     13  C   UNL     1      -3.591  -1.922  24.348  0.00  0.00    +0.116 C 
ENDROOT
BRANCH   8  15
ATOM      1  O   UNL     1      -0.135   0.688  24.547  0.00  0.00    -0.336 OA
ATOM      5  N   UNL     1      -1.565   2.002  25.665  0.00  0.00    -0.194 NA
ATOM      6  N   UNL     1       0.404   1.980  24.500  0.00  0.00    -0.061 NA
ATOM     14  C   UNL     1      -0.495   2.697  25.179  0.00  0.00    +0.175 A 
ATOM     15  C   UNL     1      -1.294   0.790  25.251  0.00  0.00    +0.245 A 
BRANCH  14   7
ATOM      7  C   UNL     1      -0.333   4.204  25.399  0.00  0.00    +0.060 C 
ATOM      9  C   UNL     1      -1.558   5.070  25.384  0.00  0.00    +0.012 C 
ATOM     10  C   UNL     1      -0.583   5.132  24.246  0.00  0.00    +0.012 C 
ENDBRANCH  14   7
ENDBRANCH   8  15
BRANCH  12   2
ATOM      2  O   UNL     1      -2.116  -3.838  24.113  0.00  0.00    -0.390 OA
ATOM     24  H   UNL     1      -3.022  -4.185  24.166  0.00  0.00    +0.210 HD
ENDBRANCH  12   2
BRANCH   4  16
ATOM     16  C   UNL     1      -4.450   0.120  25.323  0.00  0.00    +0.124 C 
BRANCH  16  17
ATOM     17  C   UNL     1      -4.547   1.584  24.987  0.00  0.00    +0.008 A 
ATOM     18  C   UNL     1      -4.012   2.080  23.797  0.00  0.00    +0.124 A 
ATOM     19  C   UNL     1      -5.179   2.449  25.880  0.00  0.00    +0.008 A 
ATOM     20  C   UNL     1      -4.110   3.439  23.502  0.00  0.00    +0.046 A 
ATOM     21  C   UNL     1      -5.277   3.808  25.585  0.00  0.00    +0.001 A 
ATOM     22  C   UNL     1      -4.742   4.303  24.395  0.00  0.00    +0.004 A 
BRANCH  18   3
ATOM      3  O   UNL     1      -3.390   1.250  22.913  0.00  0.00    -0.495 OA
ATOM     23  C   UNL     1      -2.434   1.839  22.034  0.00  0.00    +0.277 C 
ENDBRANCH  18   3
ENDBRANCH  16  17
ENDBRANCH   4  16
TORSDOF 6
ENDMDL
MODEL 6
REMARK VINA RESULT:      -4.9      1.155      2.248
REMARK  Name = 26744260
REMARK  7 active torsions:
REMARK  status: ('A' for Active; 'I' for Inactive)
REMARK    1  A    between atoms: O_2  and  C_12
REMARK    2  A    between atoms: O_3  and  C_18
REMARK    3  A    between atoms: O_3  and  C_23
REMARK    4  A    between atoms: N_4  and  C_16
REMARK    5  A    between atoms: C_7  and  C_14
REMARK    6  A    between atoms: C_8  and  C_15
REMARK    7  A    between atoms: C_16  and  C_17
REMARK                            x       y       z     vdW  Elec       q    Type
REMARK                         _______ _______ _______ _____ _____    ______ ____
ROOT
ATOM      4  N   UNL     1      -2.644   0.029  24.870  0.00  0.00    -0.284 NA
ATOM      8  C   UNL     1      -1.436  -0.813  24.983  0.00  0.00    +0.149 C 
ATOM     11  C   UNL     1      -1.828  -2.155  24.337  0.00  0.00    +0.061 C 
ATOM     12  C   UNL     1      -3.288  -1.987  23.933  0.00  0.00    +0.130 C 
ATOM     13  C   UNL     1      -3.785  -0.885  24.852  0.00  0.00    +0.116 C 
ENDROOT
BRANCH   8  15
ATOM      1  O   UNL     1      -0.032   1.144  24.561  0.00  0.00    -0.336 OA
ATOM      5  N   UNL     1       0.686  -0.731  23.565  0.00  0.00    -0.194 NA
ATOM      6  N   UNL     1       1.132   1.493  23.865  0.00  0.00    -0.061 NA
ATOM     14  C   UNL     1       1.497   0.336  23.305  0.00  0.00    +0.175 A 
ATOM     15  C   UNL     1      -0.223  -0.182  24.331  0.00  0.00    +0.245 A 
BRANCH  14   7
ATOM      7  C   UNL     1       2.746   0.217  22.427  0.00  0.00    +0.060 C 
ATOM      9  C   UNL     1       3.991  -0.370  23.021  0.00  0.00    +0.012 C 
ATOM     10  C   UNL     1       3.923   1.100  22.724  0.00  0.00    +0.012 C 
ENDBRANCH  14   7
ENDBRANCH   8  15
BRANCH  12   2
ATOM      2  O   UNL     1      -4.003  -3.192  24.124  0.00  0.00    -0.390 OA
ATOM     24  H   UNL     1      -3.422  -3.922  23.854  0.00  0.00    +0.210 HD
ENDBRANCH  12   2
BRANCH   4  16
ATOM     16  C   UNL     1      -2.754   1.021  25.931  0.00  0.00    +0.124 C 
BRANCH  16  17
ATOM     17  C   UNL     1      -2.701   2.426  25.392  0.00  0.00    +0.008 A 
ATOM     18  C   UNL     1      -3.742   2.929  24.611  0.00  0.00    +0.124 A 
ATOM     19  C   UNL     1      -1.596   3.226  25.681  0.00  0.00    +0.008 A 
ATOM     20  C   UNL     1      -3.677   4.233  24.120  0.00  0.00    +0.046 A 
ATOM     21  C   UNL     1      -1.531   4.529  25.189  0.00  0.00    +0.001 A 
ATOM     22  C   UNL     1      -2.572   5.033  24.408  0.00  0.00    +0.004 A 
BRANCH  18   3
ATOM      3  O   UNL     1      -4.829   2.162  24.319  0.00  0.00    -0.495 OA
ATOM     23  C   UNL     1      -5.913   2.195  25.244  0.00  0.00    +0.277 C 
ENDBRANCH  18   3
ENDBRANCH  16  17
ENDBRANCH   4  16
TORSDOF 6
ENDMDL
MODEL 7
REMARK VINA RESULT:      -4.9      1.907      5.256
REMARK  Name = 26744260
REMARK  7 active torsions:
REMARK  status: ('A' for Active; 'I' for Inactive)
REMARK    1  A    between atoms: O_2  and  C_12
REMARK    2  A    between atoms: O_3  and  C_18
REMARK    3  A    between atoms: O_3  and  C_23
REMARK    4  A    between atoms: N_4  and  C_16
REMARK    5  A    between atoms: C_7  and  C_14
REMARK    6  A    between atoms: C_8  and  C_15
REMARK    7  A    between atoms: C_16  and  C_17
REMARK                            x       y       z     vdW  Elec       q    Type
REMARK                         _______ _______ _______ _____ _____    ______ ____
ROOT
ATOM      4  N   UNL     1      -2.127  -1.147  24.960  0.00  0.00    -0.284 NA
ATOM      8  C   UNL     1      -2.719  -0.705  23.681  0.00  0.00    +0.149 C 
ATOM     11  C   UNL     1      -3.898  -1.667  23.438  0.00  0.00    +0.061 C 
ATOM     12  C   UNL     1      -3.859  -2.640  24.610  0.00  0.00    +0.130 C 
ATOM     13  C   UNL     1      -2.417  -2.575  25.079  0.00  0.00    +0.116 C 
ENDROOT
BRANCH   8  15
ATOM      1  O   UNL     1      -2.860   1.484  22.601  0.00  0.00    -0.336 OA
ATOM      5  N   UNL     1      -3.759   1.415  24.651  0.00  0.00    -0.194 NA
ATOM      6  N   UNL     1      -3.344   2.772  22.857  0.00  0.00    -0.061 NA
ATOM     14  C   UNL     1      -3.860   2.653  24.084  0.00  0.00    +0.175 A 
ATOM     15  C   UNL     1      -3.145   0.748  23.707  0.00  0.00    +0.245 A 
BRANCH  14   7
ATOM      7  C   UNL     1      -4.521   3.831  24.806  0.00  0.00    +0.060 C 
ATOM      9  C   UNL     1      -4.348   3.954  26.290  0.00  0.00    +0.012 C 
ATOM     10  C   UNL     1      -5.678   3.557  25.721  0.00  0.00    +0.012 C 
ENDBRANCH  14   7
ENDBRANCH   8  15
BRANCH  12   2
ATOM      2  O   UNL     1      -4.216  -3.944  24.191  0.00  0.00    -0.390 OA
ATOM     24  H   UNL     1      -3.775  -4.108  23.341  0.00  0.00    +0.210 HD
ENDBRANCH  12   2
BRANCH   4  16
ATOM     16  C   UNL     1      -0.701  -0.867  25.060  0.00  0.00    +0.124 C 
BRANCH  16  17
ATOM     17  C   UNL     1      -0.417   0.611  25.042  0.00  0.00    +0.008 A 
ATOM     18  C   UNL     1       0.234   1.199  23.957  0.00  0.00    +0.124 A 
ATOM     19  C   UNL     1      -0.812   1.394  26.126  0.00  0.00    +0.008 A 
ATOM     20  C   UNL     1       0.490   2.570  23.957  0.00  0.00    +0.046 A 
ATOM     21  C   UNL     1      -0.555   2.765  26.127  0.00  0.00    +0.001 A 
ATOM     22  C   UNL     1       0.096   3.353  25.042  0.00  0.00    +0.004 A 
BRANCH  18   3
ATOM      3  O   UNL     1       0.627   0.449  22.889  0.00  0.00    -0.495 OA
ATOM     23  C   UNL     1       2.022   0.180  22.765  0.00  0.00    +0.277 C 
ENDBRANCH  18   3
ENDBRANCH  16  17
ENDBRANCH   4  16
TORSDOF 6
ENDMDL
MODEL 8
REMARK VINA RESULT:      -4.8      1.769      4.737
REMARK  Name = 26744260
REMARK  7 active torsions:
REMARK  status: ('A' for Active; 'I' for Inactive)
REMARK    1  A    between atoms: O_2  and  C_12
REMARK    2  A    between atoms: O_3  and  C_18
REMARK    3  A    between atoms: O_3  and  C_23
REMARK    4  A    between atoms: N_4  and  C_16
REMARK    5  A    between atoms: C_7  and  C_14
REMARK    6  A    between atoms: C_8  and  C_15
REMARK    7  A    between atoms: C_16  and  C_17
REMARK                            x       y       z     vdW  Elec       q    Type
REMARK                         _______ _______ _______ _____ _____    ______ ____
ROOT
ATOM      4  N   UNL     1      -4.392   1.569  25.375  0.00  0.00    -0.284 NA
ATOM      8  C   UNL     1      -3.775   2.338  24.275  0.00  0.00    +0.149 C 
ATOM     11  C   UNL     1      -4.235   3.791  24.502  0.00  0.00    +0.061 C 
ATOM     12  C   UNL     1      -5.142   3.730  25.725  0.00  0.00    +0.130 C 
ATOM     13  C   UNL     1      -5.609   2.286  25.749  0.00  0.00    +0.116 C 
ENDROOT
BRANCH   8  15
ATOM      1  O   UNL     1      -1.569   2.970  25.118  0.00  0.00    -0.336 OA
ATOM      5  N   UNL     1      -1.520   1.441  23.482  0.00  0.00    -0.194 NA
ATOM      6  N   UNL     1      -0.218   2.673  24.902  0.00  0.00    -0.061 NA
ATOM     14  C   UNL     1      -0.270   1.765  23.925  0.00  0.00    +0.175 A 
ATOM     15  C   UNL     1      -2.268   2.201  24.241  0.00  0.00    +0.245 A 
BRANCH  14   7
ATOM      7  C   UNL     1       0.994   1.128  23.339  0.00  0.00    +0.060 C 
ATOM      9  C   UNL     1       0.845   0.013  22.347  0.00  0.00    +0.012 C 
ATOM     10  C   UNL     1       1.342  -0.277  23.732  0.00  0.00    +0.012 C 
ENDBRANCH  14   7
ENDBRANCH   8  15
BRANCH  12   2
ATOM      2  O   UNL     1      -6.226   4.630  25.592  0.00  0.00    -0.390 OA
ATOM     24  H   UNL     1      -7.030   4.101  25.457  0.00  0.00    +0.210 HD
ENDBRANCH  12   2
BRANCH   4  16
ATOM     16  C   UNL     1      -4.658   0.181  25.026  0.00  0.00    +0.124 C 
BRANCH  16  17
ATOM     17  C   UNL     1      -3.416  -0.666  25.108  0.00  0.00    +0.008 A 
ATOM     18  C   UNL     1      -3.237  -1.754  24.254  0.00  0.00    +0.124 A 
ATOM     19  C   UNL     1      -2.438  -0.353  26.052  0.00  0.00    +0.008 A 
ATOM     20  C   UNL     1      -2.081  -2.529  24.344  0.00  0.00    +0.046 A 
ATOM     21  C   UNL     1      -1.282  -1.128  26.143  0.00  0.00    +0.001 A 
ATOM     22  C   UNL     1      -1.103  -2.216  25.288  0.00  0.00    +0.004 A 
BRANCH  18   3
ATOM      3  O   UNL     1      -4.181  -2.075  23.326  0.00  0.00    -0.495 OA
ATOM     23  C   UNL     1      -4.726  -3.392  23.384  0.00  0.00    +0.277 C 
ENDBRANCH  18   3
ENDBRANCH  16  17
ENDBRANCH   4  16
TORSDOF 6
ENDMDL
MODEL 9
REMARK VINA RESULT:      -4.5      1.422      1.757
REMARK  Name = 26744260
REMARK  7 active torsions:
REMARK  status: ('A' for Active; 'I' for Inactive)
REMARK    1  A    between atoms: O_2  and  C_12
REMARK    2  A    between atoms: O_3  and  C_18
REMARK    3  A    between atoms: O_3  and  C_23
REMARK    4  A    between atoms: N_4  and  C_16
REMARK    5  A    between atoms: C_7  and  C_14
REMARK    6  A    between atoms: C_8  and  C_15
REMARK    7  A    between atoms: C_16  and  C_17
REMARK                            x       y       z     vdW  Elec       q    Type
REMARK                         _______ _______ _______ _____ _____    ______ ____
ROOT
ATOM      4  N   UNL     1      -2.681  -0.399  24.824  0.00  0.00    -0.284 NA
ATOM      8  C   UNL     1      -1.422  -1.171  24.857  0.00  0.00    +0.149 C 
ATOM     11  C   UNL     1      -1.804  -2.570  24.337  0.00  0.00    +0.061 C 
ATOM     12  C   UNL     1      -3.305  -2.500  24.082  0.00  0.00    +0.130 C 
ATOM     13  C   UNL     1      -3.765  -1.367  24.980  0.00  0.00    +0.116 C 
ENDROOT
BRANCH   8  15
ATOM      1  O   UNL     1      -0.584   0.709  23.538  0.00  0.00    -0.336 OA
ATOM      5  N   UNL     1       0.869  -0.983  23.748  0.00  0.00    -0.194 NA
ATOM      6  N   UNL     1       0.565   1.093  22.836  0.00  0.00    -0.061 NA
ATOM     14  C   UNL     1       1.376   0.045  23.006  0.00  0.00    +0.175 A 
ATOM     15  C   UNL     1      -0.321  -0.525  24.044  0.00  0.00    +0.245 A 
BRANCH  14   7
ATOM      7  C   UNL     1       2.784   0.001  22.405  0.00  0.00    +0.060 C 
ATOM      9  C   UNL     1       3.931  -0.397  23.287  0.00  0.00    +0.012 C 
ATOM     10  C   UNL     1       3.786   1.029  22.843  0.00  0.00    +0.012 C 
ENDBRANCH  14   7
ENDBRANCH   8  15
BRANCH  12   2
ATOM      2  O   UNL     1      -3.929  -3.724  24.418  0.00  0.00    -0.390 OA
ATOM     24  H   UNL     1      -4.395  -4.041  23.627  0.00  0.00    +0.210 HD
ENDBRANCH  12   2
BRANCH   4  16
ATOM     16  C   UNL     1      -2.736   0.654  25.829  0.00  0.00    +0.124 C 
BRANCH  16  17
ATOM     17  C   UNL     1      -2.961   2.008  25.212  0.00  0.00    +0.008 A 
ATOM     18  C   UNL     1      -2.159   3.094  25.564  0.00  0.00    +0.124 A 
ATOM     19  C   UNL     1      -3.985   2.171  24.278  0.00  0.00    +0.008 A 
ATOM     20  C   UNL     1      -2.382   4.342  24.983  0.00  0.00    +0.046 A 
ATOM     21  C   UNL     1      -4.208   3.419  23.698  0.00  0.00    +0.001 A 
ATOM     22  C   UNL     1      -3.406   4.505  24.050  0.00  0.00    +0.004 A 
BRANCH  18   3
ATOM      3  O   UNL     1      -1.155   2.954  26.474  0.00  0.00    -0.495 OA
ATOM     23  C   UNL     1       0.157   2.729  25.962  0.00  0.00    +0.277 C 
ENDBRANCH  18   3
ENDBRANCH  16  17
ENDBRANCH   4  16
TORSDOF 6
ENDMDL
MODEL 10
REMARK VINA RESULT:      -4.3      2.496      3.662
REMARK  Name = 26744260
REMARK  7 active torsions:
REMARK  status: ('A' for Active; 'I' for Inactive)
REMARK    1  A    between atoms: O_2  and  C_12
REMARK    2  A    between atoms: O_3  and  C_18
REMARK    3  A    between atoms: O_3  and  C_23
REMARK    4  A    between atoms: N_4  and  C_16
REMARK    5  A    between atoms: C_7  and  C_14
REMARK    6  A    between atoms: C_8  and  C_15
REMARK    7  A    between atoms: C_16  and  C_17
REMARK                            x       y       z     vdW  Elec       q    Type
REMARK                         _______ _______ _______ _____ _____    ______ ____
ROOT
ATOM      4  N   UNL     1      -2.327  -0.972  24.360  0.00  0.00    -0.284 NA
ATOM      8  C   UNL     1      -1.586  -0.417  25.511  0.00  0.00    +0.149 C 
ATOM     11  C   UNL     1      -0.488  -1.455  25.811  0.00  0.00    +0.061 C 
ATOM     12  C   UNL     1      -0.721  -2.577  24.806  0.00  0.00    +0.130 C 
ATOM     13  C   UNL     1      -2.186  -2.425  24.439  0.00  0.00    +0.116 C 
ENDROOT
BRANCH   8  15
ATOM      1  O   UNL     1      -0.030   1.038  24.313  0.00  0.00    -0.336 OA
ATOM      5  N   UNL     1      -1.364   2.115  25.755  0.00  0.00    -0.194 NA
ATOM      6  N   UNL     1       0.317   2.392  24.229  0.00  0.00    -0.061 NA
ATOM     14  C   UNL     1      -0.512   2.962  25.108  0.00  0.00    +0.175 A 
ATOM     15  C   UNL     1      -1.027   0.962  25.234  0.00  0.00    +0.245 A 
BRANCH  14   7
ATOM      7  C   UNL     1      -0.506   4.471  25.370  0.00  0.00    +0.060 C 
ATOM      9  C   UNL     1      -1.812   5.210  25.356  0.00  0.00    +0.012 C 
ATOM     10  C   UNL     1      -0.830   5.401  24.237  0.00  0.00    +0.012 C 
ENDBRANCH  14   7
ENDBRANCH   8  15
BRANCH  12   2
ATOM      2  O   UNL     1      -0.455  -3.838  25.391  0.00  0.00    -0.390 OA
ATOM     24  H   UNL     1       0.491  -3.862  25.613  0.00  0.00    +0.210 HD
ENDBRANCH  12   2
BRANCH   4  16
ATOM     16  C   UNL     1      -3.723  -0.559  24.323  0.00  0.00    +0.124 C 
BRANCH  16  17
ATOM     17  C   UNL     1      -3.865   0.907  24.009  0.00  0.00    +0.008 A 
ATOM     18  C   UNL     1      -4.694   1.724  24.779  0.00  0.00    +0.124 A 
ATOM     19  C   UNL     1      -3.158   1.446  22.934  0.00  0.00    +0.008 A 
ATOM     20  C   UNL     1      -4.814   3.079  24.473  0.00  0.00    +0.046 A 
ATOM     21  C   UNL     1      -3.280   2.801  22.628  0.00  0.00    +0.001 A 
ATOM     22  C   UNL     1      -4.108   3.618  23.398  0.00  0.00    +0.004 A 
BRANCH  18   3
ATOM      3  O   UNL     1      -5.392   1.215  25.832  0.00  0.00    -0.495 OA
ATOM     23  C   UNL     1      -6.319   2.086  26.477  0.00  0.00    +0.277 C 
ENDBRANCH  18   3
ENDBRANCH  16  17
ENDBRANCH   4  16
TORSDOF 6
ENDMDL
