MODEL 1
REMARK VINA RESULT:      -4.6      0.000      0.000
REMARK  Name = 75536611
REMARK  7 active torsions:
REMARK  status: ('A' for Active; 'I' for Inactive)
REMARK    1  A    between atoms: O_4  and  C_9
REMARK    2  A    between atoms: N_6  and  C_8
REMARK    3  A    between atoms: N_6  and  C_13
REMARK    4  A    between atoms: N_7  and  C_12
REMARK    5  A    between atoms: C_10  and  C_12
REMARK    6  A    between atoms: C_13  and  C_14
REMARK    7  A    between atoms: C_15  and  C_17
REMARK                            x       y       z     vdW  Elec       q    Type
REMARK                         _______ _______ _______ _____ _____    ______ ____
ROOT
ATOM      3  O   UNL     1      -1.715  -2.676  23.961  0.00  0.00    -0.371 OA
ATOM      8  C   UNL     1      -0.029  -1.067  24.417  0.00  0.00    +0.111 C 
ATOM      9  C   UNL     1      -1.238  -0.776  25.287  0.00  0.00    +0.164 C 
ATOM     10  C   UNL     1      -1.943  -2.126  25.270  0.00  0.00    +0.165 C 
ATOM     11  C   UNL     1      -0.637  -1.952  23.342  0.00  0.00    +0.181 C 
ENDROOT
BRANCH   9   4
ATOM      4  O   UNL     1      -0.885  -0.383  26.599  0.00  0.00    -0.388 OA
ATOM     24  H   UNL     1      -0.738  -1.184  27.130  0.00  0.00    +0.210 HD
ENDBRANCH   9   4
BRANCH   8   6
ATOM      6  N   UNL     1       0.603   0.127  23.878  0.00  0.00    -0.304 NA
ATOM     23  H   UNL     1       1.193   0.543  24.599  0.00  0.00    +0.123 HD
BRANCH   6  13
ATOM     13  C   UNL     1       1.423  -0.192  22.716  0.00  0.00    +0.124 C 
BRANCH  13  14
ATOM      1  S   UNL     1       3.891   1.089  22.678  0.00  0.00    -0.100 S 
ATOM     14  C   UNL     1       2.888  -0.244  23.061  0.00  0.00    +0.004 A 
ATOM     16  C   UNL     1       3.589  -1.259  23.673  0.00  0.00    +0.012 A 
ATOM     18  C   UNL     1       4.968  -0.938  23.831  0.00  0.00    +0.008 A 
ATOM     19  C   UNL     1       5.269   0.310  23.332  0.00  0.00    +0.045 A 
ENDBRANCH  13  14
ENDBRANCH   6  13
ENDBRANCH   8   6
BRANCH  10  12
ATOM     12  C   UNL     1      -3.435  -2.028  25.533  0.00  0.00    +0.138 C 
BRANCH  12   7
ATOM      5  O   UNL     1      -4.046  -0.168  23.433  0.00  0.00    -0.270 OA
ATOM      7  N   UNL     1      -3.849  -0.664  25.691  0.00  0.00    -0.308 N 
ATOM     15  C   UNL     1      -4.125   0.169  24.611  0.00  0.00    +0.251 C 
ATOM     25  H   UNL     1      -3.923  -0.313  26.639  0.00  0.00    +0.149 HD
BRANCH  15  17
ATOM      2  S   UNL     1      -3.373   2.821  24.739  0.00  0.00    -0.092 S 
ATOM     17  C   UNL     1      -4.517   1.564  24.942  0.00  0.00    +0.074 A 
ATOM     20  C   UNL     1      -5.723   2.033  25.413  0.00  0.00    +0.021 A 
ATOM     21  C   UNL     1      -5.708   3.444  25.610  0.00  0.00    +0.008 A 
ATOM     22  C   UNL     1      -4.491   3.999  25.283  0.00  0.00    +0.046 A 
ENDBRANCH  15  17
ENDBRANCH  12   7
ENDBRANCH  10  12
TORSDOF 7
ENDMDL
MODEL 2
REMARK VINA RESULT:      -4.5      2.981      6.645
REMARK  Name = 75536611
REMARK  7 active torsions:
REMARK  status: ('A' for Active; 'I' for Inactive)
REMARK    1  A    between atoms: O_4  and  C_9
REMARK    2  A    between atoms: N_6  and  C_8
REMARK    3  A    between atoms: N_6  and  C_13
REMARK    4  A    between atoms: N_7  and  C_12
REMARK    5  A    between atoms: C_10  and  C_12
REMARK    6  A    between atoms: C_13  and  C_14
REMARK    7  A    between atoms: C_15  and  C_17
REMARK                            x       y       z     vdW  Elec       q    Type
REMARK                         _______ _______ _______ _____ _____    ______ ____
ROOT
ATOM      3  O   UNL     1       0.090   3.521  23.678  0.00  0.00    -0.371 OA
ATOM      8  C   UNL     1      -0.919   3.882  25.797  0.00  0.00    +0.111 C 
ATOM      9  C   UNL     1      -0.574   2.411  25.658  0.00  0.00    +0.164 C 
ATOM     10  C   UNL     1       0.484   2.460  24.564  0.00  0.00    +0.165 C 
ATOM     11  C   UNL     1      -0.886   4.337  24.347  0.00  0.00    +0.181 C 
ENDROOT
BRANCH   9   4
ATOM      4  O   UNL     1      -0.069   1.852  26.855  0.00  0.00    -0.388 OA
ATOM     24  H   UNL     1      -0.409   2.372  27.603  0.00  0.00    +0.210 HD
ENDBRANCH   9   4
BRANCH   8   6
ATOM      6  N   UNL     1      -2.201   4.123  26.438  0.00  0.00    -0.304 NA
ATOM     23  H   UNL     1      -2.096   4.878  27.115  0.00  0.00    +0.123 HD
BRANCH   6  13
ATOM     13  C   UNL     1      -3.216   4.496  25.460  0.00  0.00    +0.124 C 
BRANCH  13  14
ATOM      1  S   UNL     1      -4.361   2.434  23.986  0.00  0.00    -0.100 S 
ATOM     14  C   UNL     1      -4.303   3.460  25.356  0.00  0.00    +0.004 A 
ATOM     16  C   UNL     1      -5.321   3.192  26.245  0.00  0.00    +0.012 A 
ATOM     18  C   UNL     1      -6.158   2.131  25.796  0.00  0.00    +0.008 A 
ATOM     19  C   UNL     1      -5.750   1.628  24.580  0.00  0.00    +0.045 A 
ENDBRANCH  13  14
ENDBRANCH   6  13
ENDBRANCH   8   6
BRANCH  10  12
ATOM     12  C   UNL     1       0.606   1.161  23.787  0.00  0.00    +0.138 C 
BRANCH  12   7
ATOM      5  O   UNL     1       0.056  -1.354  25.057  0.00  0.00    -0.270 OA
ATOM      7  N   UNL     1      -0.636   0.445  23.767  0.00  0.00    -0.308 N 
ATOM     15  C   UNL     1      -0.814  -0.774  24.413  0.00  0.00    +0.251 C 
ATOM     25  H   UNL     1      -1.397   0.860  23.240  0.00  0.00    +0.149 HD
BRANCH  15  17
ATOM      2  S   UNL     1      -2.332  -3.068  24.621  0.00  0.00    -0.092 S 
ATOM     17  C   UNL     1      -2.153  -1.401  24.274  0.00  0.00    +0.074 A 
ATOM     20  C   UNL     1      -3.342  -0.822  23.890  0.00  0.00    +0.021 A 
ATOM     21  C   UNL     1      -4.415  -1.760  23.878  0.00  0.00    +0.008 A 
ATOM     22  C   UNL     1      -4.005  -3.020  24.256  0.00  0.00    +0.046 A 
ENDBRANCH  15  17
ENDBRANCH  12   7
ENDBRANCH  10  12
TORSDOF 7
ENDMDL
MODEL 3
REMARK VINA RESULT:      -4.5      2.897      4.929
REMARK  Name = 75536611
REMARK  7 active torsions:
REMARK  status: ('A' for Active; 'I' for Inactive)
REMARK    1  A    between atoms: O_4  and  C_9
REMARK    2  A    between atoms: N_6  and  C_8
REMARK    3  A    between atoms: N_6  and  C_13
REMARK    4  A    between atoms: N_7  and  C_12
REMARK    5  A    between atoms: C_10  and  C_12
REMARK    6  A    between atoms: C_13  and  C_14
REMARK    7  A    between atoms: C_15  and  C_17
REMARK                            x       y       z     vdW  Elec       q    Type
REMARK                         _______ _______ _______ _____ _____    ______ ____
ROOT
ATOM      3  O   UNL     1      -3.813   4.292  25.805  0.00  0.00    -0.371 OA
ATOM      8  C   UNL     1      -1.524   4.050  25.222  0.00  0.00    +0.111 C 
ATOM      9  C   UNL     1      -2.364   3.191  24.295  0.00  0.00    +0.164 C 
ATOM     10  C   UNL     1      -3.728   3.851  24.439  0.00  0.00    +0.165 C 
ATOM     11  C   UNL     1      -2.491   4.288  26.370  0.00  0.00    +0.181 C 
ENDROOT
BRANCH   9   4
ATOM      4  O   UNL     1      -1.903   3.219  22.958  0.00  0.00    -0.388 OA
ATOM     24  H   UNL     1      -1.263   2.497  22.839  0.00  0.00    +0.210 HD
ENDBRANCH   9   4
BRANCH   8   6
ATOM      6  N   UNL     1      -0.287   3.414  25.646  0.00  0.00    -0.304 NA
ATOM     23  H   UNL     1       0.122   3.958  26.405  0.00  0.00    +0.123 HD
BRANCH   6  13
ATOM     13  C   UNL     1      -0.528   2.053  26.111  0.00  0.00    +0.124 C 
BRANCH  13  14
ATOM      1  S   UNL     1       0.973   1.422  23.857  0.00  0.00    -0.100 S 
ATOM     14  C   UNL     1      -0.179   1.031  25.061  0.00  0.00    +0.004 A 
ATOM     16  C   UNL     1      -0.672  -0.245  24.908  0.00  0.00    +0.012 A 
ATOM     18  C   UNL     1      -0.097  -0.911  23.789  0.00  0.00    +0.008 A 
ATOM     19  C   UNL     1       0.814  -0.119  23.127  0.00  0.00    +0.045 A 
ENDBRANCH  13  14
ENDBRANCH   6  13
ENDBRANCH   8   6
BRANCH  10  12
ATOM     12  C   UNL     1      -4.884   2.917  24.129  0.00  0.00    +0.138 C 
BRANCH  12   7
ATOM      5  O   UNL     1      -5.488   0.863  26.042  0.00  0.00    -0.270 OA
ATOM      7  N   UNL     1      -4.453   1.550  24.082  0.00  0.00    -0.308 N 
ATOM     15  C   UNL     1      -4.795   0.619  25.058  0.00  0.00    +0.251 C 
ATOM     25  H   UNL     1      -3.864   1.280  23.302  0.00  0.00    +0.149 HD
BRANCH  15  17
ATOM      2  S   UNL     1      -3.363  -1.468  26.157  0.00  0.00    -0.092 S 
ATOM     17  C   UNL     1      -4.246  -0.751  24.878  0.00  0.00    +0.074 A 
ATOM     20  C   UNL     1      -4.342  -1.582  23.785  0.00  0.00    +0.021 A 
ATOM     21  C   UNL     1      -3.679  -2.826  24.000  0.00  0.00    +0.008 A 
ATOM     22  C   UNL     1      -3.104  -2.896  25.249  0.00  0.00    +0.046 A 
ENDBRANCH  15  17
ENDBRANCH  12   7
ENDBRANCH  10  12
TORSDOF 7
ENDMDL
MODEL 4
REMARK VINA RESULT:      -4.4      2.821      6.833
REMARK  Name = 75536611
REMARK  7 active torsions:
REMARK  status: ('A' for Active; 'I' for Inactive)
REMARK    1  A    between atoms: O_4  and  C_9
REMARK    2  A    between atoms: N_6  and  C_8
REMARK    3  A    between atoms: N_6  and  C_13
REMARK    4  A    between atoms: N_7  and  C_12
REMARK    5  A    between atoms: C_10  and  C_12
REMARK    6  A    between atoms: C_13  and  C_14
REMARK    7  A    between atoms: C_15  and  C_17
REMARK                            x       y       z     vdW  Elec       q    Type
REMARK                         _______ _______ _______ _____ _____    ______ ____
ROOT
ATOM      3  O   UNL     1      -3.169   4.314  23.759  0.00  0.00    -0.371 OA
ATOM      8  C   UNL     1      -4.559   3.201  25.331  0.00  0.00    +0.111 C 
ATOM      9  C   UNL     1      -3.196   3.435  25.955  0.00  0.00    +0.164 C 
ATOM     10  C   UNL     1      -2.664   4.564  25.082  0.00  0.00    +0.165 C 
ATOM     11  C   UNL     1      -4.245   3.364  23.853  0.00  0.00    +0.181 C 
ENDROOT
BRANCH   9   4
ATOM      4  O   UNL     1      -3.277   3.816  27.316  0.00  0.00    -0.388 OA
ATOM     24  H   UNL     1      -2.543   4.424  27.507  0.00  0.00    +0.210 HD
ENDBRANCH   9   4
BRANCH   8   6
ATOM      6  N   UNL     1      -5.130   1.902  25.649  0.00  0.00    -0.304 NA
ATOM     23  H   UNL     1      -6.114   2.023  25.888  0.00  0.00    +0.123 HD
BRANCH   6  13
ATOM     13  C   UNL     1      -5.023   0.989  24.516  0.00  0.00    +0.124 C 
BRANCH  13  14
ATOM      1  S   UNL     1      -4.279  -1.593  23.801  0.00  0.00    -0.100 S 
ATOM     14  C   UNL     1      -4.256  -0.257  24.871  0.00  0.00    +0.004 A 
ATOM     16  C   UNL     1      -3.493  -0.504  25.990  0.00  0.00    +0.012 A 
ATOM     18  C   UNL     1      -2.919  -1.808  25.969  0.00  0.00    +0.008 A 
ATOM     19  C   UNL     1      -3.267  -2.508  24.835  0.00  0.00    +0.045 A 
ENDBRANCH  13  14
ENDBRANCH   6  13
ENDBRANCH   8   6
BRANCH  10  12
ATOM     12  C   UNL     1      -1.148   4.633  25.047  0.00  0.00    +0.138 C 
BRANCH  12   7
ATOM      5  O   UNL     1       0.396   2.500  26.191  0.00  0.00    -0.270 OA
ATOM      7  N   UNL     1      -0.589   3.511  24.350  0.00  0.00    -0.308 N 
ATOM     15  C   UNL     1       0.150   2.519  24.988  0.00  0.00    +0.251 C 
ATOM     25  H   UNL     1      -0.741   3.469  23.348  0.00  0.00    +0.149 HD
BRANCH  15  17
ATOM      2  S   UNL     1      -0.276   0.048  23.838  0.00  0.00    -0.092 S 
ATOM     17  C   UNL     1       0.683   1.438  24.121  0.00  0.00    +0.074 A 
ATOM     20  C   UNL     1       1.895   1.371  23.470  0.00  0.00    +0.021 A 
ATOM     21  C   UNL     1       2.039   0.162  22.729  0.00  0.00    +0.008 A 
ATOM     22  C   UNL     1       0.931  -0.648  22.842  0.00  0.00    +0.046 A 
ENDBRANCH  15  17
ENDBRANCH  12   7
ENDBRANCH  10  12
TORSDOF 7
ENDMDL
MODEL 5
REMARK VINA RESULT:      -4.3      2.425      3.270
REMARK  Name = 75536611
REMARK  7 active torsions:
REMARK  status: ('A' for Active; 'I' for Inactive)
REMARK    1  A    between atoms: O_4  and  C_9
REMARK    2  A    between atoms: N_6  and  C_8
REMARK    3  A    between atoms: N_6  and  C_13
REMARK    4  A    between atoms: N_7  and  C_12
REMARK    5  A    between atoms: C_10  and  C_12
REMARK    6  A    between atoms: C_13  and  C_14
REMARK    7  A    between atoms: C_15  and  C_17
REMARK                            x       y       z     vdW  Elec       q    Type
REMARK                         _______ _______ _______ _____ _____    ______ ____
ROOT
ATOM      3  O   UNL     1      -1.852  -2.538  23.898  0.00  0.00    -0.371 OA
ATOM      8  C   UNL     1      -0.109  -1.093  24.617  0.00  0.00    +0.111 C 
ATOM      9  C   UNL     1      -1.318  -0.893  25.512  0.00  0.00    +0.164 C 
ATOM     10  C   UNL     1      -2.076  -2.193  25.275  0.00  0.00    +0.165 C 
ATOM     11  C   UNL     1      -0.737  -1.770  23.410  0.00  0.00    +0.181 C 
ENDROOT
BRANCH   9   4
ATOM      4  O   UNL     1      -0.969  -0.728  26.873  0.00  0.00    -0.388 OA
ATOM     24  H   UNL     1      -0.338   0.008  26.940  0.00  0.00    +0.210 HD
ENDBRANCH   9   4
BRANCH   8   6
ATOM      6  N   UNL     1       0.577   0.144  24.280  0.00  0.00    -0.304 NA
ATOM     23  H   UNL     1       1.382  -0.074  23.692  0.00  0.00    +0.123 HD
BRANCH   6  13
ATOM     13  C   UNL     1      -0.306   1.056  23.561  0.00  0.00    +0.124 C 
BRANCH  13  14
ATOM      1  S   UNL     1      -0.512   3.827  23.645  0.00  0.00    -0.100 S 
ATOM     14  C   UNL     1      -0.627   2.282  24.373  0.00  0.00    +0.004 A 
ATOM     16  C   UNL     1      -1.022   2.359  25.690  0.00  0.00    +0.012 A 
ATOM     18  C   UNL     1      -1.234   3.705  26.107  0.00  0.00    +0.008 A 
ATOM     19  C   UNL     1      -0.991   4.605  25.094  0.00  0.00    +0.045 A 
ENDBRANCH  13  14
ENDBRANCH   6  13
ENDBRANCH   8   6
BRANCH  10  12
ATOM     12  C   UNL     1      -3.566  -2.076  25.538  0.00  0.00    +0.138 C 
BRANCH  12   7
ATOM      5  O   UNL     1      -4.031  -0.301  23.331  0.00  0.00    -0.270 OA
ATOM      7  N   UNL     1      -3.978  -0.704  25.615  0.00  0.00    -0.308 N 
ATOM     15  C   UNL     1      -4.180   0.086  24.487  0.00  0.00    +0.251 C 
ATOM     25  H   UNL     1      -4.106  -0.313  26.542  0.00  0.00    +0.149 HD
BRANCH  15  17
ATOM      2  S   UNL     1      -5.797   1.823  25.893  0.00  0.00    -0.092 S 
ATOM     17  C   UNL     1      -4.579   1.495  24.736  0.00  0.00    +0.074 A 
ATOM     20  C   UNL     1      -4.097   2.645  24.152  0.00  0.00    +0.021 A 
ATOM     21  C   UNL     1      -4.737   3.812  24.661  0.00  0.00    +0.008 A 
ATOM     22  C   UNL     1      -5.684   3.509  25.615  0.00  0.00    +0.046 A 
ENDBRANCH  15  17
ENDBRANCH  12   7
ENDBRANCH  10  12
TORSDOF 7
ENDMDL
MODEL 6
REMARK VINA RESULT:      -4.1     15.730     17.664
REMARK  Name = 75536611
REMARK  7 active torsions:
REMARK  status: ('A' for Active; 'I' for Inactive)
REMARK    1  A    between atoms: O_4  and  C_9
REMARK    2  A    between atoms: N_6  and  C_8
REMARK    3  A    between atoms: N_6  and  C_13
REMARK    4  A    between atoms: N_7  and  C_12
REMARK    5  A    between atoms: C_10  and  C_12
REMARK    6  A    between atoms: C_13  and  C_14
REMARK    7  A    between atoms: C_15  and  C_17
REMARK                            x       y       z     vdW  Elec       q    Type
REMARK                         _______ _______ _______ _____ _____    ______ ____
ROOT
ATOM      3  O   UNL     1      -4.305  -8.864  10.833  0.00  0.00    -0.371 OA
ATOM      8  C   UNL     1      -6.255  -8.285   9.605  0.00  0.00    +0.111 C 
ATOM      9  C   UNL     1      -6.540  -9.526  10.430  0.00  0.00    +0.164 C 
ATOM     10  C   UNL     1      -5.451  -9.431  11.490  0.00  0.00    +0.165 C 
ATOM     11  C   UNL     1      -4.735  -8.275   9.593  0.00  0.00    +0.181 C 
ENDROOT
BRANCH   9   4
ATOM      4  O   UNL     1      -7.834  -9.517  11.002  0.00  0.00    -0.388 OA
ATOM     24  H   UNL     1      -7.790  -9.958  11.867  0.00  0.00    +0.210 HD
ENDBRANCH   9   4
BRANCH   8   6
ATOM      6  N   UNL     1      -6.833  -8.326   8.272  0.00  0.00    -0.304 NA
ATOM     23  H   UNL     1      -6.409  -9.094   7.750  0.00  0.00    +0.123 HD
BRANCH   6  13
ATOM     13  C   UNL     1      -8.276  -8.529   8.330  0.00  0.00    +0.124 C 
BRANCH  13  14
ATOM      1  S   UNL     1     -10.590  -7.264   9.211  0.00  0.00    -0.100 S 
ATOM     14  C   UNL     1      -9.016  -7.234   8.539  0.00  0.00    +0.004 A 
ATOM     16  C   UNL     1      -8.598  -5.953   8.256  0.00  0.00    +0.012 A 
ATOM     18  C   UNL     1      -9.583  -4.982   8.596  0.00  0.00    +0.008 A 
ATOM     19  C   UNL     1     -10.717  -5.558   9.125  0.00  0.00    +0.045 A 
ENDBRANCH  13  14
ENDBRANCH   6  13
ENDBRANCH   8   6
BRANCH  10  12
ATOM     12  C   UNL     1      -5.083 -10.773  12.097  0.00  0.00    +0.138 C 
BRANCH  12   7
ATOM      5  O   UNL     1      -7.334 -10.410  13.842  0.00  0.00    -0.270 OA
ATOM      7  N   UNL     1      -5.054 -10.709  13.530  0.00  0.00    -0.308 N 
ATOM     15  C   UNL     1      -6.200 -10.529  14.299  0.00  0.00    +0.251 C 
ATOM     25  H   UNL     1      -4.147 -10.786  13.976  0.00  0.00    +0.149 HD
BRANCH  15  17
ATOM      2  S   UNL     1      -7.356 -10.216  16.784  0.00  0.00    -0.092 S 
ATOM     17  C   UNL     1      -5.999 -10.457  15.769  0.00  0.00    +0.074 A 
ATOM     20  C   UNL     1      -4.828 -10.561  16.486  0.00  0.00    +0.021 A 
ATOM     21  C   UNL     1      -5.047 -10.439  17.889  0.00  0.00    +0.008 A 
ATOM     22  C   UNL     1      -6.378 -10.248  18.190  0.00  0.00    +0.046 A 
ENDBRANCH  15  17
ENDBRANCH  12   7
ENDBRANCH  10  12
TORSDOF 7
ENDMDL
MODEL 7
REMARK VINA RESULT:      -3.5     15.324     17.959
REMARK  Name = 75536611
REMARK  7 active torsions:
REMARK  status: ('A' for Active; 'I' for Inactive)
REMARK    1  A    between atoms: O_4  and  C_9
REMARK    2  A    between atoms: N_6  and  C_8
REMARK    3  A    between atoms: N_6  and  C_13
REMARK    4  A    between atoms: N_7  and  C_12
REMARK    5  A    between atoms: C_10  and  C_12
REMARK    6  A    between atoms: C_13  and  C_14
REMARK    7  A    between atoms: C_15  and  C_17
REMARK                            x       y       z     vdW  Elec       q    Type
REMARK                         _______ _______ _______ _____ _____    ______ ____
ROOT
ATOM      3  O   UNL     1      16.740   5.710  19.201  0.00  0.00    -0.371 OA
ATOM      8  C   UNL     1      15.732   7.169  17.621  0.00  0.00    +0.111 C 
ATOM      9  C   UNL     1      15.289   7.569  19.016  0.00  0.00    +0.164 C 
ATOM     10  C   UNL     1      16.383   6.934  19.864  0.00  0.00    +0.165 C 
ATOM     11  C   UNL     1      16.228   5.752  17.857  0.00  0.00    +0.181 C 
ENDROOT
BRANCH   9   4
ATOM      4  O   UNL     1      15.234   8.972  19.191  0.00  0.00    -0.388 OA
ATOM     24  H   UNL     1      15.770   9.388  18.495  0.00  0.00    +0.210 HD
ENDBRANCH   9   4
BRANCH   8   6
ATOM      6  N   UNL     1      14.671   7.241  16.630  0.00  0.00    -0.304 NA
ATOM     23  H   UNL     1      13.886   6.670  16.943  0.00  0.00    +0.123 HD
BRANCH   6  13
ATOM     13  C   UNL     1      14.218   8.614  16.443  0.00  0.00    +0.124 C 
BRANCH  13  14
ATOM      1  S   UNL     1      11.938   8.372  18.017  0.00  0.00    -0.100 S 
ATOM     14  C   UNL     1      12.719   8.727  16.536  0.00  0.00    +0.004 A 
ATOM     16  C   UNL     1      11.824   9.094  15.555  0.00  0.00    +0.012 A 
ATOM     18  C   UNL     1      10.480   9.083  16.026  0.00  0.00    +0.008 A 
ATOM     19  C   UNL     1      10.398   8.708  17.349  0.00  0.00    +0.045 A 
ENDBRANCH  13  14
ENDBRANCH   6  13
ENDBRANCH   8   6
BRANCH  10  12
ATOM     12  C   UNL     1      15.945   6.638  21.287  0.00  0.00    +0.138 C 
BRANCH  12   7
ATOM      5  O   UNL     1      14.607   9.019  22.170  0.00  0.00    -0.270 OA
ATOM      7  N   UNL     1      14.531   6.817  21.447  0.00  0.00    -0.308 N 
ATOM     15  C   UNL     1      13.967   8.012  21.883  0.00  0.00    +0.251 C 
ATOM     25  H   UNL     1      13.940   6.019  21.240  0.00  0.00    +0.149 HD
BRANCH  15  17
ATOM      2  S   UNL     1      11.601   6.612  21.645  0.00  0.00    -0.092 S 
ATOM     17  C   UNL     1      12.488   8.027  22.022  0.00  0.00    +0.074 A 
ATOM     20  C   UNL     1      11.670   9.057  22.429  0.00  0.00    +0.021 A 
ATOM     21  C   UNL     1      10.295   8.680  22.431  0.00  0.00    +0.008 A 
ATOM     22  C   UNL     1      10.117   7.375  22.026  0.00  0.00    +0.046 A 
ENDBRANCH  15  17
ENDBRANCH  12   7
ENDBRANCH  10  12
TORSDOF 7
ENDMDL
MODEL 8
REMARK VINA RESULT:      -3.5      3.089      5.585
REMARK  Name = 75536611
REMARK  7 active torsions:
REMARK  status: ('A' for Active; 'I' for Inactive)
REMARK    1  A    between atoms: O_4  and  C_9
REMARK    2  A    between atoms: N_6  and  C_8
REMARK    3  A    between atoms: N_6  and  C_13
REMARK    4  A    between atoms: N_7  and  C_12
REMARK    5  A    between atoms: C_10  and  C_12
REMARK    6  A    between atoms: C_13  and  C_14
REMARK    7  A    between atoms: C_15  and  C_17
REMARK                            x       y       z     vdW  Elec       q    Type
REMARK                         _______ _______ _______ _____ _____    ______ ____
ROOT
ATOM      3  O   UNL     1      -6.054   3.060  25.744  0.00  0.00    -0.371 OA
ATOM      8  C   UNL     1      -4.339   4.051  24.434  0.00  0.00    +0.111 C 
ATOM      9  C   UNL     1      -4.189   2.542  24.385  0.00  0.00    +0.164 C 
ATOM     10  C   UNL     1      -5.589   2.096  24.785  0.00  0.00    +0.165 C 
ATOM     11  C   UNL     1      -5.217   4.227  25.662  0.00  0.00    +0.181 C 
ENDROOT
BRANCH   9   4
ATOM      4  O   UNL     1      -3.834   2.070  23.099  0.00  0.00    -0.388 OA
ATOM     24  H   UNL     1      -4.560   2.274  22.486  0.00  0.00    +0.210 HD
ENDBRANCH   9   4
BRANCH   8   6
ATOM      6  N   UNL     1      -3.074   4.760  24.535  0.00  0.00    -0.304 NA
ATOM     23  H   UNL     1      -3.255   5.764  24.530  0.00  0.00    +0.123 HD
BRANCH   6  13
ATOM     13  C   UNL     1      -2.372   4.409  25.765  0.00  0.00    +0.124 C 
BRANCH  13  14
ATOM      1  S   UNL     1      -0.659   3.265  23.897  0.00  0.00    -0.100 S 
ATOM     14  C   UNL     1      -1.207   3.492  25.503  0.00  0.00    +0.004 A 
ATOM     16  C   UNL     1      -0.469   2.762  26.409  0.00  0.00    +0.012 A 
ATOM     18  C   UNL     1       0.560   2.008  25.777  0.00  0.00    +0.008 A 
ATOM     19  C   UNL     1       0.569   2.188  24.411  0.00  0.00    +0.045 A 
ENDBRANCH  13  14
ENDBRANCH   6  13
ENDBRANCH   8   6
BRANCH  10  12
ATOM     12  C   UNL     1      -5.625   0.707  25.397  0.00  0.00    +0.138 C 
BRANCH  12   7
ATOM      5  O   UNL     1      -4.763  -1.579  23.889  0.00  0.00    -0.270 OA
ATOM      7  N   UNL     1      -4.320   0.110  25.416  0.00  0.00    -0.308 N 
ATOM     15  C   UNL     1      -3.990  -1.003  24.649  0.00  0.00    +0.251 C 
ATOM     25  H   UNL     1      -3.633   0.527  26.033  0.00  0.00    +0.149 HD
BRANCH  15  17
ATOM      2  S   UNL     1      -1.491  -0.638  25.762  0.00  0.00    -0.092 S 
ATOM     17  C   UNL     1      -2.604  -1.517  24.802  0.00  0.00    +0.074 A 
ATOM     20  C   UNL     1      -2.040  -2.652  24.264  0.00  0.00    +0.021 A 
ATOM     21  C   UNL     1      -0.675  -2.803  24.645  0.00  0.00    +0.008 A 
ATOM     22  C   UNL     1      -0.249  -1.777  25.460  0.00  0.00    +0.046 A 
ENDBRANCH  15  17
ENDBRANCH  12   7
ENDBRANCH  10  12
TORSDOF 7
ENDMDL
MODEL 9
REMARK VINA RESULT:      -3.0      1.834      2.227
REMARK  Name = 75536611
REMARK  7 active torsions:
REMARK  status: ('A' for Active; 'I' for Inactive)
REMARK    1  A    between atoms: O_4  and  C_9
REMARK    2  A    between atoms: N_6  and  C_8
REMARK    3  A    between atoms: N_6  and  C_13
REMARK    4  A    between atoms: N_7  and  C_12
REMARK    5  A    between atoms: C_10  and  C_12
REMARK    6  A    between atoms: C_13  and  C_14
REMARK    7  A    between atoms: C_15  and  C_17
REMARK                            x       y       z     vdW  Elec       q    Type
REMARK                         _______ _______ _______ _____ _____    ______ ____
ROOT
ATOM      3  O   UNL     1      -2.883  -2.170  24.201  0.00  0.00    -0.371 OA
ATOM      8  C   UNL     1      -0.685  -1.960  25.076  0.00  0.00    +0.111 C 
ATOM      9  C   UNL     1      -1.523  -0.792  25.560  0.00  0.00    +0.164 C 
ATOM     10  C   UNL     1      -2.930  -1.345  25.377  0.00  0.00    +0.165 C 
ATOM     11  C   UNL     1      -1.506  -2.451  23.895  0.00  0.00    +0.181 C 
ENDROOT
BRANCH   9   4
ATOM      4  O   UNL     1      -1.261  -0.453  26.908  0.00  0.00    -0.388 OA
ATOM     24  H   UNL     1      -0.518  -0.996  27.221  0.00  0.00    +0.210 HD
ENDBRANCH   9   4
BRANCH   8   6
ATOM      6  N   UNL     1       0.673  -1.592  24.708  0.00  0.00    -0.304 NA
ATOM     23  H   UNL     1       1.174  -2.429  24.411  0.00  0.00    +0.123 HD
BRANCH   6  13
ATOM     13  C   UNL     1       0.678  -0.621  23.620  0.00  0.00    +0.124 C 
BRANCH  13  14
ATOM      1  S   UNL     1       3.401  -1.176  23.526  0.00  0.00    -0.100 S 
ATOM     14  C   UNL     1       2.067  -0.124  23.318  0.00  0.00    +0.004 A 
ATOM     16  C   UNL     1       2.454   1.120  22.874  0.00  0.00    +0.012 A 
ATOM     18  C   UNL     1       3.865   1.212  22.702  0.00  0.00    +0.008 A 
ATOM     19  C   UNL     1       4.503   0.033  23.022  0.00  0.00    +0.045 A 
ENDBRANCH  13  14
ENDBRANCH   6  13
ENDBRANCH   8   6
BRANCH  10  12
ATOM     12  C   UNL     1      -3.982  -0.265  25.204  0.00  0.00    +0.138 C 
BRANCH  12   7
ATOM      5  O   UNL     1      -2.806   1.325  23.123  0.00  0.00    -0.270 OA
ATOM      7  N   UNL     1      -3.415   1.045  25.344  0.00  0.00    -0.308 N 
ATOM     15  C   UNL     1      -2.864   1.746  24.276  0.00  0.00    +0.251 C 
ATOM     25  H   UNL     1      -3.416   1.450  26.274  0.00  0.00    +0.149 HD
BRANCH  15  17
ATOM      2  S   UNL     1      -0.629   3.363  24.303  0.00  0.00    -0.092 S 
ATOM     17  C   UNL     1      -2.292   3.080  24.591  0.00  0.00    +0.074 A 
ATOM     20  C   UNL     1      -2.924   4.190  25.107  0.00  0.00    +0.021 A 
ATOM     21  C   UNL     1      -2.030   5.288  25.269  0.00  0.00    +0.008 A 
ATOM     22  C   UNL     1      -0.749   4.975  24.870  0.00  0.00    +0.046 A 
ENDBRANCH  15  17
ENDBRANCH  12   7
ENDBRANCH  10  12
TORSDOF 7
ENDMDL
MODEL 10
REMARK VINA RESULT:      -3.0      2.528      7.698
REMARK  Name = 75536611
REMARK  7 active torsions:
REMARK  status: ('A' for Active; 'I' for Inactive)
REMARK    1  A    between atoms: O_4  and  C_9
REMARK    2  A    between atoms: N_6  and  C_8
REMARK    3  A    between atoms: N_6  and  C_13
REMARK    4  A    between atoms: N_7  and  C_12
REMARK    5  A    between atoms: C_10  and  C_12
REMARK    6  A    between atoms: C_13  and  C_14
REMARK    7  A    between atoms: C_15  and  C_17
REMARK                            x       y       z     vdW  Elec       q    Type
REMARK                         _______ _______ _______ _____ _____    ______ ____
ROOT
ATOM      3  O   UNL     1      -0.344   4.115  24.132  0.00  0.00    -0.371 OA
ATOM      8  C   UNL     1      -1.768   3.645  25.974  0.00  0.00    +0.111 C 
ATOM      9  C   UNL     1      -1.240   2.339  25.412  0.00  0.00    +0.164 C 
ATOM     10  C   UNL     1      -0.007   2.821  24.659  0.00  0.00    +0.165 C 
ATOM     11  C   UNL     1      -1.515   4.596  24.815  0.00  0.00    +0.181 C 
ENDROOT
BRANCH   9   4
ATOM      4  O   UNL     1      -0.908   1.404  26.421  0.00  0.00    -0.388 OA
ATOM     24  H   UNL     1      -1.252   1.734  27.268  0.00  0.00    +0.210 HD
ENDBRANCH   9   4
BRANCH   8   6
ATOM      6  N   UNL     1      -3.167   3.589  26.366  0.00  0.00    -0.304 NA
ATOM     23  H   UNL     1      -3.420   4.468  26.817  0.00  0.00    +0.123 HD
BRANCH   6  13
ATOM     13  C   UNL     1      -4.029   3.381  25.208  0.00  0.00    +0.124 C 
BRANCH  13  14
ATOM      1  S   UNL     1      -3.310   1.490  23.300  0.00  0.00    -0.100 S 
ATOM     14  C   UNL     1      -4.051   1.939  24.777  0.00  0.00    +0.004 A 
ATOM     16  C   UNL     1      -4.609   0.859  25.424  0.00  0.00    +0.012 A 
ATOM     18  C   UNL     1      -4.425  -0.353  24.699  0.00  0.00    +0.008 A 
ATOM     19  C   UNL     1      -3.734  -0.154  23.524  0.00  0.00    +0.045 A 
ENDBRANCH  13  14
ENDBRANCH   6  13
ENDBRANCH   8   6
BRANCH  10  12
ATOM     12  C   UNL     1       0.405   1.898  23.526  0.00  0.00    +0.138 C 
BRANCH  12   7
ATOM      5  O   UNL     1       1.708  -0.171  22.021  0.00  0.00    -0.270 OA
ATOM      7  N   UNL     1       1.756   1.443  23.687  0.00  0.00    -0.308 N 
ATOM     15  C   UNL     1       2.307   0.429  22.909  0.00  0.00    +0.251 C 
ATOM     25  H   UNL     1       2.307   1.886  24.414  0.00  0.00    +0.149 HD
BRANCH  15  17
ATOM      2  S   UNL     1       4.045  -1.519  23.803  0.00  0.00    -0.092 S 
ATOM     17  C   UNL     1       3.711   0.055  23.219  0.00  0.00    +0.074 A 
ATOM     20  C   UNL     1       4.853   0.817  23.102  0.00  0.00    +0.021 A 
ATOM     21  C   UNL     1       6.018   0.098  23.500  0.00  0.00    +0.008 A 
ATOM     22  C   UNL     1       5.721  -1.185  23.904  0.00  0.00    +0.046 A 
ENDBRANCH  15  17
ENDBRANCH  12   7
ENDBRANCH  10  12
TORSDOF 7
ENDMDL
