MODEL 1
REMARK VINA RESULT:      -3.4      0.000      0.000
REMARK  Name = 26762149
REMARK  7 active torsions:
REMARK  status: ('A' for Active; 'I' for Inactive)
REMARK    1  A    between atoms: N_6  and  C_11
REMARK    2  A    between atoms: N_8  and  C_24
REMARK    3  A    between atoms: C_10  and  C_15
REMARK    4  A    between atoms: C_15  and  C_17
REMARK    5  A    between atoms: C_17  and  C_18
REMARK    6  A    between atoms: C_24  and  C_25
REMARK    7  A    between atoms: C_24  and  C_26
REMARK                            x       y       z     vdW  Elec       q    Type
REMARK                         _______ _______ _______ _____ _____    ______ ____
ROOT
ATOM      1  O   UNL     1      15.221 -10.356  27.859  0.00  0.00    -0.274 OA
ATOM      4  N   UNL     1      17.293  -7.417  28.209  0.00  0.00    -0.285 NA
ATOM      5  N   UNL     1      15.120  -8.380  26.727  0.00  0.00    -0.313 N 
ATOM      9  C   UNL     1      17.088  -8.865  28.146  0.00  0.00    +0.145 C 
ATOM     10  C   UNL     1      16.970  -6.748  26.950  0.00  0.00    +0.075 C 
ATOM     11  C   UNL     1      16.837  -8.070  30.422  0.00  0.00    +0.090 C 
ATOM     12  C   UNL     1      17.281  -9.282  29.602  0.00  0.00    +0.052 C 
ATOM     13  C   UNL     1      16.614  -6.944  29.413  0.00  0.00    +0.107 C 
ATOM     14  C   UNL     1      15.525  -7.004  26.533  0.00  0.00    +0.123 C 
ATOM     16  C   UNL     1      15.720  -9.259  27.601  0.00  0.00    +0.230 C 
ATOM     27  H   UNL     1      14.236  -8.665  26.316  0.00  0.00    +0.149 HD
ENDROOT
BRANCH  11   6
ATOM      3  O   UNL     1      14.244  -6.807  30.047  0.00  0.00    -0.253 OA
ATOM      6  N   UNL     1      15.575  -8.365  31.137  0.00  0.00    -0.295 N 
ATOM      8  N   UNL     1      13.352  -8.173  31.696  0.00  0.00    -0.297 N 
ATOM     19  C   UNL     1      14.378  -7.699  30.883  0.00  0.00    +0.300 C 
ATOM     28  H   UNL     1      15.565  -9.143  31.792  0.00  0.00    +0.151 HD
ATOM     29  H   UNL     1      13.579  -8.859  32.409  0.00  0.00    +0.150 HD
BRANCH   8  24
ATOM     24  C   UNL     1      12.005  -7.656  31.638  0.00  0.00    +0.068 C 
ATOM     25  C   UNL     1      11.861  -6.452  32.559  0.00  0.00    +0.027 C 
ATOM     26  C   UNL     1      10.999  -8.744  31.990  0.00  0.00    +0.027 C 
ENDBRANCH   8  24
ENDBRANCH  11   6
BRANCH  10  15
ATOM     15  C   UNL     1      17.273  -5.250  26.993  0.00  0.00    +0.029 C 
BRANCH  15  17
ATOM     17  C   UNL     1      17.312  -4.627  25.606  0.00  0.00    +0.097 C 
BRANCH  17  18
ATOM      2  O   UNL     1      17.403  -2.554  26.776  0.00  0.00    -0.276 OA
ATOM      7  N   UNL     1      17.157  -2.460  24.481  0.00  0.00    -0.301 N 
ATOM     18  C   UNL     1      17.298  -3.121  25.688  0.00  0.00    +0.216 C 
ATOM     20  C   UNL     1      17.118  -1.008  24.390  0.00  0.00    +0.108 C 
ATOM     21  C   UNL     1      17.032  -3.071  23.161  0.00  0.00    +0.108 C 
ATOM     22  C   UNL     1      17.285  -0.715  22.907  0.00  0.00    +0.020 C 
ATOM     23  C   UNL     1      16.628  -1.922  22.248  0.00  0.00    +0.020 C 
ENDBRANCH  17  18
ENDBRANCH  15  17
ENDBRANCH  10  15
TORSDOF 5
ENDMDL
MODEL 2
REMARK VINA RESULT:      -2.9     17.161     19.217
REMARK  Name = 26762149
REMARK  7 active torsions:
REMARK  status: ('A' for Active; 'I' for Inactive)
REMARK    1  A    between atoms: N_6  and  C_11
REMARK    2  A    between atoms: N_8  and  C_24
REMARK    3  A    between atoms: C_10  and  C_15
REMARK    4  A    between atoms: C_15  and  C_17
REMARK    5  A    between atoms: C_17  and  C_18
REMARK    6  A    between atoms: C_24  and  C_25
REMARK    7  A    between atoms: C_24  and  C_26
REMARK                            x       y       z     vdW  Elec       q    Type
REMARK                         _______ _______ _______ _____ _____    ______ ____
ROOT
ATOM      1  O   UNL     1      -0.678  -1.970  25.339  0.00  0.00    -0.274 OA
ATOM      4  N   UNL     1      -0.745   1.353  23.923  0.00  0.00    -0.285 NA
ATOM      5  N   UNL     1      -0.818   0.043  26.398  0.00  0.00    -0.313 N 
ATOM      9  C   UNL     1      -1.125  -0.060  23.945  0.00  0.00    +0.145 C 
ATOM     10  C   UNL     1      -1.258   2.091  25.075  0.00  0.00    +0.075 C 
ATOM     11  C   UNL     1       0.940   0.244  22.715  0.00  0.00    +0.090 C 
ATOM     12  C   UNL     1      -0.311  -0.632  22.787  0.00  0.00    +0.052 C 
ATOM     13  C   UNL     1       0.695   1.401  23.682  0.00  0.00    +0.107 C 
ATOM     14  C   UNL     1      -0.769   1.490  26.389  0.00  0.00    +0.123 C 
ATOM     16  C   UNL     1      -0.821  -0.748  25.271  0.00  0.00    +0.230 C 
ATOM     27  H   UNL     1      -0.674  -0.420  27.290  0.00  0.00    +0.149 HD
ENDROOT
BRANCH  11   6
ATOM      3  O   UNL     1       3.659   1.222  23.050  0.00  0.00    -0.253 OA
ATOM      6  N   UNL     1       2.133  -0.525  23.138  0.00  0.00    -0.295 N 
ATOM      8  N   UNL     1       4.336  -0.905  23.679  0.00  0.00    -0.297 N 
ATOM     19  C   UNL     1       3.400   0.040  23.268  0.00  0.00    +0.300 C 
ATOM     28  H   UNL     1       2.005  -1.494  23.419  0.00  0.00    +0.151 HD
ATOM     29  H   UNL     1       4.041  -1.874  23.759  0.00  0.00    +0.150 HD
BRANCH   8  24
ATOM     24  C   UNL     1       5.728  -0.587  23.892  0.00  0.00    +0.068 C 
ATOM     25  C   UNL     1       5.862   0.758  24.594  0.00  0.00    +0.027 C 
ATOM     26  C   UNL     1       6.487  -0.598  22.571  0.00  0.00    +0.027 C 
ENDBRANCH   8  24
ENDBRANCH  11   6
BRANCH  10  15
ATOM     15  C   UNL     1      -0.935   3.584  25.000  0.00  0.00    +0.029 C 
BRANCH  15  17
ATOM     17  C   UNL     1      -2.172   4.433  24.751  0.00  0.00    +0.097 C 
BRANCH  17  18
ATOM      2  O   UNL     1      -3.268   4.667  26.853  0.00  0.00    -0.276 OA
ATOM      7  N   UNL     1      -4.194   3.186  25.340  0.00  0.00    -0.301 N 
ATOM     18  C   UNL     1      -3.256   4.117  25.751  0.00  0.00    +0.216 C 
ATOM     20  C   UNL     1      -5.298   2.768  26.191  0.00  0.00    +0.108 C 
ATOM     21  C   UNL     1      -4.238   2.503  24.051  0.00  0.00    +0.108 C 
ATOM     22  C   UNL     1      -6.235   2.019  25.256  0.00  0.00    +0.020 C 
ATOM     23  C   UNL     1      -5.281   1.411  24.236  0.00  0.00    +0.020 C 
ENDBRANCH  17  18
ENDBRANCH  15  17
ENDBRANCH  10  15
TORSDOF 5
ENDMDL
MODEL 3
REMARK VINA RESULT:      -2.5     17.971     19.881
REMARK  Name = 26762149
REMARK  7 active torsions:
REMARK  status: ('A' for Active; 'I' for Inactive)
REMARK    1  A    between atoms: N_6  and  C_11
REMARK    2  A    between atoms: N_8  and  C_24
REMARK    3  A    between atoms: C_10  and  C_15
REMARK    4  A    between atoms: C_15  and  C_17
REMARK    5  A    between atoms: C_17  and  C_18
REMARK    6  A    between atoms: C_24  and  C_25
REMARK    7  A    between atoms: C_24  and  C_26
REMARK                            x       y       z     vdW  Elec       q    Type
REMARK                         _______ _______ _______ _____ _____    ______ ____
ROOT
ATOM      1  O   UNL     1       1.329  -0.632  23.344  0.00  0.00    -0.274 OA
ATOM      4  N   UNL     1      -2.026   0.409  24.187  0.00  0.00    -0.285 NA
ATOM      5  N   UNL     1      -0.361  -1.842  24.278  0.00  0.00    -0.313 N 
ATOM      9  C   UNL     1      -0.853   0.383  23.313  0.00  0.00    +0.145 C 
ATOM     10  C   UNL     1      -2.654  -0.903  24.326  0.00  0.00    +0.075 C 
ATOM     11  C   UNL     1      -0.668   2.181  24.927  0.00  0.00    +0.090 C 
ATOM     12  C   UNL     1      -0.276   1.783  23.504  0.00  0.00    +0.052 C 
ATOM     13  C   UNL     1      -1.625   1.094  25.414  0.00  0.00    +0.107 C 
ATOM     14  C   UNL     1      -1.676  -1.937  24.876  0.00  0.00    +0.123 C 
ATOM     16  C   UNL     1       0.143  -0.715  23.670  0.00  0.00    +0.230 C 
ATOM     27  H   UNL     1       0.289  -2.599  24.465  0.00  0.00    +0.149 HD
ENDROOT
BRANCH  11   6
ATOM      3  O   UNL     1      -0.523   3.025  27.707  0.00  0.00    -0.253 OA
ATOM      6  N   UNL     1       0.529   2.227  25.797  0.00  0.00    -0.295 N 
ATOM      8  N   UNL     1       1.757   2.595  27.708  0.00  0.00    -0.297 N 
ATOM     19  C   UNL     1       0.494   2.651  27.125  0.00  0.00    +0.300 C 
ATOM     28  H   UNL     1       1.404   1.861  25.431  0.00  0.00    +0.151 HD
ATOM     29  H   UNL     1       2.548   2.345  27.123  0.00  0.00    +0.150 HD
BRANCH   8  24
ATOM     24  C   UNL     1       2.004   2.978  29.078  0.00  0.00    +0.068 C 
ATOM     25  C   UNL     1       3.421   3.512  29.231  0.00  0.00    +0.027 C 
ATOM     26  C   UNL     1       1.752   1.804  30.015  0.00  0.00    +0.027 C 
ENDBRANCH   8  24
ENDBRANCH  11   6
BRANCH  10  15
ATOM     15  C   UNL     1      -3.930  -0.851  25.167  0.00  0.00    +0.029 C 
BRANCH  15  17
ATOM     17  C   UNL     1      -5.021  -0.016  24.513  0.00  0.00    +0.097 C 
BRANCH  17  18
ATOM      2  O   UNL     1      -6.000   1.130  26.357  0.00  0.00    -0.276 OA
ATOM      7  N   UNL     1      -4.802   2.399  24.842  0.00  0.00    -0.301 N 
ATOM     18  C   UNL     1      -5.324   1.214  25.331  0.00  0.00    +0.216 C 
ATOM     20  C   UNL     1      -5.011   3.674  25.511  0.00  0.00    +0.108 C 
ATOM     21  C   UNL     1      -3.993   2.565  23.639  0.00  0.00    +0.108 C 
ATOM     22  C   UNL     1      -4.023   4.619  24.845  0.00  0.00    +0.020 C 
ATOM     23  C   UNL     1      -3.933   4.071  23.427  0.00  0.00    +0.020 C 
ENDBRANCH  17  18
ENDBRANCH  15  17
ENDBRANCH  10  15
TORSDOF 5
ENDMDL
MODEL 4
REMARK VINA RESULT:      -1.3     17.257     19.189
REMARK  Name = 26762149
REMARK  7 active torsions:
REMARK  status: ('A' for Active; 'I' for Inactive)
REMARK    1  A    between atoms: N_6  and  C_11
REMARK    2  A    between atoms: N_8  and  C_24
REMARK    3  A    between atoms: C_10  and  C_15
REMARK    4  A    between atoms: C_15  and  C_17
REMARK    5  A    between atoms: C_17  and  C_18
REMARK    6  A    between atoms: C_24  and  C_25
REMARK    7  A    between atoms: C_24  and  C_26
REMARK                            x       y       z     vdW  Elec       q    Type
REMARK                         _______ _______ _______ _____ _____    ______ ____
ROOT
ATOM      1  O   UNL     1       0.127  -2.384  25.606  0.00  0.00    -0.274 OA
ATOM      4  N   UNL     1      -2.197  -0.347  23.733  0.00  0.00    -0.285 NA
ATOM      5  N   UNL     1      -1.612  -1.119  26.361  0.00  0.00    -0.313 N 
ATOM      9  C   UNL     1      -1.394  -1.554  23.935  0.00  0.00    +0.145 C 
ATOM     10  C   UNL     1      -3.242  -0.191  24.742  0.00  0.00    +0.075 C 
ATOM     11  C   UNL     1      -0.103   0.139  22.778  0.00  0.00    +0.090 C 
ATOM     12  C   UNL     1      -0.276  -1.374  22.912  0.00  0.00    +0.052 C 
ATOM     13  C   UNL     1      -1.260   0.761  23.560  0.00  0.00    +0.107 C 
ATOM     14  C   UNL     1      -2.658  -0.140  26.151  0.00  0.00    +0.123 C 
ATOM     16  C   UNL     1      -0.868  -1.699  25.359  0.00  0.00    +0.230 C 
ATOM     27  H   UNL     1      -1.297  -1.262  27.316  0.00  0.00    +0.149 HD
ENDROOT
BRANCH  11   6
ATOM      3  O   UNL     1       2.571  -0.645  21.944  0.00  0.00    -0.253 OA
ATOM      6  N   UNL     1       1.188   0.564  23.365  0.00  0.00    -0.295 N 
ATOM      8  N   UNL     1       3.471   0.680  23.621  0.00  0.00    -0.297 N 
ATOM     19  C   UNL     1       2.424   0.128  22.890  0.00  0.00    +0.300 C 
ATOM     28  H   UNL     1       1.174   1.265  24.100  0.00  0.00    +0.151 HD
ATOM     29  H   UNL     1       3.247   1.248  24.433  0.00  0.00    +0.150 HD
BRANCH   8  24
ATOM     24  C   UNL     1       4.859   0.395  23.339  0.00  0.00    +0.068 C 
ATOM     25  C   UNL     1       5.192  -1.041  23.720  0.00  0.00    +0.027 C 
ATOM     26  C   UNL     1       5.765   1.383  24.064  0.00  0.00    +0.027 C 
ENDBRANCH   8  24
ENDBRANCH  11   6
BRANCH  10  15
ATOM     15  C   UNL     1      -4.134   1.022  24.473  0.00  0.00    +0.029 C 
BRANCH  15  17
ATOM     17  C   UNL     1      -4.227   1.950  25.675  0.00  0.00    +0.097 C 
BRANCH  17  18
ATOM      2  O   UNL     1      -5.137   4.052  25.021  0.00  0.00    -0.276 OA
ATOM      7  N   UNL     1      -2.836   3.893  25.150  0.00  0.00    -0.301 N 
ATOM     18  C   UNL     1      -4.122   3.394  25.254  0.00  0.00    +0.216 C 
ATOM     20  C   UNL     1      -2.565   5.266  24.748  0.00  0.00    +0.108 C 
ATOM     21  C   UNL     1      -1.596   3.171  25.415  0.00  0.00    +0.108 C 
ATOM     22  C   UNL     1      -1.096   5.476  25.081  0.00  0.00    +0.020 C 
ATOM     23  C   UNL     1      -0.502   4.087  24.884  0.00  0.00    +0.020 C 
ENDBRANCH  17  18
ENDBRANCH  15  17
ENDBRANCH  10  15
TORSDOF 5
ENDMDL
MODEL 5
REMARK VINA RESULT:      -0.4     18.883     20.755
REMARK  Name = 26762149
REMARK  7 active torsions:
REMARK  status: ('A' for Active; 'I' for Inactive)
REMARK    1  A    between atoms: N_6  and  C_11
REMARK    2  A    between atoms: N_8  and  C_24
REMARK    3  A    between atoms: C_10  and  C_15
REMARK    4  A    between atoms: C_15  and  C_17
REMARK    5  A    between atoms: C_17  and  C_18
REMARK    6  A    between atoms: C_24  and  C_25
REMARK    7  A    between atoms: C_24  and  C_26
REMARK                            x       y       z     vdW  Elec       q    Type
REMARK                         _______ _______ _______ _____ _____    ______ ____
ROOT
ATOM      1  O   UNL     1      -5.954   2.792  25.013  0.00  0.00    -0.274 OA
ATOM      4  N   UNL     1      -2.706   4.062  24.068  0.00  0.00    -0.285 NA
ATOM      5  N   UNL     1      -4.192   3.366  26.339  0.00  0.00    -0.313 N 
ATOM      9  C   UNL     1      -4.162   3.994  23.946  0.00  0.00    +0.145 C 
ATOM     10  C   UNL     1      -2.274   4.592  25.360  0.00  0.00    +0.075 C 
ATOM     11  C   UNL     1      -3.114   2.323  22.538  0.00  0.00    +0.090 C 
ATOM     12  C   UNL     1      -4.342   3.230  22.636  0.00  0.00    +0.052 C 
ATOM     13  C   UNL     1      -2.186   2.755  23.672  0.00  0.00    +0.107 C 
ATOM     14  C   UNL     1      -2.808   3.754  26.518  0.00  0.00    +0.123 C 
ATOM     16  C   UNL     1      -4.837   3.302  25.125  0.00  0.00    +0.230 C 
ATOM     27  H   UNL     1      -4.665   2.957  27.139  0.00  0.00    +0.149 HD
ENDROOT
BRANCH  11   6
ATOM      3  O   UNL     1      -3.178   0.793  25.011  0.00  0.00    -0.253 OA
ATOM      6  N   UNL     1      -3.505   0.906  22.715  0.00  0.00    -0.295 N 
ATOM      8  N   UNL     1      -3.910  -1.064  23.830  0.00  0.00    -0.297 N 
ATOM     19  C   UNL     1      -3.501   0.261  23.950  0.00  0.00    +0.300 C 
ATOM     28  H   UNL     1      -3.864   0.403  21.908  0.00  0.00    +0.151 HD
ATOM     29  H   UNL     1      -4.082  -1.434  22.900  0.00  0.00    +0.150 HD
BRANCH   8  24
ATOM     24  C   UNL     1      -3.997  -1.962  24.958  0.00  0.00    +0.068 C 
ATOM     25  C   UNL     1      -3.406  -1.309  26.200  0.00  0.00    +0.027 C 
ATOM     26  C   UNL     1      -3.305  -3.283  24.645  0.00  0.00    +0.027 C 
ENDBRANCH   8  24
ENDBRANCH  11   6
BRANCH  10  15
ATOM     15  C   UNL     1      -0.755   4.745  25.447  0.00  0.00    +0.029 C 
BRANCH  15  17
ATOM     17  C   UNL     1      -0.017   3.607  24.757  0.00  0.00    +0.097 C 
BRANCH  17  18
ATOM      2  O   UNL     1      -0.191   2.399  26.802  0.00  0.00    -0.276 OA
ATOM      7  N   UNL     1      -0.003   1.163  24.860  0.00  0.00    -0.301 N 
ATOM     18  C   UNL     1      -0.082   2.343  25.577  0.00  0.00    +0.216 C 
ATOM     20  C   UNL     1      -0.043  -0.142  25.504  0.00  0.00    +0.108 C 
ATOM     21  C   UNL     1       0.124   1.028  23.412  0.00  0.00    +0.108 C 
ATOM     22  C   UNL     1      -0.259  -1.123  24.362  0.00  0.00    +0.020 C 
ATOM     23  C   UNL     1       0.445  -0.443  23.195  0.00  0.00    +0.020 C 
ENDBRANCH  17  18
ENDBRANCH  15  17
ENDBRANCH  10  15
TORSDOF 5
ENDMDL
MODEL 6
REMARK VINA RESULT:       0.0     18.528     20.362
REMARK  Name = 26762149
REMARK  7 active torsions:
REMARK  status: ('A' for Active; 'I' for Inactive)
REMARK    1  A    between atoms: N_6  and  C_11
REMARK    2  A    between atoms: N_8  and  C_24
REMARK    3  A    between atoms: C_10  and  C_15
REMARK    4  A    between atoms: C_15  and  C_17
REMARK    5  A    between atoms: C_17  and  C_18
REMARK    6  A    between atoms: C_24  and  C_25
REMARK    7  A    between atoms: C_24  and  C_26
REMARK                            x       y       z     vdW  Elec       q    Type
REMARK                         _______ _______ _______ _____ _____    ______ ____
ROOT
ATOM      1  O   UNL     1      -5.588   3.516  25.787  0.00  0.00    -0.274 OA
ATOM      4  N   UNL     1      -2.421   3.695  24.057  0.00  0.00    -0.285 NA
ATOM      5  N   UNL     1      -3.491   3.754  26.646  0.00  0.00    -0.313 N 
ATOM      9  C   UNL     1      -3.840   4.018  24.211  0.00  0.00    +0.145 C 
ATOM     10  C   UNL     1      -1.598   4.255  25.127  0.00  0.00    +0.075 C 
ATOM     11  C   UNL     1      -3.569   1.947  22.981  0.00  0.00    +0.090 C 
ATOM     12  C   UNL     1      -4.485   3.163  23.123  0.00  0.00    +0.052 C 
ATOM     13  C   UNL     1      -2.336   2.254  23.830  0.00  0.00    +0.107 C 
ATOM     14  C   UNL     1      -2.050   3.764  26.499  0.00  0.00    +0.123 C 
ATOM     16  C   UNL     1      -4.384   3.707  25.600  0.00  0.00    +0.230 C 
ATOM     27  H   UNL     1      -3.860   3.605  27.580  0.00  0.00    +0.149 HD
ENDROOT
BRANCH  11   6
ATOM      3  O   UNL     1      -2.336  -0.556  23.805  0.00  0.00    -0.253 OA
ATOM      6  N   UNL     1      -4.243   0.731  23.490  0.00  0.00    -0.295 N 
ATOM      8  N   UNL     1      -4.434  -1.413  24.302  0.00  0.00    -0.297 N 
ATOM     19  C   UNL     1      -3.558  -0.425  23.860  0.00  0.00    +0.300 C 
ATOM     28  H   UNL     1      -5.246   0.769  23.648  0.00  0.00    +0.151 HD
ATOM     29  H   UNL     1      -5.432  -1.237  24.238  0.00  0.00    +0.150 HD
BRANCH   8  24
ATOM     24  C   UNL     1      -3.988  -2.713  24.745  0.00  0.00    +0.068 C 
ATOM     25  C   UNL     1      -3.155  -2.582  26.013  0.00  0.00    +0.027 C 
ATOM     26  C   UNL     1      -3.207  -3.415  23.641  0.00  0.00    +0.027 C 
ENDBRANCH   8  24
ENDBRANCH  11   6
BRANCH  10  15
ATOM     15  C   UNL     1      -0.107   3.992  24.913  0.00  0.00    +0.029 C 
BRANCH  15  17
ATOM     17  C   UNL     1       0.432   2.920  25.848  0.00  0.00    +0.097 C 
BRANCH  17  18
ATOM      2  O   UNL     1      -0.889   0.941  25.953  0.00  0.00    -0.276 OA
ATOM      7  N   UNL     1       0.741   1.036  24.318  0.00  0.00    -0.301 N 
ATOM     18  C   UNL     1       0.024   1.543  25.387  0.00  0.00    +0.216 C 
ATOM     20  C   UNL     1       0.474  -0.282  23.759  0.00  0.00    +0.108 C 
ATOM     21  C   UNL     1       1.828   1.698  23.603  0.00  0.00    +0.108 C 
ATOM     22  C   UNL     1       1.235  -0.296  22.442  0.00  0.00    +0.020 C 
ATOM     23  C   UNL     1       2.428   0.605  22.730  0.00  0.00    +0.020 C 
ENDBRANCH  17  18
ENDBRANCH  15  17
ENDBRANCH  10  15
TORSDOF 5
ENDMDL
MODEL 7
REMARK VINA RESULT:       0.3     17.195     18.770
REMARK  Name = 26762149
REMARK  7 active torsions:
REMARK  status: ('A' for Active; 'I' for Inactive)
REMARK    1  A    between atoms: N_6  and  C_11
REMARK    2  A    between atoms: N_8  and  C_24
REMARK    3  A    between atoms: C_10  and  C_15
REMARK    4  A    between atoms: C_15  and  C_17
REMARK    5  A    between atoms: C_17  and  C_18
REMARK    6  A    between atoms: C_24  and  C_25
REMARK    7  A    between atoms: C_24  and  C_26
REMARK                            x       y       z     vdW  Elec       q    Type
REMARK                         _______ _______ _______ _____ _____    ______ ____
ROOT
ATOM      1  O   UNL     1      -0.931   2.474  27.341  0.00  0.00    -0.274 OA
ATOM      4  N   UNL     1       0.087   2.126  23.892  0.00  0.00    -0.285 NA
ATOM      5  N   UNL     1      -0.569   0.576  26.132  0.00  0.00    -0.313 N 
ATOM      9  C   UNL     1       0.152   2.757  25.211  0.00  0.00    +0.145 C 
ATOM     10  C   UNL     1       0.523   0.731  23.913  0.00  0.00    +0.075 C 
ATOM     11  C   UNL     1      -1.545   3.819  23.845  0.00  0.00    +0.090 C 
ATOM     12  C   UNL     1      -0.539   4.095  24.963  0.00  0.00    +0.052 C 
ATOM     13  C   UNL     1      -1.244   2.404  23.355  0.00  0.00    +0.107 C 
ATOM     14  C   UNL     1      -0.311  -0.104  24.880  0.00  0.00    +0.123 C 
ATOM     16  C   UNL     1      -0.526   1.941  26.306  0.00  0.00    +0.230 C 
ATOM     27  H   UNL     1      -0.967   0.024  26.885  0.00  0.00    +0.149 HD
ENDROOT
BRANCH  11   6
ATOM      3  O   UNL     1      -3.363   1.608  24.364  0.00  0.00    -0.253 OA
ATOM      6  N   UNL     1      -2.928   3.889  24.367  0.00  0.00    -0.295 N 
ATOM      8  N   UNL     1      -4.976   3.116  25.075  0.00  0.00    -0.297 N 
ATOM     19  C   UNL     1      -3.723   2.764  24.582  0.00  0.00    +0.300 C 
ATOM     28  H   UNL     1      -3.288   4.796  24.654  0.00  0.00    +0.151 HD
ATOM     29  H   UNL     1      -5.206   4.102  25.149  0.00  0.00    +0.150 HD
BRANCH   8  24
ATOM     24  C   UNL     1      -5.996   2.142  25.385  0.00  0.00    +0.068 C 
ATOM     25  C   UNL     1      -6.223   2.074  26.890  0.00  0.00    +0.027 C 
ATOM     26  C   UNL     1      -5.622   0.778  24.820  0.00  0.00    +0.027 C 
ENDBRANCH   8  24
ENDBRANCH  11   6
BRANCH  10  15
ATOM     15  C   UNL     1       0.539   0.105  22.518  0.00  0.00    +0.029 C 
BRANCH  15  17
ATOM     17  C   UNL     1       1.884  -0.518  22.179  0.00  0.00    +0.097 C 
BRANCH  17  18
ATOM      2  O   UNL     1       2.979   1.597  22.202  0.00  0.00    -0.276 OA
ATOM      7  N   UNL     1       4.065  -0.164  23.229  0.00  0.00    -0.301 N 
ATOM     18  C   UNL     1       3.017   0.411  22.532  0.00  0.00    +0.216 C 
ATOM     20  C   UNL     1       5.237   0.597  23.638  0.00  0.00    +0.108 C 
ATOM     21  C   UNL     1       4.171  -1.557  23.653  0.00  0.00    +0.108 C 
ATOM     22  C   UNL     1       5.952  -0.310  24.628  0.00  0.00    +0.020 C 
ATOM     23  C   UNL     1       5.613  -1.704  24.116  0.00  0.00    +0.020 C 
ENDBRANCH  17  18
ENDBRANCH  15  17
ENDBRANCH  10  15
TORSDOF 5
ENDMDL
