MODEL 1
REMARK VINA RESULT:      -0.5      0.000      0.000
REMARK  Name = 45783833
REMARK  4 active torsions:
REMARK  status: ('A' for Active; 'I' for Inactive)
REMARK    1  A    between atoms: N_2  and  C_11
REMARK    2  A    between atoms: C_7  and  C_12
REMARK    3  A    between atoms: C_11  and  C_17
REMARK    4  A    between atoms: C_19  and  C_20
REMARK                            x       y       z     vdW  Elec       q    Type
REMARK                         _______ _______ _______ _____ _____    ______ ____
ROOT
ATOM      1  O   UNL     1      -1.455   2.350  25.484  0.00  0.00    -0.336 OA
ATOM      4  N   UNL     1      -1.661   1.637  23.371  0.00  0.00    -0.190 NA
ATOM      5  N   UNL     1      -0.233   1.749  25.156  0.00  0.00    -0.056 NA
ATOM     12  C   UNL     1      -2.238   2.241  24.380  0.00  0.00    +0.245 A 
ATOM     19  C   UNL     1      -0.433   1.354  23.894  0.00  0.00    +0.202 A 
ENDROOT
BRANCH  19  20
ATOM      3  N   UNL     1       4.150   0.098  23.163  0.00  0.00    -0.315 N 
ATOM      6  N   UNL     1       2.527  -0.660  21.643  0.00  0.00    -0.240 NA
ATOM     13  C   UNL     1       6.500   0.041  23.109  0.00  0.00    +0.020 C 
ATOM     14  C   UNL     1       6.049   0.334  24.530  0.00  0.00    +0.020 C 
ATOM     15  C   UNL     1       5.252  -0.558  22.466  0.00  0.00    +0.106 C 
ATOM     16  C   UNL     1       4.614   0.821  24.344  0.00  0.00    +0.106 C 
ATOM     18  C   UNL     1       2.834   0.042  22.757  0.00  0.00    +0.122 A 
ATOM     20  C   UNL     1       0.572   0.673  23.130  0.00  0.00    +0.027 A 
ATOM     21  C   UNL     1       1.902   0.718  23.528  0.00  0.00    +0.055 A 
ATOM     24  C   UNL     1       0.217  -0.040  21.989  0.00  0.00    +0.031 A 
ATOM     27  C   UNL     1       1.223  -0.683  21.287  0.00  0.00    +0.113 A 
ENDBRANCH  19  20
BRANCH  12   7
ATOM      2  N   UNL     1      -4.531   2.006  25.317  0.00  0.00    -0.287 NA
ATOM      7  C   UNL     1      -3.632   2.824  24.480  0.00  0.00    +0.146 C 
ATOM      8  C   UNL     1      -3.647   4.217  25.137  0.00  0.00    +0.030 C 
ATOM      9  C   UNL     1      -4.627   4.100  26.296  0.00  0.00    +0.017 C 
ATOM     10  C   UNL     1      -5.504   2.927  25.904  0.00  0.00    +0.085 C 
BRANCH   2  11
ATOM     11  C   UNL     1      -5.174   0.925  24.581  0.00  0.00    +0.120 C 
BRANCH  11  17
ATOM     17  C   UNL     1      -4.436  -0.378  24.737  0.00  0.00    -0.033 A 
ATOM     22  C   UNL     1      -3.681  -0.619  25.886  0.00  0.00    +0.005 A 
ATOM     23  C   UNL     1      -4.506  -1.345  23.734  0.00  0.00    +0.005 A 
ATOM     25  C   UNL     1      -2.998  -1.826  26.030  0.00  0.00    +0.000 A 
ATOM     26  C   UNL     1      -3.823  -2.551  23.878  0.00  0.00    +0.000 A 
ATOM     28  C   UNL     1      -3.069  -2.792  25.027  0.00  0.00    +0.000 A 
ENDBRANCH  11  17
ENDBRANCH   2  11
ENDBRANCH  12   7
TORSDOF 4
ENDMDL
MODEL 2
REMARK VINA RESULT:       2.5      2.181      4.135
REMARK  Name = 45783833
REMARK  4 active torsions:
REMARK  status: ('A' for Active; 'I' for Inactive)
REMARK    1  A    between atoms: N_2  and  C_11
REMARK    2  A    between atoms: C_7  and  C_12
REMARK    3  A    between atoms: C_11  and  C_17
REMARK    4  A    between atoms: C_19  and  C_20
REMARK                            x       y       z     vdW  Elec       q    Type
REMARK                         _______ _______ _______ _____ _____    ______ ____
ROOT
ATOM      1  O   UNL     1      -4.655  -0.170  24.297  0.00  0.00    -0.336 OA
ATOM      4  N   UNL     1      -2.911   0.487  25.538  0.00  0.00    -0.190 NA
ATOM      5  N   UNL     1      -3.592  -1.014  23.952  0.00  0.00    -0.056 NA
ATOM     12  C   UNL     1      -4.169   0.684  25.235  0.00  0.00    +0.245 A 
ATOM     19  C   UNL     1      -2.600  -0.565  24.726  0.00  0.00    +0.202 A 
ENDROOT
BRANCH  19  20
ATOM      3  N   UNL     1       2.059  -0.359  23.559  0.00  0.00    -0.315 N 
ATOM      6  N   UNL     1       1.273  -2.265  24.685  0.00  0.00    -0.240 NA
ATOM     13  C   UNL     1       4.111   0.110  22.510  0.00  0.00    +0.020 C 
ATOM     14  C   UNL     1       3.363   1.414  22.729  0.00  0.00    +0.020 C 
ATOM     15  C   UNL     1       3.434  -0.847  23.488  0.00  0.00    +0.106 C 
ATOM     16  C   UNL     1       1.921   0.956  22.936  0.00  0.00    +0.106 C 
ATOM     18  C   UNL     1       1.021  -1.053  24.141  0.00  0.00    +0.122 A 
ATOM     20  C   UNL     1      -1.286  -1.142  24.710  0.00  0.00    +0.027 A 
ATOM     21  C   UNL     1      -0.229  -0.454  24.129  0.00  0.00    +0.055 A 
ATOM     24  C   UNL     1      -1.066  -2.391  25.280  0.00  0.00    +0.031 A 
ATOM     27  C   UNL     1       0.220  -2.904  25.242  0.00  0.00    +0.113 A 
ENDBRANCH  19  20
BRANCH  12   7
ATOM      2  N   UNL     1      -4.726   3.097  25.477  0.00  0.00    -0.287 NA
ATOM      7  C   UNL     1      -5.138   1.712  25.780  0.00  0.00    +0.146 C 
ATOM      8  C   UNL     1      -6.547   1.581  25.171  0.00  0.00    +0.030 C 
ATOM      9  C   UNL     1      -6.864   2.958  24.604  0.00  0.00    +0.017 C 
ATOM     10  C   UNL     1      -5.955   3.884  25.387  0.00  0.00    +0.085 C 
BRANCH   2  11
ATOM     11  C   UNL     1      -3.794   3.645  26.454  0.00  0.00    +0.120 C 
BRANCH  11  17
ATOM     17  C   UNL     1      -2.443   3.921  25.848  0.00  0.00    -0.033 A 
ATOM     22  C   UNL     1      -2.184   5.157  25.255  0.00  0.00    +0.005 A 
ATOM     23  C   UNL     1      -1.451   2.940  25.879  0.00  0.00    +0.005 A 
ATOM     25  C   UNL     1      -0.933   5.412  24.695  0.00  0.00    +0.000 A 
ATOM     26  C   UNL     1      -0.201   3.195  25.317  0.00  0.00    +0.000 A 
ATOM     28  C   UNL     1       0.059   4.431  24.726  0.00  0.00    +0.000 A 
ENDBRANCH  11  17
ENDBRANCH   2  11
ENDBRANCH  12   7
TORSDOF 4
ENDMDL
MODEL 3
REMARK VINA RESULT:       2.7      1.581      3.573
REMARK  Name = 45783833
REMARK  4 active torsions:
REMARK  status: ('A' for Active; 'I' for Inactive)
REMARK    1  A    between atoms: N_2  and  C_11
REMARK    2  A    between atoms: C_7  and  C_12
REMARK    3  A    between atoms: C_11  and  C_17
REMARK    4  A    between atoms: C_19  and  C_20
REMARK                            x       y       z     vdW  Elec       q    Type
REMARK                         _______ _______ _______ _____ _____    ______ ____
ROOT
ATOM      1  O   UNL     1      -1.907  -0.575  26.022  0.00  0.00    -0.336 OA
ATOM      4  N   UNL     1      -1.900   0.502  24.059  0.00  0.00    -0.190 NA
ATOM      5  N   UNL     1      -0.686  -0.887  25.412  0.00  0.00    -0.056 NA
ATOM     12  C   UNL     1      -2.561   0.245  25.159  0.00  0.00    +0.245 A 
ATOM     19  C   UNL     1      -0.756  -0.214  24.259  0.00  0.00    +0.202 A 
ENDROOT
BRANCH  19  20
ATOM      3  N   UNL     1       3.917  -0.128  23.130  0.00  0.00    -0.315 N 
ATOM      6  N   UNL     1       2.349  -0.291  21.388  0.00  0.00    -0.240 NA
ATOM     13  C   UNL     1       6.237   0.254  23.124  0.00  0.00    +0.020 C 
ATOM     14  C   UNL     1       5.832  -0.285  24.486  0.00  0.00    +0.020 C 
ATOM     15  C   UNL     1       5.067  -0.148  22.231  0.00  0.00    +0.106 C 
ATOM     16  C   UNL     1       4.328  -0.025  24.529  0.00  0.00    +0.106 C 
ATOM     18  C   UNL     1       2.605  -0.199  22.713  0.00  0.00    +0.122 A 
ATOM     20  C   UNL     1       0.298  -0.238  23.286  0.00  0.00    +0.027 A 
ATOM     21  C   UNL     1       1.625  -0.170  23.692  0.00  0.00    +0.055 A 
ATOM     24  C   UNL     1      -0.005  -0.334  21.932  0.00  0.00    +0.031 A 
ATOM     27  C   UNL     1       1.047  -0.356  21.032  0.00  0.00    +0.113 A 
ENDBRANCH  19  20
BRANCH  12   7
ATOM      2  N   UNL     1      -4.181   2.133  25.209  0.00  0.00    -0.287 NA
ATOM      7  C   UNL     1      -3.928   0.731  25.594  0.00  0.00    +0.146 C 
ATOM      8  C   UNL     1      -5.076  -0.066  24.946  0.00  0.00    +0.030 C 
ATOM      9  C   UNL     1      -5.954   0.978  24.272  0.00  0.00    +0.017 C 
ATOM     10  C   UNL     1      -5.627   2.256  25.019  0.00  0.00    +0.085 C 
BRANCH   2  11
ATOM     11  C   UNL     1      -3.672   3.096  26.177  0.00  0.00    +0.120 C 
BRANCH  11  17
ATOM     17  C   UNL     1      -2.419   3.774  25.688  0.00  0.00    -0.033 A 
ATOM     22  C   UNL     1      -1.197   3.104  25.741  0.00  0.00    +0.005 A 
ATOM     23  C   UNL     1      -2.482   5.073  25.182  0.00  0.00    +0.005 A 
ATOM     25  C   UNL     1      -0.038   3.733  25.287  0.00  0.00    +0.000 A 
ATOM     26  C   UNL     1      -1.322   5.701  24.730  0.00  0.00    +0.000 A 
ATOM     28  C   UNL     1      -0.100   5.031  24.782  0.00  0.00    +0.000 A 
ENDBRANCH  11  17
ENDBRANCH   2  11
ENDBRANCH  12   7
TORSDOF 4
ENDMDL
MODEL 4
REMARK VINA RESULT:       3.0      2.026      7.674
REMARK  Name = 45783833
REMARK  4 active torsions:
REMARK  status: ('A' for Active; 'I' for Inactive)
REMARK    1  A    between atoms: N_2  and  C_11
REMARK    2  A    between atoms: C_7  and  C_12
REMARK    3  A    between atoms: C_11  and  C_17
REMARK    4  A    between atoms: C_19  and  C_20
REMARK                            x       y       z     vdW  Elec       q    Type
REMARK                         _______ _______ _______ _____ _____    ______ ____
ROOT
ATOM      1  O   UNL     1       1.025  -1.557  24.201  0.00  0.00    -0.336 OA
ATOM      4  N   UNL     1      -0.383  -0.076  23.284  0.00  0.00    -0.190 NA
ATOM      5  N   UNL     1      -0.252  -1.898  24.663  0.00  0.00    -0.056 NA
ATOM     12  C   UNL     1       0.859  -0.475  23.397  0.00  0.00    +0.245 A 
ATOM     19  C   UNL     1      -1.028  -0.980  24.078  0.00  0.00    +0.202 A 
ENDROOT
BRANCH  19  20
ATOM      3  N   UNL     1      -5.047   1.441  25.128  0.00  0.00    -0.315 N 
ATOM      6  N   UNL     1      -5.219  -0.849  24.635  0.00  0.00    -0.240 NA
ATOM     13  C   UNL     1      -6.601   2.984  25.984  0.00  0.00    +0.020 C 
ATOM     14  C   UNL     1      -5.435   3.747  25.379  0.00  0.00    +0.020 C 
ATOM     15  C   UNL     1      -6.482   1.604  25.344  0.00  0.00    +0.106 C 
ATOM     16  C   UNL     1      -4.327   2.698  25.321  0.00  0.00    +0.106 C 
ATOM     18  C   UNL     1      -4.445   0.250  24.784  0.00  0.00    +0.122 A 
ATOM     20  C   UNL     1      -2.449  -0.935  24.269  0.00  0.00    +0.027 A 
ATOM     21  C   UNL     1      -3.070   0.259  24.614  0.00  0.00    +0.055 A 
ATOM     24  C   UNL     1      -3.211  -2.087  24.106  0.00  0.00    +0.031 A 
ATOM     27  C   UNL     1      -4.580  -1.992  24.299  0.00  0.00    +0.113 A 
ENDBRANCH  19  20
BRANCH  12   7
ATOM      2  N   UNL     1       2.664   1.233  23.520  0.00  0.00    -0.287 NA
ATOM      7  C   UNL     1       2.111   0.094  22.762  0.00  0.00    +0.146 C 
ATOM      8  C   UNL     1       3.261  -0.928  22.697  0.00  0.00    +0.030 C 
ATOM      9  C   UNL     1       4.435  -0.251  23.390  0.00  0.00    +0.017 C 
ATOM     10  C   UNL     1       4.108   1.225  23.285  0.00  0.00    +0.085 C 
BRANCH   2  11
ATOM     11  C   UNL     1       2.058   2.509  23.165  0.00  0.00    +0.120 C 
BRANCH  11  17
ATOM     17  C   UNL     1       0.908   2.857  24.074  0.00  0.00    -0.033 A 
ATOM     22  C   UNL     1       0.061   3.918  23.752  0.00  0.00    +0.005 A 
ATOM     23  C   UNL     1       0.691   2.119  25.237  0.00  0.00    +0.005 A 
ATOM     25  C   UNL     1      -1.003   4.239  24.593  0.00  0.00    +0.000 A 
ATOM     26  C   UNL     1      -0.373   2.441  26.078  0.00  0.00    +0.000 A 
ATOM     28  C   UNL     1      -1.221   3.500  25.757  0.00  0.00    +0.000 A 
ENDBRANCH  11  17
ENDBRANCH   2  11
ENDBRANCH  12   7
TORSDOF 4
ENDMDL
