MODEL 1
REMARK VINA RESULT:      -0.7      0.000      0.000
REMARK  Name = 26742810
REMARK  6 active torsions:
REMARK  status: ('A' for Active; 'I' for Inactive)
REMARK    1  A    between atoms: O_3  and  C_29
REMARK    2  A    between atoms: O_3  and  C_30
REMARK    3  A    between atoms: N_5  and  C_17
REMARK    4  A    between atoms: C_16  and  C_18
REMARK    5  A    between atoms: C_17  and  C_19
REMARK    6  A    between atoms: C_18  and  C_20
REMARK                            x       y       z     vdW  Elec       q    Type
REMARK                         _______ _______ _______ _____ _____    ______ ____
ROOT
ATOM      1  O   UNL     1      -5.617   3.096  26.808  0.00  0.00    -0.276 OA
ATOM      2  O   UNL     1      -0.476  -1.460  25.458  0.00  0.00    -0.275 OA
ATOM      4  N   UNL     1      -2.616  -1.188  24.593  0.00  0.00    -0.301 N 
ATOM      5  N   UNL     1      -4.579   3.272  24.740  0.00  0.00    -0.297 N 
ATOM      7  C   UNL     1      -4.418   0.225  23.620  0.00  0.00    +0.011 C 
ATOM      8  C   UNL     1      -5.127   0.194  24.994  0.00  0.00    +0.004 C 
ATOM      9  C   UNL     1      -4.124  -0.011  26.145  0.00  0.00    +0.023 C 
ATOM     10  C   UNL     1      -3.541  -1.034  23.464  0.00  0.00    +0.111 C 
ATOM     11  C   UNL     1      -3.581   1.487  23.343  0.00  0.00    +0.024 C 
ATOM     12  C   UNL     1      -6.081   1.372  25.235  0.00  0.00    +0.100 C 
ATOM     13  C   UNL     1      -3.259  -1.245  25.906  0.00  0.00    +0.108 C 
ATOM     14  C   UNL     1      -4.396   2.776  23.379  0.00  0.00    +0.108 C 
ATOM     15  C   UNL     1      -5.410   2.660  25.672  0.00  0.00    +0.216 C 
ATOM     16  C   UNL     1      -1.230  -1.306  24.493  0.00  0.00    +0.220 C 
ENDROOT
BRANCH   5  17
ATOM     17  C   UNL     1      -3.830   4.467  25.105  0.00  0.00    +0.144 C 
BRANCH  17  19
ATOM      6  N   UNL     1      -0.639   2.782  26.249  0.00  0.00    -0.263 NA
ATOM     19  C   UNL     1      -2.364   4.176  25.286  0.00  0.00    -0.012 A 
ATOM     21  C   UNL     1      -1.394   4.982  24.698  0.00  0.00    +0.008 A 
ATOM     22  C   UNL     1      -1.937   3.098  26.045  0.00  0.00    +0.115 A 
ATOM     25  C   UNL     1      -0.048   4.689  24.885  0.00  0.00    +0.020 A 
ATOM     28  C   UNL     1       0.274   3.588  25.662  0.00  0.00    +0.111 A 
ENDBRANCH  17  19
ENDBRANCH   5  17
BRANCH  16  18
ATOM     18  C   UNL     1      -0.644  -1.234  23.105  0.00  0.00    +0.131 C 
BRANCH  18  20
ATOM     20  C   UNL     1       0.680  -0.538  23.127  0.00  0.00    -0.038 A 
ATOM     23  C   UNL     1       1.841  -1.236  22.788  0.00  0.00    +0.007 A 
ATOM     24  C   UNL     1       0.756   0.808  23.485  0.00  0.00    +0.007 A 
ATOM     26  C   UNL     1       3.075  -0.586  22.807  0.00  0.00    +0.046 A 
ATOM     27  C   UNL     1       1.990   1.457  23.503  0.00  0.00    +0.046 A 
ATOM     29  C   UNL     1       3.150   0.760  23.164  0.00  0.00    +0.120 A 
BRANCH  29   3
ATOM      3  O   UNL     1       4.355   1.393  23.181  0.00  0.00    -0.495 OA
ATOM     30  C   UNL     1       5.481   0.633  23.614  0.00  0.00    +0.277 C 
ENDBRANCH  29   3
ENDBRANCH  18  20
ENDBRANCH  16  18
TORSDOF 5
ENDMDL
MODEL 2
REMARK VINA RESULT:       1.0      1.963      5.397
REMARK  Name = 26742810
REMARK  6 active torsions:
REMARK  status: ('A' for Active; 'I' for Inactive)
REMARK    1  A    between atoms: O_3  and  C_29
REMARK    2  A    between atoms: O_3  and  C_30
REMARK    3  A    between atoms: N_5  and  C_17
REMARK    4  A    between atoms: C_16  and  C_18
REMARK    5  A    between atoms: C_17  and  C_19
REMARK    6  A    between atoms: C_18  and  C_20
REMARK                            x       y       z     vdW  Elec       q    Type
REMARK                         _______ _______ _______ _____ _____    ______ ____
ROOT
ATOM      1  O   UNL     1      -0.223   5.066  25.497  0.00  0.00    -0.276 OA
ATOM      2  O   UNL     1      -5.928   1.273  26.935  0.00  0.00    -0.275 OA
ATOM      4  N   UNL     1      -5.322   2.592  25.121  0.00  0.00    -0.301 N 
ATOM      5  N   UNL     1      -0.566   3.165  24.212  0.00  0.00    -0.297 N 
ATOM      7  C   UNL     1      -3.701   3.282  23.362  0.00  0.00    +0.011 C 
ATOM      8  C   UNL     1      -3.386   4.539  24.206  0.00  0.00    +0.004 C 
ATOM      9  C   UNL     1      -3.641   4.295  25.705  0.00  0.00    +0.023 C 
ATOM     10  C   UNL     1      -5.130   2.794  23.679  0.00  0.00    +0.111 C 
ATOM     11  C   UNL     1      -2.702   2.121  23.518  0.00  0.00    +0.024 C 
ATOM     12  C   UNL     1      -2.007   5.153  23.926  0.00  0.00    +0.100 C 
ATOM     13  C   UNL     1      -5.054   3.772  25.944  0.00  0.00    +0.108 C 
ATOM     14  C   UNL     1      -1.275   2.492  23.127  0.00  0.00    +0.108 C 
ATOM     15  C   UNL     1      -0.847   4.465  24.620  0.00  0.00    +0.216 C 
ATOM     16  C   UNL     1      -5.750   1.409  25.721  0.00  0.00    +0.220 C 
ENDROOT
BRANCH   5  17
ATOM     17  C   UNL     1       0.477   2.401  24.883  0.00  0.00    +0.144 C 
BRANCH  17  19
ATOM      6  N   UNL     1       3.084   0.766  22.677  0.00  0.00    -0.263 NA
ATOM     19  C   UNL     1       1.136   1.416  23.953  0.00  0.00    -0.012 A 
ATOM     21  C   UNL     1       0.458   0.286  23.507  0.00  0.00    +0.008 A 
ATOM     22  C   UNL     1       2.435   1.608  23.513  0.00  0.00    +0.115 A 
ATOM     25  C   UNL     1       1.091  -0.604  22.647  0.00  0.00    +0.020 A 
ATOM     28  C   UNL     1       2.393  -0.320  22.265  0.00  0.00    +0.111 A 
ENDBRANCH  17  19
ENDBRANCH   5  17
BRANCH  16  18
ATOM     18  C   UNL     1      -6.002   0.238  24.805  0.00  0.00    +0.131 C 
BRANCH  18  20
ATOM     20  C   UNL     1      -4.781  -0.622  24.701  0.00  0.00    -0.038 A 
ATOM     23  C   UNL     1      -3.662  -0.342  25.486  0.00  0.00    +0.007 A 
ATOM     24  C   UNL     1      -4.763  -1.704  23.820  0.00  0.00    +0.007 A 
ATOM     26  C   UNL     1      -2.525  -1.145  25.390  0.00  0.00    +0.046 A 
ATOM     27  C   UNL     1      -3.626  -2.506  23.725  0.00  0.00    +0.046 A 
ATOM     29  C   UNL     1      -2.507  -2.226  24.510  0.00  0.00    +0.120 A 
BRANCH  29   3
ATOM      3  O   UNL     1      -1.398  -3.010  24.418  0.00  0.00    -0.495 OA
ATOM     30  C   UNL     1      -0.304  -2.690  25.277  0.00  0.00    +0.277 C 
ENDBRANCH  29   3
ENDBRANCH  18  20
ENDBRANCH  16  18
TORSDOF 5
ENDMDL
