MODEL 1
REMARK VINA RESULT:       1.2      0.000      0.000
REMARK  Name = 28961950
REMARK  12 active torsions:
REMARK  status: ('A' for Active; 'I' for Inactive)
REMARK    1  A    between atoms: O_2  and  C_12
REMARK    2  A    between atoms: O_3  and  C_19
REMARK    3  A    between atoms: O_4  and  C_22
REMARK    4  A    between atoms: O_4  and  C_28
REMARK    5  A    between atoms: O_6  and  C_24
REMARK    6  A    between atoms: O_6  and  C_29
REMARK    7  A    between atoms: N_7  and  C_10
REMARK    8  A    between atoms: N_8  and  C_20
REMARK    9  A    between atoms: N_9  and  C_16
REMARK   10  A    between atoms: C_11  and  C_16
REMARK   11  A    between atoms: C_13  and  C_19
REMARK   12  A    between atoms: C_21  and  C_24
REMARK                            x       y       z     vdW  Elec       q    Type
REMARK                         _______ _______ _______ _____ _____    ______ ____
ROOT
ATOM      1  O   UNL     1      -5.156   3.918  24.734  0.00  0.00    -0.365 OA
ATOM     10  C   UNL     1      -2.877   4.066  25.407  0.00  0.00    +0.118 C 
ATOM     11  C   UNL     1      -3.827   4.113  24.203  0.00  0.00    +0.155 C 
ATOM     12  C   UNL     1      -3.640   3.217  26.412  0.00  0.00    +0.165 C 
ATOM     13  C   UNL     1      -5.066   3.689  26.154  0.00  0.00    +0.174 C 
ENDROOT
BRANCH  10   7
ATOM      7  N   UNL     1      -1.518   3.633  25.137  0.00  0.00    -0.292 NA
ATOM      8  N   UNL     1       0.513   1.958  24.029  0.00  0.00    -0.325 N 
ATOM     14  C   UNL     1      -1.289   2.287  25.677  0.00  0.00    +0.104 C 
ATOM     15  C   UNL     1      -1.251   3.644  23.693  0.00  0.00    +0.104 C 
ATOM     17  C   UNL     1       0.157   1.842  25.448  0.00  0.00    +0.120 C 
ATOM     18  C   UNL     1       0.197   3.243  23.398  0.00  0.00    +0.120 C 
BRANCH   8  20
ATOM     20  C   UNL     1       1.592   1.201  23.557  0.00  0.00    +0.072 A 
ATOM     22  C   UNL     1       1.441  -0.160  23.290  0.00  0.00    +0.141 A 
ATOM     23  C   UNL     1       2.826   1.819  23.355  0.00  0.00    +0.027 A 
ATOM     25  C   UNL     1       2.524  -0.903  22.821  0.00  0.00    +0.047 A 
ATOM     26  C   UNL     1       3.909   1.076  22.886  0.00  0.00    +0.002 A 
ATOM     27  C   UNL     1       3.758  -0.285  22.619  0.00  0.00    +0.004 A 
BRANCH  22   4
ATOM      4  O   UNL     1       0.243  -0.782  23.480  0.00  0.00    -0.493 OA
ATOM     28  C   UNL     1       0.061  -1.473  24.715  0.00  0.00    +0.277 C 
ENDBRANCH  22   4
ENDBRANCH   8  20
ENDBRANCH  10   7
BRANCH  12   2
ATOM      2  O   UNL     1      -3.518   1.830  26.123  0.00  0.00    -0.388 OA
ATOM     30  H   UNL     1      -4.028   1.344  26.792  0.00  0.00    +0.210 HD
ENDBRANCH  12   2
BRANCH  11  16
ATOM     16  C   UNL     1      -3.613   3.058  23.123  0.00  0.00    +0.137 C 
BRANCH  16   9
ATOM      5  O   UNL     1      -2.307   0.476  23.122  0.00  0.00    -0.273 OA
ATOM      9  N   UNL     1      -4.188   1.781  23.523  0.00  0.00    -0.311 N 
ATOM     21  C   UNL     1      -3.475   0.600  23.484  0.00  0.00    +0.239 C 
ATOM     31  H   UNL     1      -5.156   1.773  23.830  0.00  0.00    +0.149 HD
BRANCH  21  24
ATOM     24  C   UNL     1      -4.315  -0.567  23.953  0.00  0.00    +0.255 C 
BRANCH  24   6
ATOM      6  O   UNL     1      -3.810  -1.091  25.162  0.00  0.00    -0.374 OA
ATOM     29  C   UNL     1      -3.441  -2.462  25.036  0.00  0.00    +0.194 C 
ENDBRANCH  24   6
ENDBRANCH  21  24
ENDBRANCH  16   9
ENDBRANCH  11  16
BRANCH  13  19
ATOM     19  C   UNL     1      -6.161   2.726  26.576  0.00  0.00    +0.190 C 
BRANCH  19   3
ATOM      3  O   UNL     1      -6.556   1.958  25.451  0.00  0.00    -0.392 OA
ATOM     32  H   UNL     1      -7.355   1.465  25.707  0.00  0.00    +0.210 HD
ENDBRANCH  19   3
ENDBRANCH  13  19
TORSDOF 10
ENDMDL
MODEL 2
REMARK VINA RESULT:       1.3      1.565      2.058
REMARK  Name = 28961950
REMARK  12 active torsions:
REMARK  status: ('A' for Active; 'I' for Inactive)
REMARK    1  A    between atoms: O_2  and  C_12
REMARK    2  A    between atoms: O_3  and  C_19
REMARK    3  A    between atoms: O_4  and  C_22
REMARK    4  A    between atoms: O_4  and  C_28
REMARK    5  A    between atoms: O_6  and  C_24
REMARK    6  A    between atoms: O_6  and  C_29
REMARK    7  A    between atoms: N_7  and  C_10
REMARK    8  A    between atoms: N_8  and  C_20
REMARK    9  A    between atoms: N_9  and  C_16
REMARK   10  A    between atoms: C_11  and  C_16
REMARK   11  A    between atoms: C_13  and  C_19
REMARK   12  A    between atoms: C_21  and  C_24
REMARK                            x       y       z     vdW  Elec       q    Type
REMARK                         _______ _______ _______ _____ _____    ______ ____
ROOT
ATOM      1  O   UNL     1      -5.394   2.863  24.598  0.00  0.00    -0.365 OA
ATOM     10  C   UNL     1      -3.141   2.590  23.880  0.00  0.00    +0.118 C 
ATOM     11  C   UNL     1      -4.438   1.846  24.223  0.00  0.00    +0.155 C 
ATOM     12  C   UNL     1      -3.253   3.869  24.696  0.00  0.00    +0.165 C 
ATOM     13  C   UNL     1      -4.746   4.150  24.573  0.00  0.00    +0.174 C 
ENDROOT
BRANCH  10   7
ATOM      7  N   UNL     1      -1.907   1.846  24.063  0.00  0.00    -0.292 NA
ATOM      8  N   UNL     1       0.802   1.116  23.524  0.00  0.00    -0.325 N 
ATOM     14  C   UNL     1      -1.567   1.106  22.842  0.00  0.00    +0.104 C 
ATOM     15  C   UNL     1      -0.807   2.751  24.421  0.00  0.00    +0.104 C 
ATOM     17  C   UNL     1      -0.299   0.272  23.040  0.00  0.00    +0.120 C 
ATOM     18  C   UNL     1       0.487   1.973  24.671  0.00  0.00    +0.120 C 
BRANCH   8  20
ATOM     20  C   UNL     1       2.111   0.659  23.338  0.00  0.00    +0.072 A 
ATOM     22  C   UNL     1       2.409  -0.700  23.425  0.00  0.00    +0.141 A 
ATOM     23  C   UNL     1       3.124   1.578  23.064  0.00  0.00    +0.027 A 
ATOM     25  C   UNL     1       3.719  -1.142  23.238  0.00  0.00    +0.047 A 
ATOM     26  C   UNL     1       4.434   1.138  22.877  0.00  0.00    +0.002 A 
ATOM     27  C   UNL     1       4.731  -0.222  22.963  0.00  0.00    +0.004 A 
BRANCH  22   4
ATOM      4  O   UNL     1       1.434  -1.615  23.692  0.00  0.00    -0.493 OA
ATOM     28  C   UNL     1       1.169  -1.897  25.065  0.00  0.00    +0.277 C 
ENDBRANCH  22   4
ENDBRANCH   8  20
ENDBRANCH  10   7
BRANCH  12   2
ATOM      2  O   UNL     1      -2.900   3.653  26.056  0.00  0.00    -0.388 OA
ATOM     30  H   UNL     1      -1.968   3.908  26.162  0.00  0.00    +0.210 HD
ENDBRANCH  12   2
BRANCH  11  16
ATOM     16  C   UNL     1      -4.369   0.845  25.370  0.00  0.00    +0.137 C 
BRANCH  16   9
ATOM      5  O   UNL     1      -1.992  -0.549  26.253  0.00  0.00    -0.273 OA
ATOM      9  N   UNL     1      -3.883  -0.447  24.905  0.00  0.00    -0.311 N 
ATOM     21  C   UNL     1      -2.730  -1.026  25.395  0.00  0.00    +0.239 C 
ATOM     31  H   UNL     1      -4.418  -0.923  24.185  0.00  0.00    +0.149 HD
BRANCH  21  24
ATOM     24  C   UNL     1      -2.464  -2.363  24.738  0.00  0.00    +0.255 C 
BRANCH  24   6
ATOM      6  O   UNL     1      -3.653  -3.118  24.645  0.00  0.00    -0.374 OA
ATOM     29  C   UNL     1      -4.368  -2.840  23.445  0.00  0.00    +0.194 C 
ENDBRANCH  24   6
ENDBRANCH  21  24
ENDBRANCH  16   9
ENDBRANCH  11  16
BRANCH  13  19
ATOM     19  C   UNL     1      -5.338   5.029  25.661  0.00  0.00    +0.190 C 
BRANCH  19   3
ATOM      3  O   UNL     1      -6.638   4.558  25.975  0.00  0.00    -0.392 OA
ATOM     32  H   UNL     1      -7.062   5.236  26.529  0.00  0.00    +0.210 HD
ENDBRANCH  19   3
ENDBRANCH  13  19
TORSDOF 10
ENDMDL
MODEL 3
REMARK VINA RESULT:       1.4      1.758      2.461
REMARK  Name = 28961950
REMARK  12 active torsions:
REMARK  status: ('A' for Active; 'I' for Inactive)
REMARK    1  A    between atoms: O_2  and  C_12
REMARK    2  A    between atoms: O_3  and  C_19
REMARK    3  A    between atoms: O_4  and  C_22
REMARK    4  A    between atoms: O_4  and  C_28
REMARK    5  A    between atoms: O_6  and  C_24
REMARK    6  A    between atoms: O_6  and  C_29
REMARK    7  A    between atoms: N_7  and  C_10
REMARK    8  A    between atoms: N_8  and  C_20
REMARK    9  A    between atoms: N_9  and  C_16
REMARK   10  A    between atoms: C_11  and  C_16
REMARK   11  A    between atoms: C_13  and  C_19
REMARK   12  A    between atoms: C_21  and  C_24
REMARK                            x       y       z     vdW  Elec       q    Type
REMARK                         _______ _______ _______ _____ _____    ______ ____
ROOT
ATOM      1  O   UNL     1      -5.022   1.966  24.654  0.00  0.00    -0.365 OA
ATOM     10  C   UNL     1      -2.760   2.084  23.920  0.00  0.00    +0.118 C 
ATOM     11  C   UNL     1      -3.865   1.137  24.407  0.00  0.00    +0.155 C 
ATOM     12  C   UNL     1      -3.154   3.416  24.538  0.00  0.00    +0.165 C 
ATOM     13  C   UNL     1      -4.672   3.344  24.419  0.00  0.00    +0.174 C 
ENDROOT
BRANCH  10   7
ATOM      7  N   UNL     1      -1.394   1.663  24.176  0.00  0.00    -0.292 NA
ATOM      8  N   UNL     1       1.316   1.058  23.508  0.00  0.00    -0.325 N 
ATOM     14  C   UNL     1      -1.072   0.460  23.397  0.00  0.00    +0.104 C 
ATOM     15  C   UNL     1      -0.452   2.739  23.845  0.00  0.00    +0.104 C 
ATOM     17  C   UNL     1       0.346  -0.027  23.701  0.00  0.00    +0.120 C 
ATOM     18  C   UNL     1       0.987   2.328  24.163  0.00  0.00    +0.120 C 
BRANCH   8  20
ATOM     20  C   UNL     1       2.656   0.713  23.296  0.00  0.00    +0.072 A 
ATOM     22  C   UNL     1       3.076   0.219  22.061  0.00  0.00    +0.141 A 
ATOM     23  C   UNL     1       3.575   0.866  24.335  0.00  0.00    +0.027 A 
ATOM     25  C   UNL     1       4.414  -0.121  21.864  0.00  0.00    +0.047 A 
ATOM     26  C   UNL     1       4.912   0.526  24.138  0.00  0.00    +0.002 A 
ATOM     27  C   UNL     1       5.332   0.032  22.902  0.00  0.00    +0.004 A 
BRANCH  22   4
ATOM      4  O   UNL     1       2.194   0.062  21.033  0.00  0.00    -0.493 OA
ATOM     28  C   UNL     1       1.227  -0.977  21.162  0.00  0.00    +0.277 C 
ENDBRANCH  22   4
ENDBRANCH   8  20
ENDBRANCH  10   7
BRANCH  12   2
ATOM      2  O   UNL     1      -2.768   3.492  25.905  0.00  0.00    -0.388 OA
ATOM     30  H   UNL     1      -3.474   3.956  26.385  0.00  0.00    +0.210 HD
ENDBRANCH  12   2
BRANCH  11  16
ATOM     16  C   UNL     1      -3.583   0.361  25.689  0.00  0.00    +0.137 C 
BRANCH  16   9
ATOM      5  O   UNL     1      -4.740  -1.641  23.950  0.00  0.00    -0.273 OA
ATOM      9  N   UNL     1      -3.048  -0.960  25.390  0.00  0.00    -0.311 N 
ATOM     21  C   UNL     1      -3.683  -1.844  24.542  0.00  0.00    +0.239 C 
ATOM     31  H   UNL     1      -2.178  -1.232  25.839  0.00  0.00    +0.149 HD
BRANCH  21  24
ATOM     24  C   UNL     1      -2.908  -3.137  24.413  0.00  0.00    +0.255 C 
BRANCH  24   6
ATOM      6  O   UNL     1      -1.573  -2.882  24.030  0.00  0.00    -0.374 OA
ATOM     29  C   UNL     1      -0.699  -2.825  25.154  0.00  0.00    +0.194 C 
ENDBRANCH  24   6
ENDBRANCH  21  24
ENDBRANCH  16   9
ENDBRANCH  11  16
BRANCH  13  19
ATOM     19  C   UNL     1      -5.446   4.229  25.380  0.00  0.00    +0.190 C 
BRANCH  19   3
ATOM      3  O   UNL     1      -6.178   3.405  26.273  0.00  0.00    -0.392 OA
ATOM     32  H   UNL     1      -5.783   3.518  27.155  0.00  0.00    +0.210 HD
ENDBRANCH  19   3
ENDBRANCH  13  19
TORSDOF 10
ENDMDL
MODEL 4
REMARK VINA RESULT:       2.4      1.875      2.903
REMARK  Name = 28961950
REMARK  12 active torsions:
REMARK  status: ('A' for Active; 'I' for Inactive)
REMARK    1  A    between atoms: O_2  and  C_12
REMARK    2  A    between atoms: O_3  and  C_19
REMARK    3  A    between atoms: O_4  and  C_22
REMARK    4  A    between atoms: O_4  and  C_28
REMARK    5  A    between atoms: O_6  and  C_24
REMARK    6  A    between atoms: O_6  and  C_29
REMARK    7  A    between atoms: N_7  and  C_10
REMARK    8  A    between atoms: N_8  and  C_20
REMARK    9  A    between atoms: N_9  and  C_16
REMARK   10  A    between atoms: C_11  and  C_16
REMARK   11  A    between atoms: C_13  and  C_19
REMARK   12  A    between atoms: C_21  and  C_24
REMARK                            x       y       z     vdW  Elec       q    Type
REMARK                         _______ _______ _______ _____ _____    ______ ____
ROOT
ATOM      1  O   UNL     1      -4.967   2.365  24.269  0.00  0.00    -0.365 OA
ATOM     10  C   UNL     1      -2.680   2.080  23.670  0.00  0.00    +0.118 C 
ATOM     11  C   UNL     1      -3.986   1.341  23.993  0.00  0.00    +0.155 C 
ATOM     12  C   UNL     1      -2.842   3.400  24.410  0.00  0.00    +0.165 C 
ATOM     13  C   UNL     1      -4.330   3.657  24.205  0.00  0.00    +0.174 C 
ENDROOT
BRANCH  10   7
ATOM      7  N   UNL     1      -1.450   1.361  23.949  0.00  0.00    -0.292 NA
ATOM      8  N   UNL     1       1.291   0.644  23.583  0.00  0.00    -0.325 N 
ATOM     14  C   UNL     1      -1.038   0.574  22.780  0.00  0.00    +0.104 C 
ATOM     15  C   UNL     1      -0.380   2.296  24.323  0.00  0.00    +0.104 C 
ATOM     17  C   UNL     1       0.227  -0.233  23.079  0.00  0.00    +0.120 C 
ATOM     18  C   UNL     1       0.907   1.546  24.673  0.00  0.00    +0.120 C 
BRANCH   8  20
ATOM     20  C   UNL     1       2.614   0.198  23.484  0.00  0.00    +0.072 A 
ATOM     22  C   UNL     1       3.631   1.071  23.098  0.00  0.00    +0.141 A 
ATOM     23  C   UNL     1       2.911  -1.133  23.776  0.00  0.00    +0.027 A 
ATOM     25  C   UNL     1       4.945   0.613  23.003  0.00  0.00    +0.047 A 
ATOM     26  C   UNL     1       4.224  -1.592  23.681  0.00  0.00    +0.002 A 
ATOM     27  C   UNL     1       5.242  -0.718  23.295  0.00  0.00    +0.004 A 
BRANCH  22   4
ATOM      4  O   UNL     1       3.362   2.376  22.809  0.00  0.00    -0.493 OA
ATOM     28  C   UNL     1       4.081   2.961  21.726  0.00  0.00    +0.277 C 
ENDBRANCH  22   4
ENDBRANCH   8  20
ENDBRANCH  10   7
BRANCH  12   2
ATOM      2  O   UNL     1      -2.549   3.260  25.794  0.00  0.00    -0.388 OA
ATOM     30  H   UNL     1      -1.674   2.845  25.870  0.00  0.00    +0.210 HD
ENDBRANCH  12   2
BRANCH  11  16
ATOM     16  C   UNL     1      -3.960   0.404  25.195  0.00  0.00    +0.137 C 
BRANCH  16   9
ATOM      5  O   UNL     1      -1.575  -0.626  26.468  0.00  0.00    -0.273 OA
ATOM      9  N   UNL     1      -3.256  -0.831  24.877  0.00  0.00    -0.311 N 
ATOM     21  C   UNL     1      -2.120  -1.233  25.549  0.00  0.00    +0.239 C 
ATOM     31  H   UNL     1      -3.622  -1.404  24.122  0.00  0.00    +0.149 HD
BRANCH  21  24
ATOM     24  C   UNL     1      -1.601  -2.549  25.014  0.00  0.00    +0.255 C 
BRANCH  24   6
ATOM      6  O   UNL     1      -2.346  -2.960  23.888  0.00  0.00    -0.374 OA
ATOM     29  C   UNL     1      -3.680  -3.321  24.236  0.00  0.00    +0.194 C 
ENDBRANCH  24   6
ENDBRANCH  21  24
ENDBRANCH  16   9
ENDBRANCH  11  16
BRANCH  13  19
ATOM     19  C   UNL     1      -4.979   4.586  25.215  0.00  0.00    +0.190 C 
BRANCH  19   3
ATOM      3  O   UNL     1      -6.109   3.937  25.775  0.00  0.00    -0.392 OA
ATOM     32  H   UNL     1      -6.513   4.560  26.405  0.00  0.00    +0.210 HD
ENDBRANCH  19   3
ENDBRANCH  13  19
TORSDOF 10
ENDMDL
MODEL 5
REMARK VINA RESULT:       3.5      1.944      6.872
REMARK  Name = 28961950
REMARK  12 active torsions:
REMARK  status: ('A' for Active; 'I' for Inactive)
REMARK    1  A    between atoms: O_2  and  C_12
REMARK    2  A    between atoms: O_3  and  C_19
REMARK    3  A    between atoms: O_4  and  C_22
REMARK    4  A    between atoms: O_4  and  C_28
REMARK    5  A    between atoms: O_6  and  C_24
REMARK    6  A    between atoms: O_6  and  C_29
REMARK    7  A    between atoms: N_7  and  C_10
REMARK    8  A    between atoms: N_8  and  C_20
REMARK    9  A    between atoms: N_9  and  C_16
REMARK   10  A    between atoms: C_11  and  C_16
REMARK   11  A    between atoms: C_13  and  C_19
REMARK   12  A    between atoms: C_21  and  C_24
REMARK                            x       y       z     vdW  Elec       q    Type
REMARK                         _______ _______ _______ _____ _____    ______ ____
ROOT
ATOM      1  O   UNL     1       2.801  -1.002  23.770  0.00  0.00    -0.365 OA
ATOM     10  C   UNL     1       1.001   0.522  24.097  0.00  0.00    +0.118 C 
ATOM     11  C   UNL     1       1.545  -0.864  24.471  0.00  0.00    +0.155 C 
ATOM     12  C   UNL     1       1.638   0.786  22.742  0.00  0.00    +0.165 C 
ATOM     13  C   UNL     1       3.014   0.165  22.951  0.00  0.00    +0.174 C 
ENDROOT
BRANCH  10   7
ATOM      7  N   UNL     1      -0.442   0.679  24.144  0.00  0.00    -0.292 NA
ATOM      8  N   UNL     1      -2.903   1.983  24.779  0.00  0.00    -0.325 N 
ATOM     14  C   UNL     1      -0.906   0.752  25.535  0.00  0.00    +0.104 C 
ATOM     15  C   UNL     1      -0.852   1.887  23.417  0.00  0.00    +0.104 C 
ATOM     17  C   UNL     1      -2.431   0.861  25.600  0.00  0.00    +0.120 C 
ATOM     18  C   UNL     1      -2.376   2.034  23.412  0.00  0.00    +0.120 C 
BRANCH   8  20
ATOM     20  C   UNL     1      -4.167   2.515  25.056  0.00  0.00    +0.072 A 
ATOM     22  C   UNL     1      -4.358   3.895  25.124  0.00  0.00    +0.141 A 
ATOM     23  C   UNL     1      -5.242   1.652  25.266  0.00  0.00    +0.027 A 
ATOM     25  C   UNL     1      -5.623   4.412  25.401  0.00  0.00    +0.047 A 
ATOM     26  C   UNL     1      -6.508   2.168  25.543  0.00  0.00    +0.002 A 
ATOM     27  C   UNL     1      -6.698   3.548  25.610  0.00  0.00    +0.004 A 
BRANCH  22   4
ATOM      4  O   UNL     1      -3.320   4.756  24.922  0.00  0.00    -0.493 OA
ATOM     28  C   UNL     1      -2.211   4.654  25.812  0.00  0.00    +0.277 C 
ENDBRANCH  22   4
ENDBRANCH   8  20
ENDBRANCH  10   7
BRANCH  12   2
ATOM      2  O   UNL     1       0.944   0.111  21.700  0.00  0.00    -0.388 OA
ATOM     30  H   UNL     1       1.584  -0.074  20.992  0.00  0.00    +0.210 HD
ENDBRANCH  12   2
BRANCH  11  16
ATOM     16  C   UNL     1       0.681  -2.061  24.092  0.00  0.00    +0.137 C 
BRANCH  16   9
ATOM      5  O   UNL     1      -1.772  -3.410  23.363  0.00  0.00    -0.273 OA
ATOM      9  N   UNL     1      -0.582  -2.041  24.816  0.00  0.00    -0.311 N 
ATOM     21  C   UNL     1      -1.699  -2.723  24.379  0.00  0.00    +0.239 C 
ATOM     31  H   UNL     1      -0.631  -1.491  25.669  0.00  0.00    +0.149 HD
BRANCH  21  24
ATOM     24  C   UNL     1      -2.867  -2.529  25.322  0.00  0.00    +0.255 C 
BRANCH  24   6
ATOM      6  O   UNL     1      -4.091  -2.622  24.625  0.00  0.00    -0.374 OA
ATOM     29  C   UNL     1      -4.333  -1.472  23.819  0.00  0.00    +0.194 C 
ENDBRANCH  24   6
ENDBRANCH  21  24
ENDBRANCH  16   9
ENDBRANCH  11  16
BRANCH  13  19
ATOM     19  C   UNL     1       3.750  -0.238  21.686  0.00  0.00    +0.190 C 
BRANCH  19   3
ATOM      3  O   UNL     1       3.548   0.761  20.700  0.00  0.00    -0.392 OA
ATOM     32  H   UNL     1       3.212   1.551  21.157  0.00  0.00    +0.210 HD
ENDBRANCH  19   3
ENDBRANCH  13  19
TORSDOF 10
ENDMDL
MODEL 6
REMARK VINA RESULT:       3.8      1.918      6.683
REMARK  Name = 28961950
REMARK  12 active torsions:
REMARK  status: ('A' for Active; 'I' for Inactive)
REMARK    1  A    between atoms: O_2  and  C_12
REMARK    2  A    between atoms: O_3  and  C_19
REMARK    3  A    between atoms: O_4  and  C_22
REMARK    4  A    between atoms: O_4  and  C_28
REMARK    5  A    between atoms: O_6  and  C_24
REMARK    6  A    between atoms: O_6  and  C_29
REMARK    7  A    between atoms: N_7  and  C_10
REMARK    8  A    between atoms: N_8  and  C_20
REMARK    9  A    between atoms: N_9  and  C_16
REMARK   10  A    between atoms: C_11  and  C_16
REMARK   11  A    between atoms: C_13  and  C_19
REMARK   12  A    between atoms: C_21  and  C_24
REMARK                            x       y       z     vdW  Elec       q    Type
REMARK                         _______ _______ _______ _____ _____    ______ ____
ROOT
ATOM      1  O   UNL     1       2.389  -0.836  23.461  0.00  0.00    -0.365 OA
ATOM     10  C   UNL     1       1.430   1.095  24.472  0.00  0.00    +0.118 C 
ATOM     11  C   UNL     1       1.163  -0.359  24.059  0.00  0.00    +0.155 C 
ATOM     12  C   UNL     1       2.529   1.527  23.513  0.00  0.00    +0.165 C 
ATOM     13  C   UNL     1       3.344   0.242  23.422  0.00  0.00    +0.174 C 
ENDROOT
BRANCH  10   7
ATOM      7  N   UNL     1       0.274   1.971  24.522  0.00  0.00    -0.292 NA
ATOM      8  N   UNL     1      -2.450   2.667  25.030  0.00  0.00    -0.325 N 
ATOM     14  C   UNL     1      -0.797   1.461  23.656  0.00  0.00    +0.104 C 
ATOM     15  C   UNL     1      -0.217   2.097  25.900  0.00  0.00    +0.104 C 
ATOM     17  C   UNL     1      -2.001   2.406  23.657  0.00  0.00    +0.120 C 
ATOM     18  C   UNL     1      -1.402   3.063  25.976  0.00  0.00    +0.120 C 
BRANCH   8  20
ATOM     20  C   UNL     1      -3.762   3.117  25.219  0.00  0.00    +0.072 A 
ATOM     22  C   UNL     1      -4.799   2.211  25.438  0.00  0.00    +0.141 A 
ATOM     23  C   UNL     1      -4.028   4.486  25.185  0.00  0.00    +0.027 A 
ATOM     25  C   UNL     1      -6.102   2.672  25.624  0.00  0.00    +0.047 A 
ATOM     26  C   UNL     1      -5.330   4.948  25.371  0.00  0.00    +0.002 A 
ATOM     27  C   UNL     1      -6.367   4.041  25.591  0.00  0.00    +0.004 A 
BRANCH  22   4
ATOM      4  O   UNL     1      -4.560   0.869  25.475  0.00  0.00    -0.493 OA
ATOM     28  C   UNL     1      -4.657   0.160  24.241  0.00  0.00    +0.277 C 
ENDBRANCH  22   4
ENDBRANCH   8  20
ENDBRANCH  10   7
BRANCH  12   2
ATOM      2  O   UNL     1       2.003   1.870  22.237  0.00  0.00    -0.388 OA
ATOM     30  H   UNL     1       1.532   1.093  21.894  0.00  0.00    +0.210 HD
ENDBRANCH  12   2
BRANCH  11  16
ATOM     16  C   UNL     1       0.047  -0.586  23.045  0.00  0.00    +0.137 C 
BRANCH  16   9
ATOM      5  O   UNL     1      -1.504  -0.956  25.459  0.00  0.00    -0.273 OA
ATOM      9  N   UNL     1      -0.755  -1.747  23.406  0.00  0.00    -0.311 N 
ATOM     21  C   UNL     1      -1.461  -1.822  24.590  0.00  0.00    +0.239 C 
ATOM     31  H   UNL     1      -0.780  -2.527  22.756  0.00  0.00    +0.149 HD
BRANCH  21  24
ATOM     24  C   UNL     1      -2.205  -3.135  24.704  0.00  0.00    +0.255 C 
BRANCH  24   6
ATOM      6  O   UNL     1      -3.576  -2.911  24.953  0.00  0.00    -0.374 OA
ATOM     29  C   UNL     1      -4.311  -2.720  23.747  0.00  0.00    +0.194 C 
ENDBRANCH  24   6
ENDBRANCH  21  24
ENDBRANCH  16   9
ENDBRANCH  11  16
BRANCH  13  19
ATOM     19  C   UNL     1       4.208   0.102  22.181  0.00  0.00    +0.190 C 
BRANCH  19   3
ATOM      3  O   UNL     1       5.566   0.006  22.576  0.00  0.00    -0.392 OA
ATOM     32  H   UNL     1       6.107   0.181  21.786  0.00  0.00    +0.210 HD
ENDBRANCH  19   3
ENDBRANCH  13  19
TORSDOF 10
ENDMDL
MODEL 7
REMARK VINA RESULT:       4.8      2.102      5.199
REMARK  Name = 28961950
REMARK  12 active torsions:
REMARK  status: ('A' for Active; 'I' for Inactive)
REMARK    1  A    between atoms: O_2  and  C_12
REMARK    2  A    between atoms: O_3  and  C_19
REMARK    3  A    between atoms: O_4  and  C_22
REMARK    4  A    between atoms: O_4  and  C_28
REMARK    5  A    between atoms: O_6  and  C_24
REMARK    6  A    between atoms: O_6  and  C_29
REMARK    7  A    between atoms: N_7  and  C_10
REMARK    8  A    between atoms: N_8  and  C_20
REMARK    9  A    between atoms: N_9  and  C_16
REMARK   10  A    between atoms: C_11  and  C_16
REMARK   11  A    between atoms: C_13  and  C_19
REMARK   12  A    between atoms: C_21  and  C_24
REMARK                            x       y       z     vdW  Elec       q    Type
REMARK                         _______ _______ _______ _____ _____    ______ ____
ROOT
ATOM      1  O   UNL     1      -0.401   5.257  24.698  0.00  0.00    -0.365 OA
ATOM     10  C   UNL     1      -1.686   3.640  25.882  0.00  0.00    +0.118 C 
ATOM     11  C   UNL     1      -0.407   3.859  25.062  0.00  0.00    +0.155 C 
ATOM     12  C   UNL     1      -2.608   4.739  25.378  0.00  0.00    +0.165 C 
ATOM     13  C   UNL     1      -1.611   5.874  25.178  0.00  0.00    +0.174 C 
ENDROOT
BRANCH  10   7
ATOM      7  N   UNL     1      -2.246   2.300  25.854  0.00  0.00    -0.292 NA
ATOM      8  N   UNL     1      -2.694  -0.317  24.800  0.00  0.00    -0.325 N 
ATOM     14  C   UNL     1      -3.074   2.114  24.656  0.00  0.00    +0.104 C 
ATOM     15  C   UNL     1      -1.177   1.294  25.882  0.00  0.00    +0.104 C 
ATOM     17  C   UNL     1      -3.716   0.725  24.642  0.00  0.00    +0.120 C 
ATOM     18  C   UNL     1      -1.756  -0.122  25.910  0.00  0.00    +0.120 C 
BRANCH   8  20
ATOM     20  C   UNL     1      -3.003  -1.612  24.371  0.00  0.00    +0.072 A 
ATOM     22  C   UNL     1      -1.991  -2.544  24.137  0.00  0.00    +0.141 A 
ATOM     23  C   UNL     1      -4.337  -1.969  24.177  0.00  0.00    +0.027 A 
ATOM     25  C   UNL     1      -2.313  -3.831  23.710  0.00  0.00    +0.047 A 
ATOM     26  C   UNL     1      -4.660  -3.256  23.750  0.00  0.00    +0.002 A 
ATOM     27  C   UNL     1      -3.648  -4.188  23.516  0.00  0.00    +0.004 A 
BRANCH  22   4
ATOM      4  O   UNL     1      -0.681  -2.215  24.321  0.00  0.00    -0.493 OA
ATOM     28  C   UNL     1      -0.034  -2.750  25.474  0.00  0.00    +0.277 C 
ENDBRANCH  22   4
ENDBRANCH   8  20
ENDBRANCH  10   7
BRANCH  12   2
ATOM      2  O   UNL     1      -3.211   4.386  24.139  0.00  0.00    -0.388 OA
ATOM     30  H   UNL     1      -3.184   3.417  24.064  0.00  0.00    +0.210 HD
ENDBRANCH  12   2
BRANCH  11  16
ATOM     16  C   UNL     1      -0.278   3.056  23.773  0.00  0.00    +0.137 C 
BRANCH  16   9
ATOM      5  O   UNL     1       0.005   0.360  22.761  0.00  0.00    -0.273 OA
ATOM      9  N   UNL     1       0.922   2.229  23.793  0.00  0.00    -0.311 N 
ATOM     21  C   UNL     1       0.950   0.949  23.281  0.00  0.00    +0.239 C 
ATOM     31  H   UNL     1       1.760   2.621  24.212  0.00  0.00    +0.149 HD
BRANCH  21  24
ATOM     24  C   UNL     1       2.320   0.325  23.432  0.00  0.00    +0.255 C 
BRANCH  24   6
ATOM      6  O   UNL     1       3.326   1.223  23.016  0.00  0.00    -0.374 OA
ATOM     29  C   UNL     1       4.607   0.602  22.966  0.00  0.00    +0.194 C 
ENDBRANCH  24   6
ENDBRANCH  21  24
ENDBRANCH  16   9
ENDBRANCH  11  16
BRANCH  13  19
ATOM     19  C   UNL     1      -2.040   6.959  24.206  0.00  0.00    +0.190 C 
BRANCH  19   3
ATOM      3  O   UNL     1      -3.158   6.496  23.467  0.00  0.00    -0.392 OA
ATOM     32  H   UNL     1      -2.849   6.321  22.561  0.00  0.00    +0.210 HD
ENDBRANCH  19   3
ENDBRANCH  13  19
TORSDOF 10
ENDMDL
MODEL 8
REMARK VINA RESULT:       5.0      2.175      5.127
REMARK  Name = 28961950
REMARK  12 active torsions:
REMARK  status: ('A' for Active; 'I' for Inactive)
REMARK    1  A    between atoms: O_2  and  C_12
REMARK    2  A    between atoms: O_3  and  C_19
REMARK    3  A    between atoms: O_4  and  C_22
REMARK    4  A    between atoms: O_4  and  C_28
REMARK    5  A    between atoms: O_6  and  C_24
REMARK    6  A    between atoms: O_6  and  C_29
REMARK    7  A    between atoms: N_7  and  C_10
REMARK    8  A    between atoms: N_8  and  C_20
REMARK    9  A    between atoms: N_9  and  C_16
REMARK   10  A    between atoms: C_11  and  C_16
REMARK   11  A    between atoms: C_13  and  C_19
REMARK   12  A    between atoms: C_21  and  C_24
REMARK                            x       y       z     vdW  Elec       q    Type
REMARK                         _______ _______ _______ _____ _____    ______ ____
ROOT
ATOM      1  O   UNL     1      -2.453   5.369  26.131  0.00  0.00    -0.365 OA
ATOM     10  C   UNL     1      -3.895   3.974  24.850  0.00  0.00    +0.118 C 
ATOM     11  C   UNL     1      -3.213   4.143  26.214  0.00  0.00    +0.155 C 
ATOM     12  C   UNL     1      -2.975   4.737  23.910  0.00  0.00    +0.165 C 
ATOM     13  C   UNL     1      -2.572   5.907  24.800  0.00  0.00    +0.174 C 
ENDROOT
BRANCH  10   7
ATOM      7  N   UNL     1      -4.198   2.611  24.448  0.00  0.00    -0.292 NA
ATOM      8  N   UNL     1      -3.778  -0.208  24.268  0.00  0.00    -0.325 N 
ATOM     14  C   UNL     1      -3.124   2.073  23.603  0.00  0.00    +0.104 C 
ATOM     15  C   UNL     1      -4.382   1.755  25.627  0.00  0.00    +0.104 C 
ATOM     17  C   UNL     1      -3.458   0.658  23.126  0.00  0.00    +0.120 C 
ATOM     18  C   UNL     1      -4.757   0.329  25.217  0.00  0.00    +0.120 C 
BRANCH   8  20
ATOM     20  C   UNL     1      -3.667  -1.593  24.095  0.00  0.00    +0.072 A 
ATOM     22  C   UNL     1      -2.473  -2.251  24.389  0.00  0.00    +0.141 A 
ATOM     23  C   UNL     1      -4.763  -2.314  23.622  0.00  0.00    +0.027 A 
ATOM     25  C   UNL     1      -2.374  -3.631  24.211  0.00  0.00    +0.047 A 
ATOM     26  C   UNL     1      -4.666  -3.694  23.445  0.00  0.00    +0.002 A 
ATOM     27  C   UNL     1      -3.471  -4.352  23.739  0.00  0.00    +0.004 A 
BRANCH  22   4
ATOM      4  O   UNL     1      -1.390  -1.564  24.851  0.00  0.00    -0.493 OA
ATOM     28  C   UNL     1      -1.473  -1.037  26.173  0.00  0.00    +0.277 C 
ENDBRANCH  22   4
ENDBRANCH   8  20
ENDBRANCH  10   7
BRANCH  12   2
ATOM      2  O   UNL     1      -1.833   3.966  23.558  0.00  0.00    -0.388 OA
ATOM     30  H   UNL     1      -1.284   3.873  24.355  0.00  0.00    +0.210 HD
ENDBRANCH  12   2
BRANCH  11  16
ATOM     16  C   UNL     1      -2.249   3.040  26.637  0.00  0.00    +0.137 C 
BRANCH  16   9
ATOM      5  O   UNL     1       0.570   2.417  26.828  0.00  0.00    -0.273 OA
ATOM      9  N   UNL     1      -1.350   2.688  25.547  0.00  0.00    -0.311 N 
ATOM     21  C   UNL     1      -0.014   2.408  25.747  0.00  0.00    +0.239 C 
ATOM     31  H   UNL     1      -1.734   2.662  24.606  0.00  0.00    +0.149 HD
BRANCH  21  24
ATOM     24  C   UNL     1       0.679   2.073  24.444  0.00  0.00    +0.255 C 
BRANCH  24   6
ATOM      6  O   UNL     1       0.038   0.993  23.801  0.00  0.00    -0.374 OA
ATOM     29  C   UNL     1       0.967   0.141  23.137  0.00  0.00    +0.194 C 
ENDBRANCH  24   6
ENDBRANCH  21  24
ENDBRANCH  16   9
ENDBRANCH  11  16
BRANCH  13  19
ATOM     19  C   UNL     1      -1.275   6.600  24.422  0.00  0.00    +0.190 C 
BRANCH  19   3
ATOM      3  O   UNL     1      -0.190   5.735  24.716  0.00  0.00    -0.392 OA
ATOM     32  H   UNL     1      -0.399   4.870  24.324  0.00  0.00    +0.210 HD
ENDBRANCH  19   3
ENDBRANCH  13  19
TORSDOF 10
ENDMDL
