MODEL 1
REMARK VINA RESULT:       5.5      0.000      0.000
REMARK  Name = 7663763
REMARK  3 active torsions:
REMARK  status: ('A' for Active; 'I' for Inactive)
REMARK    1  A    between atoms: N_6  and  C_20
REMARK    2  A    between atoms: C_17  and  C_19
REMARK    3  A    between atoms: C_21  and  C_24
REMARK                            x       y       z     vdW  Elec       q    Type
REMARK                         _______ _______ _______ _____ _____    ______ ____
ROOT
ATOM      2  O   UNL     1      -0.374   2.820  26.279  0.00  0.00    -0.267 OA
ATOM      3  O   UNL     1      -4.762  -0.045  26.673  0.00  0.00    -0.252 OA
ATOM      4  N   UNL     1      -5.181   1.782  25.316  0.00  0.00    -0.284 N 
ATOM      5  N   UNL     1      -2.354   3.262  25.130  0.00  0.00    -0.311 N 
ATOM      6  N   UNL     1      -4.805  -0.349  24.375  0.00  0.00    -0.269 N 
ATOM      7  C   UNL     1      -4.506   3.969  26.324  0.00  0.00    +0.027 C 
ATOM      8  C   UNL     1      -4.498   3.702  23.882  0.00  0.00    +0.054 C 
ATOM      9  C   UNL     1      -4.841   4.667  25.012  0.00  0.00    +0.018 C 
ATOM     10  C   UNL     1      -5.327   2.677  26.468  0.00  0.00    +0.114 C 
ATOM     11  C   UNL     1      -2.997   3.702  26.376  0.00  0.00    +0.130 C 
ATOM     12  C   UNL     1      -5.359   2.427  24.003  0.00  0.00    +0.119 C 
ATOM     13  C   UNL     1      -3.026   3.329  23.909  0.00  0.00    +0.027 A 
ATOM     14  C   UNL     1      -2.382   3.034  22.769  0.00  0.00    +0.022 A 
ATOM     15  C   UNL     1      -1.002   2.873  25.219  0.00  0.00    +0.259 A 
ATOM     16  C   UNL     1      -4.896   0.416  25.537  0.00  0.00    +0.306 C 
ATOM     17  C   UNL     1      -0.314   2.521  23.928  0.00  0.00    +0.040 A 
ATOM     18  C   UNL     1      -1.007   2.624  22.785  0.00  0.00    +0.015 A 
ATOM     33  H   UNL     1      -5.331  -0.052  23.561  0.00  0.00    +0.156 HD
ENDROOT
BRANCH   6  20
ATOM     20  C   UNL     1      -4.082  -1.556  24.200  0.00  0.00    +0.035 A 
ATOM     22  C   UNL     1      -2.738  -1.616  24.556  0.00  0.00    +0.023 A 
ATOM     23  C   UNL     1      -4.722  -2.675  23.674  0.00  0.00    +0.023 A 
ATOM     25  C   UNL     1      -2.028  -2.804  24.385  0.00  0.00    +0.002 A 
ATOM     26  C   UNL     1      -4.012  -3.863  23.504  0.00  0.00    +0.002 A 
ATOM     27  C   UNL     1      -2.665  -3.927  23.859  0.00  0.00    +0.000 A 
ENDBRANCH   6  20
BRANCH  17  19
ATOM     19  C   UNL     1       1.064   2.097  23.938  0.00  0.00    +0.014 C 
ATOM     21  C   UNL     1       1.488   0.987  23.322  0.00  0.00    +0.008 C 
BRANCH  21  24
ATOM      1 CL   UNL     1       7.129  -0.951  23.291  0.00  0.00    -0.084 Cl
ATOM     24  C   UNL     1       2.881   0.508  23.314  0.00  0.00    -0.025 A 
ATOM     28  C   UNL     1       3.144  -0.818  23.618  0.00  0.00    +0.009 A 
ATOM     29  C   UNL     1       3.901   1.393  23.002  0.00  0.00    +0.009 A 
ATOM     30  C   UNL     1       4.464  -1.271  23.612  0.00  0.00    +0.020 A 
ATOM     31  C   UNL     1       5.220   0.940  22.995  0.00  0.00    +0.020 A 
ATOM     32  C   UNL     1       5.502  -0.392  23.300  0.00  0.00    +0.041 A 
ENDBRANCH  21  24
ENDBRANCH  17  19
TORSDOF 3
ENDMDL
