MODEL 1
REMARK VINA RESULT:      -4.6      0.000      0.000
REMARK  Name = 51137885
REMARK  4 active torsions:
REMARK  status: ('A' for Active; 'I' for Inactive)
REMARK    1  A    between atoms: N_3  and  C_11
REMARK    2  A    between atoms: N_4  and  C_15
REMARK    3  A    between atoms: C_6  and  C_10
REMARK    4  A    between atoms: C_11  and  C_13
REMARK                            x       y       z     vdW  Elec       q    Type
REMARK                         _______ _______ _______ _____ _____    ______ ____
ROOT
ATOM      3  N   UNL     1      -5.156 -10.193  10.183  0.00  0.00    -0.297 NA
ATOM      6  C   UNL     1      -7.036  -9.920  11.557  0.00  0.00    +0.070 C 
ATOM      7  C   UNL     1      -6.697  -8.582  10.877  0.00  0.00    +0.028 C 
ATOM      8  C   UNL     1      -5.779 -10.780  11.370  0.00  0.00    +0.096 C 
ATOM      9  C   UNL     1      -5.270  -8.747  10.372  0.00  0.00    +0.085 C 
ENDROOT
BRANCH   6  10
ATOM      4  N   UNL     1      -8.778  -9.712  13.367  0.00  0.00    -0.330 N 
ATOM      5  N   UNL     1      -6.662  -9.786  14.042  0.00  0.00    -0.232 NA
ATOM     10  C   UNL     1      -7.464  -9.807  13.002  0.00  0.00    +0.115 A 
ATOM     12  C   UNL     1      -8.828  -9.624  14.735  0.00  0.00    +0.069 A 
ATOM     14  C   UNL     1      -7.494  -9.673  15.132  0.00  0.00    +0.089 A 
ATOM     15  C   UNL     1      -9.916  -9.706  12.475  0.00  0.00    +0.150 C 
ATOM     16  C   UNL     1      -9.891  -9.511  15.630  0.00  0.00    +0.028 A 
ATOM     17  C   UNL     1      -7.185  -9.604  16.502  0.00  0.00    +0.030 A 
ATOM     20  C   UNL     1      -9.565  -9.444  16.989  0.00  0.00    +0.002 A 
ATOM     21  C   UNL     1      -8.237  -9.490  17.419  0.00  0.00    +0.002 A 
ENDBRANCH   6  10
BRANCH   3  11
ATOM     11  C   UNL     1      -3.776 -10.623  10.010  0.00  0.00    +0.119 C 
BRANCH  11  13
ATOM      1  F   UNL     1       0.044  -8.315  11.985  0.00  0.00    -0.202 F 
ATOM      2  F   UNL     1      -0.590  -9.285  14.461  0.00  0.00    -0.202 F 
ATOM     13  C   UNL     1      -2.924 -10.266  11.199  0.00  0.00    -0.030 A 
ATOM     18  C   UNL     1      -1.812  -9.440  11.038  0.00  0.00    +0.046 A 
ATOM     19  C   UNL     1      -3.248 -10.761  12.463  0.00  0.00    +0.008 A 
ATOM     22  C   UNL     1      -1.024  -9.109  12.140  0.00  0.00    +0.159 A 
ATOM     23  C   UNL     1      -2.460 -10.429  13.564  0.00  0.00    +0.041 A 
ATOM     24  C   UNL     1      -1.347  -9.603  13.404  0.00  0.00    +0.158 A 
ENDBRANCH  11  13
ENDBRANCH   3  11
TORSDOF 3
ENDMDL
MODEL 2
REMARK VINA RESULT:      -4.5     14.969     16.563
REMARK  Name = 51137885
REMARK  4 active torsions:
REMARK  status: ('A' for Active; 'I' for Inactive)
REMARK    1  A    between atoms: N_3  and  C_11
REMARK    2  A    between atoms: N_4  and  C_15
REMARK    3  A    between atoms: C_6  and  C_10
REMARK    4  A    between atoms: C_11  and  C_13
REMARK                            x       y       z     vdW  Elec       q    Type
REMARK                         _______ _______ _______ _____ _____    ______ ____
ROOT
ATOM      3  N   UNL     1       0.458  -0.561  23.834  0.00  0.00    -0.297 NA
ATOM      6  C   UNL     1      -1.261   0.182  25.245  0.00  0.00    +0.070 C 
ATOM      7  C   UNL     1      -1.463  -1.310  24.929  0.00  0.00    +0.028 C 
ATOM      8  C   UNL     1      -0.251   0.668  24.197  0.00  0.00    +0.096 C 
ATOM      9  C   UNL     1      -0.587  -1.578  23.713  0.00  0.00    +0.085 C 
ENDROOT
BRANCH   6  10
ATOM      4  N   UNL     1      -2.518   2.353  25.489  0.00  0.00    -0.330 N 
ATOM      5  N   UNL     1      -3.747   0.546  25.084  0.00  0.00    -0.232 NA
ATOM     10  C   UNL     1      -2.529   1.004  25.267  0.00  0.00    +0.115 A 
ATOM     12  C   UNL     1      -3.815   2.795  25.447  0.00  0.00    +0.069 A 
ATOM     14  C   UNL     1      -4.563   1.648  25.193  0.00  0.00    +0.089 A 
ATOM     15  C   UNL     1      -1.350   3.172  25.727  0.00  0.00    +0.150 C 
ATOM     16  C   UNL     1      -4.381   4.060  25.604  0.00  0.00    +0.028 A 
ATOM     17  C   UNL     1      -5.961   1.752  25.085  0.00  0.00    +0.030 A 
ATOM     20  C   UNL     1      -5.774   4.145  25.495  0.00  0.00    +0.002 A 
ATOM     21  C   UNL     1      -6.551   3.013  25.239  0.00  0.00    +0.002 A 
ENDBRANCH   6  10
BRANCH   3  11
ATOM     11  C   UNL     1       1.233  -0.413  22.610  0.00  0.00    +0.119 C 
BRANCH  11  13
ATOM      1  F   UNL     1       5.479  -2.136  24.293  0.00  0.00    -0.202 F 
ATOM      2  F   UNL     1       6.731   0.214  23.674  0.00  0.00    -0.202 F 
ATOM     13  C   UNL     1       2.703  -0.245  22.895  0.00  0.00    -0.030 A 
ATOM     18  C   UNL     1       3.424  -1.289  23.474  0.00  0.00    +0.046 A 
ATOM     19  C   UNL     1       3.342   0.953  22.579  0.00  0.00    +0.008 A 
ATOM     22  C   UNL     1       4.785  -1.134  23.737  0.00  0.00    +0.159 A 
ATOM     23  C   UNL     1       4.702   1.109  22.842  0.00  0.00    +0.041 A 
ATOM     24  C   UNL     1       5.425   0.065  23.421  0.00  0.00    +0.158 A 
ENDBRANCH  11  13
ENDBRANCH   3  11
TORSDOF 3
ENDMDL
MODEL 3
REMARK VINA RESULT:      -4.3      3.376      6.500
REMARK  Name = 51137885
REMARK  4 active torsions:
REMARK  status: ('A' for Active; 'I' for Inactive)
REMARK    1  A    between atoms: N_3  and  C_11
REMARK    2  A    between atoms: N_4  and  C_15
REMARK    3  A    between atoms: C_6  and  C_10
REMARK    4  A    between atoms: C_11  and  C_13
REMARK                            x       y       z     vdW  Elec       q    Type
REMARK                         _______ _______ _______ _____ _____    ______ ____
ROOT
ATOM      3  N   UNL     1      -4.216 -10.522  15.543  0.00  0.00    -0.297 NA
ATOM      6  C   UNL     1      -4.992 -10.781  13.346  0.00  0.00    +0.070 C 
ATOM      7  C   UNL     1      -3.454 -10.756  13.348  0.00  0.00    +0.028 C 
ATOM      8  C   UNL     1      -5.392 -10.231  14.722  0.00  0.00    +0.096 C 
ATOM      9  C   UNL     1      -3.071 -10.172  14.702  0.00  0.00    +0.085 C 
ENDROOT
BRANCH   6  10
ATOM      4  N   UNL     1      -6.994 -10.000  12.028  0.00  0.00    -0.330 N 
ATOM      5  N   UNL     1      -5.006  -9.352  11.273  0.00  0.00    -0.232 NA
ATOM     10  C   UNL     1      -5.638 -10.033  12.203  0.00  0.00    +0.115 A 
ATOM     12  C   UNL     1      -7.254  -9.247  10.912  0.00  0.00    +0.069 A 
ATOM     14  C   UNL     1      -5.997  -8.854  10.459  0.00  0.00    +0.089 A 
ATOM     15  C   UNL     1      -7.981 -10.642  12.867  0.00  0.00    +0.150 C 
ATOM     16  C   UNL     1      -8.444  -8.887  10.279  0.00  0.00    +0.028 A 
ATOM     17  C   UNL     1      -5.903  -8.054   9.307  0.00  0.00    +0.030 A 
ATOM     20  C   UNL     1      -8.332  -8.090   9.134  0.00  0.00    +0.002 A 
ATOM     21  C   UNL     1      -7.085  -7.680   8.656  0.00  0.00    +0.002 A 
ENDBRANCH   6  10
BRANCH   3  11
ATOM     11  C   UNL     1      -4.222  -9.791  16.802  0.00  0.00    +0.119 C 
BRANCH  11  13
ATOM      1  F   UNL     1      -9.077  -9.464  17.177  0.00  0.00    -0.202 F 
ATOM      2  F   UNL     1      -9.009 -10.594  19.665  0.00  0.00    -0.202 F 
ATOM     13  C   UNL     1      -5.501 -10.005  17.568  0.00  0.00    -0.030 A 
ATOM     18  C   UNL     1      -6.721  -9.627  17.007  0.00  0.00    +0.046 A 
ATOM     19  C   UNL     1      -5.466 -10.582  18.837  0.00  0.00    +0.008 A 
ATOM     22  C   UNL     1      -7.906  -9.826  17.715  0.00  0.00    +0.159 A 
ATOM     23  C   UNL     1      -6.651 -10.781  19.546  0.00  0.00    +0.041 A 
ATOM     24  C   UNL     1      -7.871 -10.404  18.985  0.00  0.00    +0.158 A 
ENDBRANCH  11  13
ENDBRANCH   3  11
TORSDOF 3
ENDMDL
MODEL 4
REMARK VINA RESULT:      -3.5      2.817      4.119
REMARK  Name = 51137885
REMARK  4 active torsions:
REMARK  status: ('A' for Active; 'I' for Inactive)
REMARK    1  A    between atoms: N_3  and  C_11
REMARK    2  A    between atoms: N_4  and  C_15
REMARK    3  A    between atoms: C_6  and  C_10
REMARK    4  A    between atoms: C_11  and  C_13
REMARK                            x       y       z     vdW  Elec       q    Type
REMARK                         _______ _______ _______ _____ _____    ______ ____
ROOT
ATOM      3  N   UNL     1      -2.580 -10.281  11.073  0.00  0.00    -0.297 NA
ATOM      6  C   UNL     1      -4.734 -10.214  10.148  0.00  0.00    +0.070 C 
ATOM      7  C   UNL     1      -3.943  -8.973   9.700  0.00  0.00    +0.028 C 
ATOM      8  C   UNL     1      -3.932 -10.781  11.328  0.00  0.00    +0.096 C 
ATOM      9  C   UNL     1      -2.763  -8.890  10.660  0.00  0.00    +0.085 C 
ENDROOT
BRANCH   6  10
ATOM      4  N   UNL     1      -7.086  -9.527   9.559  0.00  0.00    -0.330 N 
ATOM      5  N   UNL     1      -6.730 -10.099  11.677  0.00  0.00    -0.232 NA
ATOM     10  C   UNL     1      -6.182  -9.955  10.492  0.00  0.00    +0.115 A 
ATOM     12  C   UNL     1      -8.299  -9.386  10.184  0.00  0.00    +0.069 A 
ATOM     14  C   UNL     1      -8.050  -9.750  11.505  0.00  0.00    +0.089 A 
ATOM     15  C   UNL     1      -6.817  -9.267   8.162  0.00  0.00    +0.150 C 
ATOM     16  C   UNL     1      -9.552  -8.986   9.722  0.00  0.00    +0.028 A 
ATOM     17  C   UNL     1      -9.105  -9.717  12.434  0.00  0.00    +0.030 A 
ATOM     20  C   UNL     1     -10.590  -8.958  10.660  0.00  0.00    +0.002 A 
ATOM     21  C   UNL     1     -10.372  -9.318  11.992  0.00  0.00    +0.002 A 
ENDBRANCH   6  10
BRANCH   3  11
ATOM     11  C   UNL     1      -1.713 -10.405  12.236  0.00  0.00    +0.119 C 
BRANCH  11  13
ATOM      1  F   UNL     1      -5.965 -10.634  14.622  0.00  0.00    -0.202 F 
ATOM      2  F   UNL     1      -4.666 -10.706  17.027  0.00  0.00    -0.202 F 
ATOM     13  C   UNL     1      -2.502 -10.485  13.517  0.00  0.00    -0.030 A 
ATOM     18  C   UNL     1      -3.895 -10.523  13.476  0.00  0.00    +0.046 A 
ATOM     19  C   UNL     1      -1.839 -10.522  14.743  0.00  0.00    +0.008 A 
ATOM     22  C   UNL     1      -4.626 -10.598  14.661  0.00  0.00    +0.159 A 
ATOM     23  C   UNL     1      -2.570 -10.597  15.929  0.00  0.00    +0.041 A 
ATOM     24  C   UNL     1      -3.964 -10.635  15.888  0.00  0.00    +0.158 A 
ENDBRANCH  11  13
ENDBRANCH   3  11
TORSDOF 3
ENDMDL
MODEL 5
REMARK VINA RESULT:      -2.7      3.351      4.966
REMARK  Name = 51137885
REMARK  4 active torsions:
REMARK  status: ('A' for Active; 'I' for Inactive)
REMARK    1  A    between atoms: N_3  and  C_11
REMARK    2  A    between atoms: N_4  and  C_15
REMARK    3  A    between atoms: C_6  and  C_10
REMARK    4  A    between atoms: C_11  and  C_13
REMARK                            x       y       z     vdW  Elec       q    Type
REMARK                         _______ _______ _______ _____ _____    ______ ____
ROOT
ATOM      3  N   UNL     1      -3.056  -9.671  10.607  0.00  0.00    -0.297 NA
ATOM      6  C   UNL     1      -4.838  -8.792   9.362  0.00  0.00    +0.070 C 
ATOM      7  C   UNL     1      -4.518  -7.852  10.538  0.00  0.00    +0.028 C 
ATOM      8  C   UNL     1      -4.130 -10.107   9.712  0.00  0.00    +0.096 C 
ATOM      9  C   UNL     1      -3.679  -8.689  11.494  0.00  0.00    +0.085 C 
ENDROOT
BRANCH   6  10
ATOM      4  N   UNL     1      -7.133  -7.919   8.791  0.00  0.00    -0.330 N 
ATOM      5  N   UNL     1      -6.957 -10.118   9.067  0.00  0.00    -0.232 NA
ATOM     10  C   UNL     1      -6.310  -8.974   9.076  0.00  0.00    +0.115 A 
ATOM     12  C   UNL     1      -8.394  -8.415   8.585  0.00  0.00    +0.069 A 
ATOM     14  C   UNL     1      -8.258  -9.789   8.762  0.00  0.00    +0.089 A 
ATOM     15  C   UNL     1      -6.746  -6.527   8.720  0.00  0.00    +0.150 C 
ATOM     16  C   UNL     1      -9.604  -7.799   8.267  0.00  0.00    +0.028 A 
ATOM     17  C   UNL     1      -9.388 -10.614   8.618  0.00  0.00    +0.030 A 
ATOM     20  C   UNL     1     -10.718  -8.634   8.128  0.00  0.00    +0.002 A 
ATOM     21  C   UNL     1     -10.614 -10.016   8.299  0.00  0.00    +0.002 A 
ENDBRANCH   6  10
BRANCH   3  11
ATOM     11  C   UNL     1      -2.457 -10.779  11.338  0.00  0.00    +0.119 C 
BRANCH  11  13
ATOM      1  F   UNL     1      -1.071 -10.482  16.008  0.00  0.00    -0.202 F 
ATOM      2  F   UNL     1      -3.676 -10.561  16.836  0.00  0.00    -0.202 F 
ATOM     13  C   UNL     1      -2.783 -10.721  12.807  0.00  0.00    -0.030 A 
ATOM     18  C   UNL     1      -1.756 -10.627  13.746  0.00  0.00    +0.046 A 
ATOM     19  C   UNL     1      -4.112 -10.761  13.229  0.00  0.00    +0.008 A 
ATOM     22  C   UNL     1      -2.058 -10.573  15.106  0.00  0.00    +0.159 A 
ATOM     23  C   UNL     1      -4.414 -10.707  14.589  0.00  0.00    +0.041 A 
ATOM     24  C   UNL     1      -3.387 -10.613  15.529  0.00  0.00    +0.158 A 
ENDBRANCH  11  13
ENDBRANCH   3  11
TORSDOF 3
ENDMDL
MODEL 6
REMARK VINA RESULT:      -2.2     14.892     16.407
REMARK  Name = 51137885
REMARK  4 active torsions:
REMARK  status: ('A' for Active; 'I' for Inactive)
REMARK    1  A    between atoms: N_3  and  C_11
REMARK    2  A    between atoms: N_4  and  C_15
REMARK    3  A    between atoms: C_6  and  C_10
REMARK    4  A    between atoms: C_11  and  C_13
REMARK                            x       y       z     vdW  Elec       q    Type
REMARK                         _______ _______ _______ _____ _____    ______ ____
ROOT
ATOM      3  N   UNL     1       0.527  -0.562  23.753  0.00  0.00    -0.297 NA
ATOM      6  C   UNL     1      -1.241   0.100  25.145  0.00  0.00    +0.070 C 
ATOM      7  C   UNL     1      -1.540  -1.291  24.560  0.00  0.00    +0.028 C 
ATOM      8  C   UNL     1      -0.105   0.652  24.273  0.00  0.00    +0.096 C 
ATOM      9  C   UNL     1      -0.586  -1.437  23.382  0.00  0.00    +0.085 C 
ENDROOT
BRANCH   6  10
ATOM      4  N   UNL     1      -3.717   0.571  25.132  0.00  0.00    -0.330 N 
ATOM      5  N   UNL     1      -2.382   2.333  25.367  0.00  0.00    -0.232 NA
ATOM     10  C   UNL     1      -2.431   1.028  25.219  0.00  0.00    +0.115 A 
ATOM     12  C   UNL     1      -4.554   1.653  25.231  0.00  0.00    +0.069 A 
ATOM     14  C   UNL     1      -3.696   2.741  25.377  0.00  0.00    +0.089 A 
ATOM     15  C   UNL     1      -4.126  -0.805  24.965  0.00  0.00    +0.150 C 
ATOM     16  C   UNL     1      -5.943   1.770  25.206  0.00  0.00    +0.028 A 
ATOM     17  C   UNL     1      -4.241   4.030  25.507  0.00  0.00    +0.030 A 
ATOM     20  C   UNL     1      -6.469   3.061  25.337  0.00  0.00    +0.002 A 
ATOM     21  C   UNL     1      -5.635   4.171  25.486  0.00  0.00    +0.002 A 
ENDBRANCH   6  10
BRANCH   3  11
ATOM     11  C   UNL     1       1.416  -0.290  22.633  0.00  0.00    +0.119 C 
BRANCH  11  13
ATOM      1  F   UNL     1       5.699   1.967  23.253  0.00  0.00    -0.202 F 
ATOM      2  F   UNL     1       6.830  -0.337  24.195  0.00  0.00    -0.202 F 
ATOM     13  C   UNL     1       2.863  -0.303  23.050  0.00  0.00    -0.030 A 
ATOM     18  C   UNL     1       3.626   0.860  22.956  0.00  0.00    +0.046 A 
ATOM     19  C   UNL     1       3.439  -1.478  23.531  0.00  0.00    +0.008 A 
ATOM     22  C   UNL     1       4.966   0.849  23.343  0.00  0.00    +0.159 A 
ATOM     23  C   UNL     1       4.779  -1.490  23.918  0.00  0.00    +0.041 A 
ATOM     24  C   UNL     1       5.543  -0.326  23.824  0.00  0.00    +0.158 A 
ENDBRANCH  11  13
ENDBRANCH   3  11
TORSDOF 3
ENDMDL
MODEL 7
REMARK VINA RESULT:      -1.9     15.438     16.570
REMARK  Name = 51137885
REMARK  4 active torsions:
REMARK  status: ('A' for Active; 'I' for Inactive)
REMARK    1  A    between atoms: N_3  and  C_11
REMARK    2  A    between atoms: N_4  and  C_15
REMARK    3  A    between atoms: C_6  and  C_10
REMARK    4  A    between atoms: C_11  and  C_13
REMARK                            x       y       z     vdW  Elec       q    Type
REMARK                         _______ _______ _______ _____ _____    ______ ____
ROOT
ATOM      3  N   UNL     1       0.626   1.139  23.141  0.00  0.00    -0.297 NA
ATOM      6  C   UNL     1      -1.226   2.513  23.567  0.00  0.00    +0.070 C 
ATOM      7  C   UNL     1      -0.072   2.897  24.510  0.00  0.00    +0.028 C 
ATOM      8  C   UNL     1      -0.833   1.137  23.013  0.00  0.00    +0.096 C 
ATOM      9  C   UNL     1       0.888   1.716  24.460  0.00  0.00    +0.085 C 
ENDROOT
BRANCH   6  10
ATOM      4  N   UNL     1      -3.245   1.369  24.550  0.00  0.00    -0.330 N 
ATOM      5  N   UNL     1      -3.305   3.590  24.491  0.00  0.00    -0.232 NA
ATOM     10  C   UNL     1      -2.596   2.522  24.204  0.00  0.00    +0.115 A 
ATOM     12  C   UNL     1      -4.453   1.716  25.097  0.00  0.00    +0.069 A 
ATOM     14  C   UNL     1      -4.467   3.108  25.049  0.00  0.00    +0.089 A 
ATOM     15  C   UNL     1      -2.749   0.022  24.374  0.00  0.00    +0.150 C 
ATOM     16  C   UNL     1      -5.502   0.957  25.615  0.00  0.00    +0.028 A 
ATOM     17  C   UNL     1      -5.588   3.799  25.542  0.00  0.00    +0.030 A 
ATOM     20  C   UNL     1      -6.610   1.661  26.100  0.00  0.00    +0.002 A 
ATOM     21  C   UNL     1      -6.653   3.057  26.066  0.00  0.00    +0.002 A 
ENDBRANCH   6  10
BRANCH   3  11
ATOM     11  C   UNL     1       1.198  -0.192  22.994  0.00  0.00    +0.119 C 
BRANCH  11  13
ATOM      1  F   UNL     1       5.407  -2.339  24.217  0.00  0.00    -0.202 F 
ATOM      2  F   UNL     1       6.814  -0.125  23.449  0.00  0.00    -0.202 F 
ATOM     13  C   UNL     1       2.699  -0.174  23.116  0.00  0.00    -0.030 A 
ATOM     18  C   UNL     1       3.371  -1.287  23.620  0.00  0.00    +0.046 A 
ATOM     19  C   UNL     1       3.416   0.956  22.724  0.00  0.00    +0.008 A 
ATOM     22  C   UNL     1       4.761  -1.270  23.733  0.00  0.00    +0.159 A 
ATOM     23  C   UNL     1       4.806   0.973  22.836  0.00  0.00    +0.041 A 
ATOM     24  C   UNL     1       5.479  -0.141  23.340  0.00  0.00    +0.158 A 
ENDBRANCH  11  13
ENDBRANCH   3  11
TORSDOF 3
ENDMDL
MODEL 8
REMARK VINA RESULT:      -1.6     14.081     16.767
REMARK  Name = 51137885
REMARK  4 active torsions:
REMARK  status: ('A' for Active; 'I' for Inactive)
REMARK    1  A    between atoms: N_3  and  C_11
REMARK    2  A    between atoms: N_4  and  C_15
REMARK    3  A    between atoms: C_6  and  C_10
REMARK    4  A    between atoms: C_11  and  C_13
REMARK                            x       y       z     vdW  Elec       q    Type
REMARK                         _______ _______ _______ _____ _____    ______ ____
ROOT
ATOM      3  N   UNL     1      -3.631   2.309  25.281  0.00  0.00    -0.297 NA
ATOM      6  C   UNL     1      -1.348   2.647  24.866  0.00  0.00    +0.070 C 
ATOM      7  C   UNL     1      -2.178   3.560  23.948  0.00  0.00    +0.028 C 
ATOM      8  C   UNL     1      -2.349   1.609  25.391  0.00  0.00    +0.096 C 
ATOM      9  C   UNL     1      -3.585   2.977  23.980  0.00  0.00    +0.085 C 
ENDROOT
BRANCH   6  10
ATOM      4  N   UNL     1      -0.210   0.835  23.533  0.00  0.00    -0.330 N 
ATOM      5  N   UNL     1       1.081   2.510  24.219  0.00  0.00    -0.232 NA
ATOM     10  C   UNL     1      -0.138   2.019  24.214  0.00  0.00    +0.115 A 
ATOM     12  C   UNL     1       1.046   0.542  23.068  0.00  0.00    +0.069 A 
ATOM     14  C   UNL     1       1.834   1.603  23.509  0.00  0.00    +0.089 A 
ATOM     15  C   UNL     1      -1.396   0.032  23.336  0.00  0.00    +0.150 C 
ATOM     16  C   UNL     1       1.545  -0.525  22.322  0.00  0.00    +0.028 A 
ATOM     17  C   UNL     1       3.204   1.614  23.196  0.00  0.00    +0.030 A 
ATOM     20  C   UNL     1       2.912  -0.498  22.020  0.00  0.00    +0.002 A 
ATOM     21  C   UNL     1       3.728   0.552  22.448  0.00  0.00    +0.002 A 
ENDBRANCH   6  10
BRANCH   3  11
ATOM     11  C   UNL     1      -4.768   1.407  25.401  0.00  0.00    +0.119 C 
BRANCH  11  13
ATOM      1  F   UNL     1      -4.673  -2.633  22.665  0.00  0.00    -0.202 F 
ATOM      2  F   UNL     1      -3.275  -3.967  24.599  0.00  0.00    -0.202 F 
ATOM     13  C   UNL     1      -4.369  -0.029  25.187  0.00  0.00    -0.030 A 
ATOM     18  C   UNL     1      -4.713  -0.679  24.002  0.00  0.00    +0.046 A 
ATOM     19  C   UNL     1      -3.656  -0.709  26.174  0.00  0.00    +0.008 A 
ATOM     22  C   UNL     1      -4.344  -2.009  23.803  0.00  0.00    +0.159 A 
ATOM     23  C   UNL     1      -3.286  -2.039  25.975  0.00  0.00    +0.041 A 
ATOM     24  C   UNL     1      -3.630  -2.690  24.790  0.00  0.00    +0.158 A 
ENDBRANCH  11  13
ENDBRANCH   3  11
TORSDOF 3
ENDMDL
MODEL 9
REMARK VINA RESULT:      -1.6     15.311     17.524
REMARK  Name = 51137885
REMARK  4 active torsions:
REMARK  status: ('A' for Active; 'I' for Inactive)
REMARK    1  A    between atoms: N_3  and  C_11
REMARK    2  A    between atoms: N_4  and  C_15
REMARK    3  A    between atoms: C_6  and  C_10
REMARK    4  A    between atoms: C_11  and  C_13
REMARK                            x       y       z     vdW  Elec       q    Type
REMARK                         _______ _______ _______ _____ _____    ______ ____
ROOT
ATOM      3  N   UNL     1      -0.155   3.589  25.164  0.00  0.00    -0.297 NA
ATOM      6  C   UNL     1      -0.191   1.244  25.112  0.00  0.00    +0.070 C 
ATOM      7  C   UNL     1       0.527   1.776  23.859  0.00  0.00    +0.028 C 
ATOM      8  C   UNL     1      -0.934   2.462  25.679  0.00  0.00    +0.096 C 
ATOM      9  C   UNL     1       0.131   3.244  23.771  0.00  0.00    +0.085 C 
ENDROOT
BRANCH   6  10
ATOM      4  N   UNL     1      -2.339   0.197  24.310  0.00  0.00    -0.330 N 
ATOM      5  N   UNL     1      -0.823  -1.192  25.157  0.00  0.00    -0.232 NA
ATOM     10  C   UNL     1      -1.098   0.061  24.870  0.00  0.00    +0.115 A 
ATOM     12  C   UNL     1      -2.901  -1.051  24.230  0.00  0.00    +0.069 A 
ATOM     14  C   UNL     1      -1.935  -1.900  24.764  0.00  0.00    +0.089 A 
ATOM     15  C   UNL     1      -2.952   1.433  23.878  0.00  0.00    +0.150 C 
ATOM     16  C   UNL     1      -4.132  -1.497  23.749  0.00  0.00    +0.028 A 
ATOM     17  C   UNL     1      -2.198  -3.280  24.832  0.00  0.00    +0.030 A 
ATOM     20  C   UNL     1      -4.377  -2.872  23.824  0.00  0.00    +0.002 A 
ATOM     21  C   UNL     1      -3.428  -3.750  24.355  0.00  0.00    +0.002 A 
ENDBRANCH   6  10
BRANCH   3  11
ATOM     11  C   UNL     1      -0.861   4.856  25.288  0.00  0.00    +0.119 C 
BRANCH  11  13
ATOM      1  F   UNL     1      -4.978   3.230  27.345  0.00  0.00    -0.202 F 
ATOM      2  F   UNL     1      -6.452   4.153  25.235  0.00  0.00    -0.202 F 
ATOM     13  C   UNL     1      -2.356   4.668  25.273  0.00  0.00    -0.030 A 
ATOM     18  C   UNL     1      -2.987   4.023  26.336  0.00  0.00    +0.046 A 
ATOM     19  C   UNL     1      -3.108   5.139  24.197  0.00  0.00    +0.008 A 
ATOM     22  C   UNL     1      -4.371   3.849  26.323  0.00  0.00    +0.159 A 
ATOM     23  C   UNL     1      -4.491   4.965  24.184  0.00  0.00    +0.041 A 
ATOM     24  C   UNL     1      -5.124   4.320  25.248  0.00  0.00    +0.158 A 
ENDBRANCH  11  13
ENDBRANCH   3  11
TORSDOF 3
ENDMDL
MODEL 10
REMARK VINA RESULT:      -1.2     15.022     17.272
REMARK  Name = 51137885
REMARK  4 active torsions:
REMARK  status: ('A' for Active; 'I' for Inactive)
REMARK    1  A    between atoms: N_3  and  C_11
REMARK    2  A    between atoms: N_4  and  C_15
REMARK    3  A    between atoms: C_6  and  C_10
REMARK    4  A    between atoms: C_11  and  C_13
REMARK                            x       y       z     vdW  Elec       q    Type
REMARK                         _______ _______ _______ _____ _____    ______ ____
ROOT
ATOM      3  N   UNL     1      -0.022   3.117  25.231  0.00  0.00    -0.297 NA
ATOM      6  C   UNL     1      -0.319   0.795  25.088  0.00  0.00    +0.070 C 
ATOM      7  C   UNL     1       0.512   1.283  23.889  0.00  0.00    +0.028 C 
ATOM      8  C   UNL     1      -0.947   2.070  25.669  0.00  0.00    +0.096 C 
ATOM      9  C   UNL     1       0.288   2.788  23.840  0.00  0.00    +0.085 C 
ENDROOT
BRANCH   6  10
ATOM      4  N   UNL     1      -1.066  -1.603  24.880  0.00  0.00    -0.330 N 
ATOM      5  N   UNL     1      -2.568  -0.055  24.343  0.00  0.00    -0.232 NA
ATOM     10  C   UNL     1      -1.341  -0.269  24.763  0.00  0.00    +0.115 A 
ATOM     12  C   UNL     1      -2.190  -2.297  24.512  0.00  0.00    +0.069 A 
ATOM     14  C   UNL     1      -3.113  -1.308  24.181  0.00  0.00    +0.089 A 
ATOM     15  C   UNL     1       0.185  -2.184  25.315  0.00  0.00    +0.150 C 
ATOM     16  C   UNL     1      -2.470  -3.661  24.443  0.00  0.00    +0.028 A 
ATOM     17  C   UNL     1      -4.397  -1.686  23.753  0.00  0.00    +0.030 A 
ATOM     20  C   UNL     1      -3.753  -4.020  24.014  0.00  0.00    +0.002 A 
ATOM     21  C   UNL     1      -4.701  -3.051  23.676  0.00  0.00    +0.002 A 
ENDBRANCH   6  10
BRANCH   3  11
ATOM     11  C   UNL     1      -0.588   4.452  25.372  0.00  0.00    +0.119 C 
BRANCH  11  13
ATOM      1  F   UNL     1      -4.874   3.352  23.315  0.00  0.00    -0.202 F 
ATOM      2  F   UNL     1      -6.221   4.340  25.480  0.00  0.00    -0.202 F 
ATOM     13  C   UNL     1      -2.093   4.422  25.401  0.00  0.00    -0.030 A 
ATOM     18  C   UNL     1      -2.801   3.891  24.323  0.00  0.00    +0.046 A 
ATOM     19  C   UNL     1      -2.779   4.926  26.506  0.00  0.00    +0.008 A 
ATOM     22  C   UNL     1      -4.195   3.863  24.350  0.00  0.00    +0.159 A 
ATOM     23  C   UNL     1      -4.173   4.898  26.533  0.00  0.00    +0.041 A 
ATOM     24  C   UNL     1      -4.882   4.366  25.455  0.00  0.00    +0.158 A 
ENDBRANCH  11  13
ENDBRANCH   3  11
TORSDOF 3
ENDMDL
