MODEL 1
REMARK VINA RESULT:      -3.3      0.000      0.000
REMARK  Name = 75536762
REMARK  7 active torsions:
REMARK  status: ('A' for Active; 'I' for Inactive)
REMARK    1  A    between atoms: O_2  and  C_10
REMARK    2  A    between atoms: N_5  and  C_9
REMARK    3  A    between atoms: N_5  and  C_14
REMARK    4  A    between atoms: N_6  and  C_13
REMARK    5  A    between atoms: C_11  and  C_13
REMARK    6  A    between atoms: C_14  and  C_18
REMARK    7  A    between atoms: C_23  and  C_26
REMARK                            x       y       z     vdW  Elec       q    Type
REMARK                         _______ _______ _______ _____ _____    ______ ____
ROOT
ATOM      1  O   UNL     1      -4.159   3.830  26.304  0.00  0.00    -0.371 OA
ATOM      9  C   UNL     1      -2.546   4.330  24.632  0.00  0.00    +0.111 C 
ATOM     10  C   UNL     1      -3.314   3.087  24.223  0.00  0.00    +0.164 C 
ATOM     11  C   UNL     1      -4.574   3.230  25.065  0.00  0.00    +0.165 C 
ATOM     12  C   UNL     1      -2.848   4.393  26.121  0.00  0.00    +0.181 C 
ENDROOT
BRANCH  10   2
ATOM      2  O   UNL     1      -3.606   3.055  22.839  0.00  0.00    -0.388 OA
ATOM     29  H   UNL     1      -4.536   3.307  22.718  0.00  0.00    +0.210 HD
ENDBRANCH  10   2
BRANCH   9   5
ATOM      5  N   UNL     1      -1.123   4.257  24.346  0.00  0.00    -0.305 NA
ATOM     27  H   UNL     1      -0.696   5.161  24.550  0.00  0.00    +0.123 HD
BRANCH   5  14
ATOM     14  C   UNL     1      -0.475   3.235  25.158  0.00  0.00    +0.116 C 
BRANCH  14  18
ATOM     18  C   UNL     1       0.011   2.080  24.323  0.00  0.00    -0.032 A 
ATOM     21  C   UNL     1       1.371   1.948  24.038  0.00  0.00    +0.023 A 
ATOM     22  C   UNL     1      -0.897   1.142  23.834  0.00  0.00    +0.005 A 
ATOM     23  C   UNL     1       1.820   0.877  23.265  0.00  0.00    +0.052 A 
ATOM     24  C   UNL     1      -0.448   0.072  23.061  0.00  0.00    +0.002 A 
ATOM     25  C   UNL     1       0.912  -0.061  22.776  0.00  0.00    +0.019 A 
BRANCH  23  26
ATOM      8  N   UNL     1       4.343   0.629  22.737  0.00  0.00    -0.191 NA
ATOM     26  C   UNL     1       3.212   0.741  22.973  0.00  0.00    +0.099 C 
ENDBRANCH  23  26
ENDBRANCH  14  18
ENDBRANCH   5  14
ENDBRANCH   9   5
BRANCH  11  13
ATOM     13  C   UNL     1      -5.265   1.906  25.343  0.00  0.00    +0.140 C 
BRANCH  13   6
ATOM      3  O   UNL     1      -1.070  -2.951  25.241  0.00  0.00    -0.377 OA
ATOM      4  O   UNL     1      -5.187  -0.533  23.941  0.00  0.00    -0.253 OA
ATOM      6  N   UNL     1      -4.307   0.843  25.552  0.00  0.00    -0.297 N 
ATOM      7  N   UNL     1      -3.344  -1.276  25.140  0.00  0.00    -0.281 N 
ATOM     15  C   UNL     1      -4.337  -0.335  24.816  0.00  0.00    +0.302 C 
ATOM     16  C   UNL     1      -2.396  -1.185  26.259  0.00  0.00    +0.137 C 
ATOM     17  C   UNL     1      -3.305  -2.549  24.417  0.00  0.00    +0.137 C 
ATOM     19  C   UNL     1      -1.009  -1.652  25.833  0.00  0.00    +0.179 C 
ATOM     20  C   UNL     1      -1.877  -2.931  24.063  0.00  0.00    +0.179 C 
ATOM     28  H   UNL     1      -3.625   1.000  26.280  0.00  0.00    +0.150 HD
ENDBRANCH  13   6
ENDBRANCH  11  13
TORSDOF 7
ENDMDL
MODEL 2
REMARK VINA RESULT:      -2.7      2.287      6.598
REMARK  Name = 75536762
REMARK  7 active torsions:
REMARK  status: ('A' for Active; 'I' for Inactive)
REMARK    1  A    between atoms: O_2  and  C_10
REMARK    2  A    between atoms: N_5  and  C_9
REMARK    3  A    between atoms: N_5  and  C_14
REMARK    4  A    between atoms: N_6  and  C_13
REMARK    5  A    between atoms: C_11  and  C_13
REMARK    6  A    between atoms: C_14  and  C_18
REMARK    7  A    between atoms: C_23  and  C_26
REMARK                            x       y       z     vdW  Elec       q    Type
REMARK                         _______ _______ _______ _____ _____    ______ ____
ROOT
ATOM      1  O   UNL     1      -1.447  -1.093  26.554  0.00  0.00    -0.371 OA
ATOM      9  C   UNL     1      -2.826  -2.622  25.370  0.00  0.00    +0.111 C 
ATOM     10  C   UNL     1      -1.786  -2.056  24.421  0.00  0.00    +0.164 C 
ATOM     11  C   UNL     1      -0.729  -1.566  25.401  0.00  0.00    +0.165 C 
ATOM     12  C   UNL     1      -2.790  -1.603  26.497  0.00  0.00    +0.181 C 
ENDROOT
BRANCH  10   2
ATOM      2  O   UNL     1      -1.270  -3.029  23.532  0.00  0.00    -0.388 OA
ATOM     29  H   UNL     1      -0.697  -3.630  24.038  0.00  0.00    +0.210 HD
ENDBRANCH  10   2
BRANCH   9   5
ATOM      5  N   UNL     1      -4.145  -2.762  24.775  0.00  0.00    -0.305 NA
ATOM     27  H   UNL     1      -4.842  -2.392  25.421  0.00  0.00    +0.123 HD
BRANCH   5  14
ATOM     14  C   UNL     1      -4.233  -2.032  23.516  0.00  0.00    +0.116 C 
BRANCH  14  18
ATOM     18  C   UNL     1      -4.146  -0.543  23.724  0.00  0.00    -0.032 A 
ATOM     21  C   UNL     1      -4.956   0.077  24.677  0.00  0.00    +0.023 A 
ATOM     22  C   UNL     1      -3.257   0.216  22.965  0.00  0.00    +0.005 A 
ATOM     23  C   UNL     1      -4.873   1.457  24.870  0.00  0.00    +0.052 A 
ATOM     24  C   UNL     1      -3.175   1.595  23.157  0.00  0.00    +0.002 A 
ATOM     25  C   UNL     1      -3.984   2.215  24.110  0.00  0.00    +0.019 A 
BRANCH  23  26
ATOM      8  N   UNL     1      -6.372   2.610  26.637  0.00  0.00    -0.191 NA
ATOM     26  C   UNL     1      -5.700   2.093  25.845  0.00  0.00    +0.099 C 
ENDBRANCH  23  26
ENDBRANCH  14  18
ENDBRANCH   5  14
ENDBRANCH   9   5
BRANCH  11  13
ATOM     13  C   UNL     1       0.137  -0.451  24.843  0.00  0.00    +0.140 C 
BRANCH  13   6
ATOM      3  O   UNL     1      -1.936   5.586  25.523  0.00  0.00    -0.377 OA
ATOM      4  O   UNL     1       1.059   2.017  23.853  0.00  0.00    -0.253 OA
ATOM      6  N   UNL     1      -0.367   0.851  25.220  0.00  0.00    -0.297 N 
ATOM      7  N   UNL     1      -0.446   3.212  25.154  0.00  0.00    -0.281 N 
ATOM     15  C   UNL     1       0.143   2.026  24.684  0.00  0.00    +0.302 C 
ATOM     16  C   UNL     1      -1.427   3.320  26.243  0.00  0.00    +0.137 C 
ATOM     17  C   UNL     1       0.036   4.499  24.647  0.00  0.00    +0.137 C 
ATOM     19  C   UNL     1      -2.512   4.333  25.898  0.00  0.00    +0.179 C 
ATOM     20  C   UNL     1      -1.123   5.439  24.358  0.00  0.00    +0.179 C 
ATOM     28  H   UNL     1      -1.103   0.856  25.913  0.00  0.00    +0.150 HD
ENDBRANCH  13   6
ENDBRANCH  11  13
TORSDOF 7
ENDMDL
MODEL 3
REMARK VINA RESULT:      -2.6      2.534      6.530
REMARK  Name = 75536762
REMARK  7 active torsions:
REMARK  status: ('A' for Active; 'I' for Inactive)
REMARK    1  A    between atoms: O_2  and  C_10
REMARK    2  A    between atoms: N_5  and  C_9
REMARK    3  A    between atoms: N_5  and  C_14
REMARK    4  A    between atoms: N_6  and  C_13
REMARK    5  A    between atoms: C_11  and  C_13
REMARK    6  A    between atoms: C_14  and  C_18
REMARK    7  A    between atoms: C_23  and  C_26
REMARK                            x       y       z     vdW  Elec       q    Type
REMARK                         _______ _______ _______ _____ _____    ______ ____
ROOT
ATOM      1  O   UNL     1      -0.534   0.024  25.465  0.00  0.00    -0.371 OA
ATOM      9  C   UNL     1      -2.603  -1.101  25.773  0.00  0.00    +0.111 C 
ATOM     10  C   UNL     1      -2.115  -1.341  24.356  0.00  0.00    +0.164 C 
ATOM     11  C   UNL     1      -0.630  -1.039  24.502  0.00  0.00    +0.165 C 
ATOM     12  C   UNL     1      -1.784   0.116  26.171  0.00  0.00    +0.181 C 
ENDROOT
BRANCH  10   2
ATOM      2  O   UNL     1      -2.342  -2.667  23.917  0.00  0.00    -0.388 OA
ATOM     29  H   UNL     1      -3.255  -2.911  24.143  0.00  0.00    +0.210 HD
ENDBRANCH  10   2
BRANCH   9   5
ATOM      5  N   UNL     1      -4.035  -0.874  25.866  0.00  0.00    -0.305 NA
ATOM     27  H   UNL     1      -4.234  -0.346  26.716  0.00  0.00    +0.123 HD
BRANCH   5  14
ATOM     14  C   UNL     1      -4.524  -0.121  24.717  0.00  0.00    +0.116 C 
BRANCH  14  18
ATOM     18  C   UNL     1      -4.598   1.356  25.006  0.00  0.00    -0.032 A 
ATOM     21  C   UNL     1      -3.445   2.139  24.940  0.00  0.00    +0.023 A 
ATOM     22  C   UNL     1      -5.820   1.940  25.338  0.00  0.00    +0.005 A 
ATOM     23  C   UNL     1      -3.516   3.507  25.206  0.00  0.00    +0.052 A 
ATOM     24  C   UNL     1      -5.890   3.307  25.605  0.00  0.00    +0.002 A 
ATOM     25  C   UNL     1      -4.737   4.091  25.539  0.00  0.00    +0.019 A 
BRANCH  23  26
ATOM      8  N   UNL     1      -1.379   4.962  25.083  0.00  0.00    -0.191 NA
ATOM     26  C   UNL     1      -2.336   4.310  25.139  0.00  0.00    +0.099 C 
ENDBRANCH  23  26
ENDBRANCH  14  18
ENDBRANCH   5  14
ENDBRANCH   9   5
BRANCH  11  13
ATOM     13  C   UNL     1       0.028  -0.614  23.201  0.00  0.00    +0.140 C 
BRANCH  13   6
ATOM      3  O   UNL     1       6.405  -0.435  23.911  0.00  0.00    -0.377 OA
ATOM      4  O   UNL     1       1.933   1.439  22.922  0.00  0.00    -0.253 OA
ATOM      6  N   UNL     1       1.463  -0.782  23.254  0.00  0.00    -0.297 N 
ATOM      7  N   UNL     1       3.705  -0.037  23.174  0.00  0.00    -0.281 N 
ATOM     15  C   UNL     1       2.339   0.286  23.106  0.00  0.00    +0.302 C 
ATOM     16  C   UNL     1       4.273  -1.391  23.239  0.00  0.00    +0.137 C 
ATOM     17  C   UNL     1       4.699   1.027  23.022  0.00  0.00    +0.137 C 
ATOM     19  C   UNL     1       5.440  -1.444  24.218  0.00  0.00    +0.179 C 
ATOM     20  C   UNL     1       5.828   0.867  24.027  0.00  0.00    +0.179 C 
ATOM     28  H   UNL     1       1.793  -1.728  23.386  0.00  0.00    +0.150 HD
ENDBRANCH  13   6
ENDBRANCH  11  13
TORSDOF 7
ENDMDL
MODEL 4
REMARK VINA RESULT:      -1.8      1.689      2.621
REMARK  Name = 75536762
REMARK  7 active torsions:
REMARK  status: ('A' for Active; 'I' for Inactive)
REMARK    1  A    between atoms: O_2  and  C_10
REMARK    2  A    between atoms: N_5  and  C_9
REMARK    3  A    between atoms: N_5  and  C_14
REMARK    4  A    between atoms: N_6  and  C_13
REMARK    5  A    between atoms: C_11  and  C_13
REMARK    6  A    between atoms: C_14  and  C_18
REMARK    7  A    between atoms: C_23  and  C_26
REMARK                            x       y       z     vdW  Elec       q    Type
REMARK                         _______ _______ _______ _____ _____    ______ ____
ROOT
ATOM      1  O   UNL     1      -6.643   1.912  26.046  0.00  0.00    -0.371 OA
ATOM      9  C   UNL     1      -5.205   3.772  25.703  0.00  0.00    +0.111 C 
ATOM     10  C   UNL     1      -4.821   2.665  24.739  0.00  0.00    +0.164 C 
ATOM     11  C   UNL     1      -6.099   1.838  24.716  0.00  0.00    +0.165 C 
ATOM     12  C   UNL     1      -6.010   3.003  26.738  0.00  0.00    +0.181 C 
ENDROOT
BRANCH  10   2
ATOM      2  O   UNL     1      -4.486   3.153  23.453  0.00  0.00    -0.388 OA
ATOM     29  H   UNL     1      -4.320   2.392  22.872  0.00  0.00    +0.210 HD
ENDBRANCH  10   2
BRANCH   9   5
ATOM      5  N   UNL     1      -4.065   4.468  26.277  0.00  0.00    -0.305 NA
ATOM     27  H   UNL     1      -4.362   4.947  27.127  0.00  0.00    +0.123 HD
BRANCH   5  14
ATOM     14  C   UNL     1      -2.993   3.538  26.607  0.00  0.00    +0.116 C 
BRANCH  14  18
ATOM     18  C   UNL     1      -1.852   3.627  25.628  0.00  0.00    -0.032 A 
ATOM     21  C   UNL     1      -1.266   2.463  25.129  0.00  0.00    +0.023 A 
ATOM     22  C   UNL     1      -1.381   4.874  25.220  0.00  0.00    +0.005 A 
ATOM     23  C   UNL     1      -0.211   2.547  24.221  0.00  0.00    +0.052 A 
ATOM     24  C   UNL     1      -0.324   4.959  24.312  0.00  0.00    +0.002 A 
ATOM     25  C   UNL     1       0.261   3.794  23.813  0.00  0.00    +0.019 A 
BRANCH  23  26
ATOM      8  N   UNL     1       0.876   0.388  23.294  0.00  0.00    -0.191 NA
ATOM     26  C   UNL     1       0.389   1.356  23.709  0.00  0.00    +0.099 C 
ENDBRANCH  23  26
ENDBRANCH  14  18
ENDBRANCH   5  14
ENDBRANCH   9   5
BRANCH  11  13
ATOM     13  C   UNL     1      -5.869   0.386  24.337  0.00  0.00    +0.140 C 
BRANCH  13   6
ATOM      3  O   UNL     1      -0.106  -2.082  25.714  0.00  0.00    -0.377 OA
ATOM      4  O   UNL     1      -4.509  -1.917  23.461  0.00  0.00    -0.253 OA
ATOM      6  N   UNL     1      -4.618  -0.108  24.868  0.00  0.00    -0.297 N 
ATOM      7  N   UNL     1      -2.801  -1.614  25.002  0.00  0.00    -0.281 N 
ATOM     15  C   UNL     1      -4.009  -1.257  24.379  0.00  0.00    +0.302 C 
ATOM     16  C   UNL     1      -2.218  -0.977  26.191  0.00  0.00    +0.137 C 
ATOM     17  C   UNL     1      -2.094  -2.815  24.554  0.00  0.00    +0.137 C 
ATOM     19  C   UNL     1      -0.708  -0.828  26.042  0.00  0.00    +0.179 C 
ATOM     20  C   UNL     1      -0.598  -2.566  24.463  0.00  0.00    +0.179 C 
ATOM     28  H   UNL     1      -4.221   0.422  25.631  0.00  0.00    +0.150 HD
ENDBRANCH  13   6
ENDBRANCH  11  13
TORSDOF 7
ENDMDL
MODEL 5
REMARK VINA RESULT:      -1.7      2.715      6.213
REMARK  Name = 75536762
REMARK  7 active torsions:
REMARK  status: ('A' for Active; 'I' for Inactive)
REMARK    1  A    between atoms: O_2  and  C_10
REMARK    2  A    between atoms: N_5  and  C_9
REMARK    3  A    between atoms: N_5  and  C_14
REMARK    4  A    between atoms: N_6  and  C_13
REMARK    5  A    between atoms: C_11  and  C_13
REMARK    6  A    between atoms: C_14  and  C_18
REMARK    7  A    between atoms: C_23  and  C_26
REMARK                            x       y       z     vdW  Elec       q    Type
REMARK                         _______ _______ _______ _____ _____    ______ ____
ROOT
ATOM      1  O   UNL     1      -0.045   3.340  23.696  0.00  0.00    -0.371 OA
ATOM      9  C   UNL     1      -1.045   3.501  25.845  0.00  0.00    +0.111 C 
ATOM     10  C   UNL     1      -0.920   2.037  25.465  0.00  0.00    +0.164 C 
ATOM     11  C   UNL     1       0.163   2.102  24.397  0.00  0.00    +0.165 C 
ATOM     12  C   UNL     1      -0.906   4.175  24.490  0.00  0.00    +0.181 C 
ENDROOT
BRANCH  10   2
ATOM      2  O   UNL     1      -0.535   1.221  26.555  0.00  0.00    -0.388 OA
ATOM     29  H   UNL     1      -0.006   1.759  27.167  0.00  0.00    +0.210 HD
ENDBRANCH  10   2
BRANCH   9   5
ATOM      5  N   UNL     1      -2.294   3.826  26.513  0.00  0.00    -0.305 NA
ATOM     27  H   UNL     1      -2.146   4.631  27.122  0.00  0.00    +0.123 HD
BRANCH   5  14
ATOM     14  C   UNL     1      -3.338   4.148  25.548  0.00  0.00    +0.116 C 
BRANCH  14  18
ATOM     18  C   UNL     1      -4.293   3.001  25.351  0.00  0.00    -0.032 A 
ATOM     21  C   UNL     1      -3.818   1.765  24.910  0.00  0.00    +0.023 A 
ATOM     22  C   UNL     1      -5.652   3.174  25.609  0.00  0.00    +0.005 A 
ATOM     23  C   UNL     1      -4.704   0.702  24.730  0.00  0.00    +0.052 A 
ATOM     24  C   UNL     1      -6.538   2.112  25.427  0.00  0.00    +0.002 A 
ATOM     25  C   UNL     1      -6.063   0.875  24.988  0.00  0.00    +0.019 A 
BRANCH  23  26
ATOM      8  N   UNL     1      -3.826  -1.593  23.916  0.00  0.00    -0.191 NA
ATOM     26  C   UNL     1      -4.219  -0.565  24.280  0.00  0.00    +0.099 C 
ENDBRANCH  23  26
ENDBRANCH  14  18
ENDBRANCH   5  14
ENDBRANCH   9   5
BRANCH  11  13
ATOM     13  C   UNL     1       0.111   0.943  23.417  0.00  0.00    +0.140 C 
BRANCH  13   6
ATOM      3  O   UNL     1       6.061  -1.439  23.759  0.00  0.00    -0.377 OA
ATOM      4  O   UNL     1       2.657   2.075  23.020  0.00  0.00    -0.253 OA
ATOM      6  N   UNL     1       1.362   0.218  23.388  0.00  0.00    -0.297 N 
ATOM      7  N   UNL     1       3.707   0.012  23.176  0.00  0.00    -0.281 N 
ATOM     15  C   UNL     1       2.581   0.853  23.186  0.00  0.00    +0.302 C 
ATOM     16  C   UNL     1       3.692  -1.457  23.214  0.00  0.00    +0.137 C 
ATOM     17  C   UNL     1       5.033   0.596  22.963  0.00  0.00    +0.137 C 
ATOM     19  C   UNL     1       4.794  -1.988  24.125  0.00  0.00    +0.179 C 
ATOM     20  C   UNL     1       6.057  -0.018  23.903  0.00  0.00    +0.179 C 
ATOM     28  H   UNL     1       1.295  -0.783  23.505  0.00  0.00    +0.150 HD
ENDBRANCH  13   6
ENDBRANCH  11  13
TORSDOF 7
ENDMDL
MODEL 6
REMARK VINA RESULT:      -1.7      2.079      5.298
REMARK  Name = 75536762
REMARK  7 active torsions:
REMARK  status: ('A' for Active; 'I' for Inactive)
REMARK    1  A    between atoms: O_2  and  C_10
REMARK    2  A    between atoms: N_5  and  C_9
REMARK    3  A    between atoms: N_5  and  C_14
REMARK    4  A    between atoms: N_6  and  C_13
REMARK    5  A    between atoms: C_11  and  C_13
REMARK    6  A    between atoms: C_14  and  C_18
REMARK    7  A    between atoms: C_23  and  C_26
REMARK                            x       y       z     vdW  Elec       q    Type
REMARK                         _______ _______ _______ _____ _____    ______ ____
ROOT
ATOM      1  O   UNL     1       0.190   3.494  23.489  0.00  0.00    -0.371 OA
ATOM      9  C   UNL     1      -0.587   3.948  25.688  0.00  0.00    +0.111 C 
ATOM     10  C   UNL     1      -0.141   2.499  25.609  0.00  0.00    +0.164 C 
ATOM     11  C   UNL     1       0.773   2.539  24.392  0.00  0.00    +0.165 C 
ATOM     12  C   UNL     1      -0.764   4.288  24.217  0.00  0.00    +0.181 C 
ENDROOT
BRANCH  10   2
ATOM      2  O   UNL     1       0.548   2.076  26.771  0.00  0.00    -0.388 OA
ATOM     29  H   UNL     1       1.111   2.807  27.076  0.00  0.00    +0.210 HD
ENDBRANCH  10   2
BRANCH   9   5
ATOM      5  N   UNL     1      -1.801   4.143  26.464  0.00  0.00    -0.305 NA
ATOM     27  H   UNL     1      -1.597   4.762  27.249  0.00  0.00    +0.123 HD
BRANCH   5  14
ATOM     14  C   UNL     1      -2.853   4.740  25.651  0.00  0.00    +0.116 C 
BRANCH  14  18
ATOM     18  C   UNL     1      -3.892   3.727  25.247  0.00  0.00    -0.032 A 
ATOM     21  C   UNL     1      -4.728   3.162  26.211  0.00  0.00    +0.023 A 
ATOM     22  C   UNL     1      -4.018   3.354  23.910  0.00  0.00    +0.005 A 
ATOM     23  C   UNL     1      -5.691   2.225  25.835  0.00  0.00    +0.052 A 
ATOM     24  C   UNL     1      -4.980   2.417  23.534  0.00  0.00    +0.002 A 
ATOM     25  C   UNL     1      -5.817   1.852  24.498  0.00  0.00    +0.019 A 
BRANCH  23  26
ATOM      8  N   UNL     1      -7.245   1.177  27.621  0.00  0.00    -0.191 NA
ATOM     26  C   UNL     1      -6.549   1.647  26.821  0.00  0.00    +0.099 C 
ENDBRANCH  23  26
ENDBRANCH  14  18
ENDBRANCH   5  14
ENDBRANCH   9   5
BRANCH  11  13
ATOM     13  C   UNL     1       0.910   1.195  23.699  0.00  0.00    +0.140 C 
BRANCH  13   6
ATOM      3  O   UNL     1      -3.850  -2.945  24.884  0.00  0.00    -0.377 OA
ATOM      4  O   UNL     1      -1.816   1.152  22.997  0.00  0.00    -0.253 OA
ATOM      6  N   UNL     1      -0.071   0.249  24.181  0.00  0.00    -0.297 N 
ATOM      7  N   UNL     1      -2.235  -0.689  24.345  0.00  0.00    -0.281 N 
ATOM     15  C   UNL     1      -1.402   0.295  23.785  0.00  0.00    +0.302 C 
ATOM     16  C   UNL     1      -1.861  -1.644  25.398  0.00  0.00    +0.137 C 
ATOM     17  C   UNL     1      -3.655  -0.710  23.988  0.00  0.00    +0.137 C 
ATOM     19  C   UNL     1      -2.441  -3.024  25.109  0.00  0.00    +0.179 C 
ATOM     20  C   UNL     1      -4.134  -2.132  23.745  0.00  0.00    +0.179 C 
ATOM     28  H   UNL     1       0.266  -0.440  24.840  0.00  0.00    +0.150 HD
ENDBRANCH  13   6
ENDBRANCH  11  13
TORSDOF 7
ENDMDL
MODEL 7
REMARK VINA RESULT:      -1.5      1.924      5.263
REMARK  Name = 75536762
REMARK  7 active torsions:
REMARK  status: ('A' for Active; 'I' for Inactive)
REMARK    1  A    between atoms: O_2  and  C_10
REMARK    2  A    between atoms: N_5  and  C_9
REMARK    3  A    between atoms: N_5  and  C_14
REMARK    4  A    between atoms: N_6  and  C_13
REMARK    5  A    between atoms: C_11  and  C_13
REMARK    6  A    between atoms: C_14  and  C_18
REMARK    7  A    between atoms: C_23  and  C_26
REMARK                            x       y       z     vdW  Elec       q    Type
REMARK                         _______ _______ _______ _____ _____    ______ ____
ROOT
ATOM      1  O   UNL     1      -2.410  -2.878  23.461  0.00  0.00    -0.371 OA
ATOM      9  C   UNL     1      -1.291  -2.293  25.474  0.00  0.00    +0.111 C 
ATOM     10  C   UNL     1      -2.685  -1.695  25.491  0.00  0.00    +0.164 C 
ATOM     11  C   UNL     1      -3.393  -2.569  24.465  0.00  0.00    +0.165 C 
ATOM     12  C   UNL     1      -1.107  -2.583  23.993  0.00  0.00    +0.181 C 
ENDROOT
BRANCH  10   2
ATOM      2  O   UNL     1      -3.299  -1.776  26.764  0.00  0.00    -0.388 OA
ATOM     29  H   UNL     1      -4.254  -1.638  26.652  0.00  0.00    +0.210 HD
ENDBRANCH  10   2
BRANCH   9   5
ATOM      5  N   UNL     1      -0.270  -1.409  26.009  0.00  0.00    -0.305 NA
ATOM     27  H   UNL     1       0.433  -1.238  25.289  0.00  0.00    +0.123 HD
BRANCH   5  14
ATOM     14  C   UNL     1      -0.843  -0.133  26.422  0.00  0.00    +0.116 C 
BRANCH  14  18
ATOM     18  C   UNL     1      -0.463   0.982  25.484  0.00  0.00    -0.032 A 
ATOM     21  C   UNL     1      -0.946   2.273  25.703  0.00  0.00    +0.023 A 
ATOM     22  C   UNL     1       0.371   0.724  24.397  0.00  0.00    +0.005 A 
ATOM     23  C   UNL     1      -0.592   3.306  24.834  0.00  0.00    +0.052 A 
ATOM     24  C   UNL     1       0.724   1.757  23.528  0.00  0.00    +0.002 A 
ATOM     25  C   UNL     1       0.242   3.048  23.747  0.00  0.00    +0.019 A 
BRANCH  23  26
ATOM      8  N   UNL     1      -1.484   5.702  25.239  0.00  0.00    -0.191 NA
ATOM     26  C   UNL     1      -1.084   4.628  25.058  0.00  0.00    +0.099 C 
ENDBRANCH  23  26
ENDBRANCH  14  18
ENDBRANCH   5  14
ENDBRANCH   9   5
BRANCH  11  13
ATOM     13  C   UNL     1      -4.589  -1.891  23.820  0.00  0.00    +0.140 C 
BRANCH  13   6
ATOM      3  O   UNL     1      -5.484   4.254  25.443  0.00  0.00    -0.377 OA
ATOM      4  O   UNL     1      -3.228   0.485  23.165  0.00  0.00    -0.253 OA
ATOM      6  N   UNL     1      -4.836  -0.590  24.400  0.00  0.00    -0.297 N 
ATOM      7  N   UNL     1      -4.470   1.729  24.680  0.00  0.00    -0.281 N 
ATOM     15  C   UNL     1      -4.119   0.538  24.021  0.00  0.00    +0.302 C 
ATOM     16  C   UNL     1      -5.403   1.852  25.808  0.00  0.00    +0.137 C 
ATOM     17  C   UNL     1      -3.760   2.965  24.347  0.00  0.00    +0.137 C 
ATOM     19  C   UNL     1      -6.282   3.088  25.653  0.00  0.00    +0.179 C 
ATOM     20  C   UNL     1      -4.723   4.136  24.240  0.00  0.00    +0.179 C 
ATOM     28  H   UNL     1      -5.551  -0.552  25.112  0.00  0.00    +0.150 HD
ENDBRANCH  13   6
ENDBRANCH  11  13
TORSDOF 7
ENDMDL
MODEL 8
REMARK VINA RESULT:      -1.4      2.037      4.813
REMARK  Name = 75536762
REMARK  7 active torsions:
REMARK  status: ('A' for Active; 'I' for Inactive)
REMARK    1  A    between atoms: O_2  and  C_10
REMARK    2  A    between atoms: N_5  and  C_9
REMARK    3  A    between atoms: N_5  and  C_14
REMARK    4  A    between atoms: N_6  and  C_13
REMARK    5  A    between atoms: C_11  and  C_13
REMARK    6  A    between atoms: C_14  and  C_18
REMARK    7  A    between atoms: C_23  and  C_26
REMARK                            x       y       z     vdW  Elec       q    Type
REMARK                         _______ _______ _______ _____ _____    ______ ____
ROOT
ATOM      1  O   UNL     1      -1.521   3.135  23.506  0.00  0.00    -0.371 OA
ATOM      9  C   UNL     1      -3.814   3.081  24.126  0.00  0.00    +0.111 C 
ATOM     10  C   UNL     1      -2.963   3.152  25.381  0.00  0.00    +0.164 C 
ATOM     11  C   UNL     1      -1.658   3.702  24.821  0.00  0.00    +0.165 C 
ATOM     12  C   UNL     1      -2.796   2.609  23.100  0.00  0.00    +0.181 C 
ENDROOT
BRANCH  10   2
ATOM      2  O   UNL     1      -3.514   4.005  26.367  0.00  0.00    -0.388 OA
ATOM     29  H   UNL     1      -2.851   4.130  27.066  0.00  0.00    +0.210 HD
ENDBRANCH  10   2
BRANCH   9   5
ATOM      5  N   UNL     1      -4.954   2.188  24.245  0.00  0.00    -0.305 NA
ATOM     27  H   UNL     1      -5.038   1.640  23.388  0.00  0.00    +0.123 HD
BRANCH   5  14
ATOM     14  C   UNL     1      -4.796   1.279  25.373  0.00  0.00    +0.116 C 
BRANCH  14  18
ATOM     18  C   UNL     1      -4.219  -0.046  24.949  0.00  0.00    -0.032 A 
ATOM     21  C   UNL     1      -2.938  -0.414  25.363  0.00  0.00    +0.023 A 
ATOM     22  C   UNL     1      -4.965  -0.904  24.143  0.00  0.00    +0.005 A 
ATOM     23  C   UNL     1      -2.406  -1.643  24.971  0.00  0.00    +0.052 A 
ATOM     24  C   UNL     1      -4.432  -2.132  23.750  0.00  0.00    +0.002 A 
ATOM     25  C   UNL     1      -3.152  -2.501  24.165  0.00  0.00    +0.019 A 
BRANCH  23  26
ATOM      8  N   UNL     1      -0.031  -2.331  25.739  0.00  0.00    -0.191 NA
ATOM     26  C   UNL     1      -1.095  -2.022  25.395  0.00  0.00    +0.099 C 
ENDBRANCH  23  26
ENDBRANCH  14  18
ENDBRANCH   5  14
ENDBRANCH   9   5
BRANCH  11  13
ATOM     13  C   UNL     1      -0.445   3.346  25.662  0.00  0.00    +0.140 C 
BRANCH  13   6
ATOM      3  O   UNL     1       3.115  -0.156  21.630  0.00  0.00    -0.377 OA
ATOM      4  O   UNL     1      -0.874   0.884  24.367  0.00  0.00    -0.253 OA
ATOM      6  N   UNL     1       0.537   2.615  24.892  0.00  0.00    -0.297 N 
ATOM      7  N   UNL     1       1.305   0.810  23.574  0.00  0.00    -0.281 N 
ATOM     15  C   UNL     1       0.245   1.402  24.281  0.00  0.00    +0.302 C 
ATOM     16  C   UNL     1       2.698   1.278  23.548  0.00  0.00    +0.137 C 
ATOM     17  C   UNL     1       1.088  -0.475  22.905  0.00  0.00    +0.137 C 
ATOM     19  C   UNL     1       3.282   1.166  22.145  0.00  0.00    +0.179 C 
ATOM     20  C   UNL     1       1.729  -0.487  21.527  0.00  0.00    +0.179 C 
ATOM     28  H   UNL     1       1.456   3.031  24.839  0.00  0.00    +0.150 HD
ENDBRANCH  13   6
ENDBRANCH  11  13
TORSDOF 7
ENDMDL
MODEL 9
REMARK VINA RESULT:      -1.4      2.170      5.156
REMARK  Name = 75536762
REMARK  7 active torsions:
REMARK  status: ('A' for Active; 'I' for Inactive)
REMARK    1  A    between atoms: O_2  and  C_10
REMARK    2  A    between atoms: N_5  and  C_9
REMARK    3  A    between atoms: N_5  and  C_14
REMARK    4  A    between atoms: N_6  and  C_13
REMARK    5  A    between atoms: C_11  and  C_13
REMARK    6  A    between atoms: C_14  and  C_18
REMARK    7  A    between atoms: C_23  and  C_26
REMARK                            x       y       z     vdW  Elec       q    Type
REMARK                         _______ _______ _______ _____ _____    ______ ____
ROOT
ATOM      1  O   UNL     1      -0.104   4.115  24.732  0.00  0.00    -0.371 OA
ATOM      9  C   UNL     1      -2.380   4.794  24.764  0.00  0.00    +0.111 C 
ATOM     10  C   UNL     1      -2.183   3.673  25.768  0.00  0.00    +0.164 C 
ATOM     11  C   UNL     1      -0.679   3.744  25.996  0.00  0.00    +0.165 C 
ATOM     12  C   UNL     1      -1.148   4.633  23.889  0.00  0.00    +0.181 C 
ENDROOT
BRANCH  10   2
ATOM      2  O   UNL     1      -2.907   3.880  26.966  0.00  0.00    -0.388 OA
ATOM     29  H   UNL     1      -2.534   3.301  27.652  0.00  0.00    +0.210 HD
ENDBRANCH  10   2
BRANCH   9   5
ATOM      5  N   UNL     1      -3.623   4.696  24.016  0.00  0.00    -0.305 NA
ATOM     27  H   UNL     1      -3.691   5.490  23.380  0.00  0.00    +0.123 HD
BRANCH   5  14
ATOM     14  C   UNL     1      -3.672   3.463  23.239  0.00  0.00    +0.116 C 
BRANCH  14  18
ATOM     18  C   UNL     1      -4.289   2.333  24.020  0.00  0.00    -0.032 A 
ATOM     21  C   UNL     1      -3.810   1.032  23.862  0.00  0.00    +0.023 A 
ATOM     22  C   UNL     1      -5.339   2.587  24.902  0.00  0.00    +0.005 A 
ATOM     23  C   UNL     1      -4.382  -0.014  24.588  0.00  0.00    +0.052 A 
ATOM     24  C   UNL     1      -5.911   1.541  25.627  0.00  0.00    +0.002 A 
ATOM     25  C   UNL     1      -5.431   0.240  25.469  0.00  0.00    +0.019 A 
BRANCH  23  26
ATOM      8  N   UNL     1      -3.495  -2.429  24.297  0.00  0.00    -0.191 NA
ATOM     26  C   UNL     1      -3.892  -1.347  24.427  0.00  0.00    +0.099 C 
ENDBRANCH  23  26
ENDBRANCH  14  18
ENDBRANCH   5  14
ENDBRANCH   9   5
BRANCH  11  13
ATOM     13  C   UNL     1      -0.081   2.430  26.465  0.00  0.00    +0.140 C 
BRANCH  13   6
ATOM      3  O   UNL     1       2.687  -0.231  21.321  0.00  0.00    -0.377 OA
ATOM      4  O   UNL     1      -0.946   0.509  24.599  0.00  0.00    -0.253 OA
ATOM      6  N   UNL     1       0.737   1.823  25.438  0.00  0.00    -0.297 N 
ATOM      7  N   UNL     1       1.152   0.377  23.615  0.00  0.00    -0.281 N 
ATOM     15  C   UNL     1       0.232   0.879  24.552  0.00  0.00    +0.302 C 
ATOM     16  C   UNL     1       2.596   0.648  23.586  0.00  0.00    +0.137 C 
ATOM     17  C   UNL     1       0.707  -0.628  22.647  0.00  0.00    +0.137 C 
ATOM     19  C   UNL     1       3.080   0.860  22.156  0.00  0.00    +0.179 C 
ATOM     20  C   UNL     1       1.264  -0.336  21.263  0.00  0.00    +0.179 C 
ATOM     28  H   UNL     1       1.704   2.114  25.414  0.00  0.00    +0.150 HD
ENDBRANCH  13   6
ENDBRANCH  11  13
TORSDOF 7
ENDMDL
MODEL 10
REMARK VINA RESULT:      -1.2      1.862      2.388
REMARK  Name = 75536762
REMARK  7 active torsions:
REMARK  status: ('A' for Active; 'I' for Inactive)
REMARK    1  A    between atoms: O_2  and  C_10
REMARK    2  A    between atoms: N_5  and  C_9
REMARK    3  A    between atoms: N_5  and  C_14
REMARK    4  A    between atoms: N_6  and  C_13
REMARK    5  A    between atoms: C_11  and  C_13
REMARK    6  A    between atoms: C_14  and  C_18
REMARK    7  A    between atoms: C_23  and  C_26
REMARK                            x       y       z     vdW  Elec       q    Type
REMARK                         _______ _______ _______ _____ _____    ______ ____
ROOT
ATOM      1  O   UNL     1      -4.932   3.896  26.419  0.00  0.00    -0.371 OA
ATOM      9  C   UNL     1      -2.957   4.380  25.190  0.00  0.00    +0.111 C 
ATOM     10  C   UNL     1      -3.807   3.403  24.399  0.00  0.00    +0.164 C 
ATOM     11  C   UNL     1      -5.175   3.625  25.028  0.00  0.00    +0.165 C 
ATOM     12  C   UNL     1      -3.541   4.223  26.585  0.00  0.00    +0.181 C 
ENDROOT
BRANCH  10   2
ATOM      2  O   UNL     1      -3.813   3.684  23.012  0.00  0.00    -0.388 OA
ATOM     29  H   UNL     1      -3.050   3.240  22.606  0.00  0.00    +0.210 HD
ENDBRANCH  10   2
BRANCH   9   5
ATOM      5  N   UNL     1      -1.534   4.092  25.137  0.00  0.00    -0.305 NA
ATOM     27  H   UNL     1      -1.019   4.893  25.501  0.00  0.00    +0.123 HD
BRANCH   5  14
ATOM     14  C   UNL     1      -1.205   2.917  25.934  0.00  0.00    +0.116 C 
BRANCH  14  18
ATOM     18  C   UNL     1      -0.548   1.844  25.107  0.00  0.00    -0.032 A 
ATOM     21  C   UNL     1      -0.689   0.502  25.463  0.00  0.00    +0.023 A 
ATOM     22  C   UNL     1       0.201   2.191  23.984  0.00  0.00    +0.005 A 
ATOM     23  C   UNL     1      -0.081  -0.491  24.695  0.00  0.00    +0.052 A 
ATOM     24  C   UNL     1       0.810   1.199  23.216  0.00  0.00    +0.002 A 
ATOM     25  C   UNL     1       0.668  -0.144  23.572  0.00  0.00    +0.019 A 
BRANCH  23  26
ATOM      8  N   UNL     1      -0.344  -2.981  25.353  0.00  0.00    -0.191 NA
ATOM     26  C   UNL     1      -0.226  -1.865  25.058  0.00  0.00    +0.099 C 
ENDBRANCH  23  26
ENDBRANCH  14  18
ENDBRANCH   5  14
ENDBRANCH   9   5
BRANCH  11  13
ATOM     13  C   UNL     1      -6.100   2.429  24.893  0.00  0.00    +0.140 C 
BRANCH  13   6
ATOM      3  O   UNL     1      -3.266  -3.272  24.077  0.00  0.00    -0.377 OA
ATOM      4  O   UNL     1      -4.817   0.654  26.660  0.00  0.00    -0.253 OA
ATOM      6  N   UNL     1      -5.374   1.238  24.512  0.00  0.00    -0.297 N 
ATOM      7  N   UNL     1      -4.093  -0.705  24.924  0.00  0.00    -0.281 N 
ATOM     15  C   UNL     1      -4.767   0.411  25.449  0.00  0.00    +0.302 C 
ATOM     16  C   UNL     1      -3.857  -0.985  23.501  0.00  0.00    +0.137 C 
ATOM     17  C   UNL     1      -3.418  -1.627  25.840  0.00  0.00    +0.137 C 
ATOM     19  C   UNL     1      -4.055  -2.466  23.199  0.00  0.00    +0.179 C 
ATOM     20  C   UNL     1      -3.660  -3.072  25.436  0.00  0.00    +0.179 C 
ATOM     28  H   UNL     1      -5.319   1.052  23.521  0.00  0.00    +0.150 HD
ENDBRANCH  13   6
ENDBRANCH  11  13
TORSDOF 7
ENDMDL
