MODEL 1
REMARK VINA RESULT:       2.3      0.000      0.000
REMARK  Name = 26745413
REMARK  8 active torsions:
REMARK  status: ('A' for Active; 'I' for Inactive)
REMARK    1  A    between atoms: O_5  and  C_32
REMARK    2  A    between atoms: N_7  and  C_16
REMARK    3  A    between atoms: N_10  and  C_20
REMARK    4  A    between atoms: C_11  and  C_17
REMARK    5  A    between atoms: C_16  and  C_18
REMARK    6  A    between atoms: C_20  and  C_23
REMARK    7  A    between atoms: C_26  and  C_32
REMARK    8  A    between atoms: C_31  and  C_33
REMARK                            x       y       z     vdW  Elec       q    Type
REMARK                         _______ _______ _______ _____ _____    ______ ____
ROOT
ATOM      7  N   UNL     1      -0.902   2.897  23.752  0.00  0.00    -0.281 NA
ATOM      8  N   UNL     1      -3.274  -0.022  23.801  0.00  0.00    -0.347 N 
ATOM      9  N   UNL     1      -2.327  -0.512  25.767  0.00  0.00    -0.240 NA
ATOM     11  C   UNL     1       0.064   2.253  24.682  0.00  0.00    +0.150 C 
ATOM     12  C   UNL     1      -0.538   1.287  25.742  0.00  0.00    +0.085 C 
ATOM     13  C   UNL     1      -1.799   1.934  23.057  0.00  0.00    +0.140 C 
ATOM     14  C   UNL     1      -2.252   0.862  23.970  0.00  0.00    +0.053 A 
ATOM     15  C   UNL     1      -1.684   0.539  25.178  0.00  0.00    +0.065 A 
ATOM     19  C   UNL     1      -3.279  -0.830  24.912  0.00  0.00    +0.197 A 
ATOM     34  H   UNL     1      -3.905  -0.079  23.013  0.00  0.00    +0.167 HD
ENDROOT
BRANCH  11  17
ATOM      4  O   UNL     1       2.214   1.989  23.669  0.00  0.00    -0.274 OA
ATOM     10  N   UNL     1       0.577   0.381  23.273  0.00  0.00    -0.310 N 
ATOM     17  C   UNL     1       1.081   1.542  23.833  0.00  0.00    +0.231 C 
ATOM     35  H   UNL     1      -0.376   0.100  23.491  0.00  0.00    +0.149 HD
BRANCH  10  20
ATOM     20  C   UNL     1       1.346  -0.474  22.399  0.00  0.00    +0.139 C 
BRANCH  20  23
ATOM     23  C   UNL     1       2.818  -0.422  22.716  0.00  0.00    -0.030 A 
ATOM     27  C   UNL     1       3.632   0.523  22.093  0.00  0.00    +0.006 A 
ATOM     28  C   UNL     1       3.365  -1.320  23.632  0.00  0.00    +0.006 A 
ATOM     29  C   UNL     1       4.995   0.571  22.387  0.00  0.00    +0.013 A 
ATOM     30  C   UNL     1       4.728  -1.271  23.926  0.00  0.00    +0.013 A 
ATOM     31  C   UNL     1       5.543  -0.326  23.303  0.00  0.00    +0.055 A 
BRANCH  31  33
ATOM      1  F   UNL     1       7.795  -0.750  22.615  0.00  0.00    -0.166 F 
ATOM      2  F   UNL     1       7.324  -1.011  24.721  0.00  0.00    -0.166 F 
ATOM      3  F   UNL     1       7.461   0.987  23.872  0.00  0.00    -0.166 F 
ATOM     33  C   UNL     1       7.000  -0.274  23.619  0.00  0.00    +0.417 C 
ENDBRANCH  31  33
ENDBRANCH  20  23
ENDBRANCH  10  20
ENDBRANCH  11  17
BRANCH   7  16
ATOM     16  C   UNL     1      -1.676   3.935  24.440  0.00  0.00    +0.120 C 
BRANCH  16  18
ATOM     18  C   UNL     1      -3.035   3.439  24.855  0.00  0.00    -0.033 A 
ATOM     21  C   UNL     1      -3.984   3.115  23.885  0.00  0.00    +0.006 A 
ATOM     22  C   UNL     1      -3.345   3.302  26.208  0.00  0.00    +0.006 A 
ATOM     24  C   UNL     1      -5.245   2.656  24.269  0.00  0.00    +0.015 A 
ATOM     25  C   UNL     1      -4.605   2.843  26.592  0.00  0.00    +0.015 A 
ATOM     26  C   UNL     1      -5.554   2.519  25.622  0.00  0.00    +0.059 A 
BRANCH  26  32
ATOM      6  O   UNL     1      -7.255   1.901  27.188  0.00  0.00    -0.245 OA
ATOM     32  C   UNL     1      -6.867   2.039  26.023  0.00  0.00    +0.337 C 
BRANCH  32   5
ATOM      5  O   UNL     1      -7.661   1.743  24.957  0.00  0.00    -0.477 OA
ATOM     36  H   UNL     1      -7.139   1.620  24.136  0.00  0.00    +0.295 HD
ENDBRANCH  32   5
ENDBRANCH  26  32
ENDBRANCH  16  18
ENDBRANCH   7  16
TORSDOF 8
ENDMDL
MODEL 2
REMARK VINA RESULT:       2.5      2.332      3.790
REMARK  Name = 26745413
REMARK  8 active torsions:
REMARK  status: ('A' for Active; 'I' for Inactive)
REMARK    1  A    between atoms: O_5  and  C_32
REMARK    2  A    between atoms: N_7  and  C_16
REMARK    3  A    between atoms: N_10  and  C_20
REMARK    4  A    between atoms: C_11  and  C_17
REMARK    5  A    between atoms: C_16  and  C_18
REMARK    6  A    between atoms: C_20  and  C_23
REMARK    7  A    between atoms: C_26  and  C_32
REMARK    8  A    between atoms: C_31  and  C_33
REMARK                            x       y       z     vdW  Elec       q    Type
REMARK                         _______ _______ _______ _____ _____    ______ ____
ROOT
ATOM      7  N   UNL     1      -0.889   0.480  25.479  0.00  0.00    -0.281 NA
ATOM      8  N   UNL     1      -1.264   4.169  26.112  0.00  0.00    -0.347 N 
ATOM      9  N   UNL     1      -2.622   4.141  24.336  0.00  0.00    -0.240 NA
ATOM     11  C   UNL     1      -1.267   0.589  24.045  0.00  0.00    +0.150 C 
ATOM     12  C   UNL     1      -2.277   1.714  23.681  0.00  0.00    +0.085 C 
ATOM     13  C   UNL     1      -0.405   1.757  26.071  0.00  0.00    +0.140 C 
ATOM     14  C   UNL     1      -1.207   2.908  25.601  0.00  0.00    +0.053 A 
ATOM     15  C   UNL     1      -2.043   2.917  24.512  0.00  0.00    +0.065 A 
ATOM     19  C   UNL     1      -2.131   4.875  25.315  0.00  0.00    +0.197 A 
ATOM     34  H   UNL     1      -0.765   4.522  26.918  0.00  0.00    +0.167 HD
ENDROOT
BRANCH  11  17
ATOM      4  O   UNL     1       0.812   1.646  23.516  0.00  0.00    -0.274 OA
ATOM     10  N   UNL     1       0.136  -0.198  22.265  0.00  0.00    -0.310 N 
ATOM     17  C   UNL     1       0.010   0.749  23.267  0.00  0.00    +0.231 C 
ATOM     35  H   UNL     1      -0.587  -0.905  22.160  0.00  0.00    +0.149 HD
BRANCH  10  20
ATOM     20  C   UNL     1       1.262  -0.247  21.362  0.00  0.00    +0.139 C 
BRANCH  20  23
ATOM     23  C   UNL     1       2.575  -0.186  22.097  0.00  0.00    -0.030 A 
ATOM     27  C   UNL     1       3.440   0.888  21.891  0.00  0.00    +0.006 A 
ATOM     28  C   UNL     1       2.925  -1.204  22.983  0.00  0.00    +0.006 A 
ATOM     29  C   UNL     1       4.656   0.945  22.572  0.00  0.00    +0.013 A 
ATOM     30  C   UNL     1       4.141  -1.147  23.665  0.00  0.00    +0.013 A 
ATOM     31  C   UNL     1       5.007  -0.072  23.459  0.00  0.00    +0.055 A 
BRANCH  31  33
ATOM      1  F   UNL     1       6.417  -0.936  25.188  0.00  0.00    -0.166 F 
ATOM      2  F   UNL     1       6.517   1.198  24.784  0.00  0.00    -0.166 F 
ATOM      3  F   UNL     1       7.393  -0.220  23.387  0.00  0.00    -0.166 F 
ATOM     33  C   UNL     1       6.306  -0.011  24.188  0.00  0.00    +0.417 C 
ENDBRANCH  31  33
ENDBRANCH  20  23
ENDBRANCH  10  20
ENDBRANCH  11  17
BRANCH   7  16
ATOM     16  C   UNL     1      -1.990  -0.082  26.267  0.00  0.00    +0.120 C 
BRANCH  16  18
ATOM     18  C   UNL     1      -2.878  -0.969  25.436  0.00  0.00    -0.033 A 
ATOM     21  C   UNL     1      -2.506  -2.290  25.186  0.00  0.00    +0.006 A 
ATOM     22  C   UNL     1      -4.072  -0.470  24.916  0.00  0.00    +0.006 A 
ATOM     24  C   UNL     1      -3.328  -3.112  24.415  0.00  0.00    +0.015 A 
ATOM     25  C   UNL     1      -4.895  -1.292  24.145  0.00  0.00    +0.015 A 
ATOM     26  C   UNL     1      -4.523  -2.613  23.895  0.00  0.00    +0.059 A 
BRANCH  26  32
ATOM      6  O   UNL     1      -6.502  -3.871  23.422  0.00  0.00    -0.245 OA
ATOM     32  C   UNL     1      -5.381  -3.470  23.093  0.00  0.00    +0.337 C 
BRANCH  32   5
ATOM      5  O   UNL     1      -4.816  -3.803  21.900  0.00  0.00    -0.477 OA
ATOM     36  H   UNL     1      -4.841  -3.058  21.263  0.00  0.00    +0.295 HD
ENDBRANCH  32   5
ENDBRANCH  26  32
ENDBRANCH  16  18
ENDBRANCH   7  16
TORSDOF 8
ENDMDL
MODEL 3
REMARK VINA RESULT:       2.7      2.668      4.503
REMARK  Name = 26745413
REMARK  8 active torsions:
REMARK  status: ('A' for Active; 'I' for Inactive)
REMARK    1  A    between atoms: O_5  and  C_32
REMARK    2  A    between atoms: N_7  and  C_16
REMARK    3  A    between atoms: N_10  and  C_20
REMARK    4  A    between atoms: C_11  and  C_17
REMARK    5  A    between atoms: C_16  and  C_18
REMARK    6  A    between atoms: C_20  and  C_23
REMARK    7  A    between atoms: C_26  and  C_32
REMARK    8  A    between atoms: C_31  and  C_33
REMARK                            x       y       z     vdW  Elec       q    Type
REMARK                         _______ _______ _______ _____ _____    ______ ____
ROOT
ATOM      7  N   UNL     1      -2.098   2.510  24.893  0.00  0.00    -0.281 NA
ATOM      8  N   UNL     1      -5.717   2.489  23.869  0.00  0.00    -0.347 N 
ATOM      9  N   UNL     1      -5.907   0.760  25.276  0.00  0.00    -0.240 NA
ATOM     11  C   UNL     1      -2.107   1.083  25.312  0.00  0.00    +0.150 C 
ATOM     12  C   UNL     1      -3.451   0.538  25.875  0.00  0.00    +0.085 C 
ATOM     13  C   UNL     1      -3.185   2.863  23.940  0.00  0.00    +0.140 C 
ATOM     14  C   UNL     1      -4.460   2.207  24.308  0.00  0.00    +0.053 A 
ATOM     15  C   UNL     1      -4.600   1.143  25.163  0.00  0.00    +0.065 A 
ATOM     19  C   UNL     1      -6.555   1.590  24.482  0.00  0.00    +0.197 A 
ATOM     34  H   UNL     1      -5.986   3.214  23.218  0.00  0.00    +0.167 HD
ENDROOT
BRANCH  11  17
ATOM      4  O   UNL     1      -2.428  -0.481  23.532  0.00  0.00    -0.274 OA
ATOM     10  N   UNL     1      -0.326   0.478  23.824  0.00  0.00    -0.310 N 
ATOM     17  C   UNL     1      -1.662   0.275  24.125  0.00  0.00    +0.231 C 
ATOM     35  H   UNL     1       0.209   1.142  24.378  0.00  0.00    +0.149 HD
BRANCH  10  20
ATOM     20  C   UNL     1       0.351  -0.198  22.742  0.00  0.00    +0.139 C 
BRANCH  20  23
ATOM     23  C   UNL     1       1.845  -0.202  22.931  0.00  0.00    -0.030 A 
ATOM     27  C   UNL     1       2.597   0.916  22.569  0.00  0.00    +0.006 A 
ATOM     28  C   UNL     1       2.477  -1.324  23.467  0.00  0.00    +0.006 A 
ATOM     29  C   UNL     1       3.981   0.911  22.744  0.00  0.00    +0.013 A 
ATOM     30  C   UNL     1       3.861  -1.328  23.643  0.00  0.00    +0.013 A 
ATOM     31  C   UNL     1       4.613  -0.210  23.281  0.00  0.00    +0.055 A 
BRANCH  31  33
ATOM      1  F   UNL     1       6.785  -0.602  22.357  0.00  0.00    -0.166 F 
ATOM      2  F   UNL     1       6.492  -1.061  24.462  0.00  0.00    -0.166 F 
ATOM      3  F   UNL     1       6.606   1.007  23.801  0.00  0.00    -0.166 F 
ATOM     33  C   UNL     1       6.092  -0.214  23.469  0.00  0.00    +0.417 C 
ENDBRANCH  31  33
ENDBRANCH  20  23
ENDBRANCH  10  20
ENDBRANCH  11  17
BRANCH   7  16
ATOM     16  C   UNL     1      -2.112   3.397  26.060  0.00  0.00    +0.120 C 
BRANCH  16  18
ATOM     18  C   UNL     1      -0.955   3.127  26.984  0.00  0.00    -0.033 A 
ATOM     21  C   UNL     1      -1.141   3.170  28.365  0.00  0.00    +0.006 A 
ATOM     22  C   UNL     1       0.304   2.834  26.458  0.00  0.00    +0.006 A 
ATOM     24  C   UNL     1      -0.068   2.920  29.222  0.00  0.00    +0.015 A 
ATOM     25  C   UNL     1       1.376   2.584  27.313  0.00  0.00    +0.015 A 
ATOM     26  C   UNL     1       1.190   2.627  28.695  0.00  0.00    +0.059 A 
BRANCH  26  32
ATOM      6  O   UNL     1       2.256   1.693  30.623  0.00  0.00    -0.245 OA
ATOM     32  C   UNL     1       2.309   2.365  29.588  0.00  0.00    +0.337 C 
BRANCH  32   5
ATOM      5  O   UNL     1       3.462   2.949  29.162  0.00  0.00    -0.477 OA
ATOM     36  H   UNL     1       4.124   3.018  29.883  0.00  0.00    +0.295 HD
ENDBRANCH  32   5
ENDBRANCH  26  32
ENDBRANCH  16  18
ENDBRANCH   7  16
TORSDOF 8
ENDMDL
MODEL 4
REMARK VINA RESULT:       3.0      1.683      2.138
REMARK  Name = 26745413
REMARK  8 active torsions:
REMARK  status: ('A' for Active; 'I' for Inactive)
REMARK    1  A    between atoms: O_5  and  C_32
REMARK    2  A    between atoms: N_7  and  C_16
REMARK    3  A    between atoms: N_10  and  C_20
REMARK    4  A    between atoms: C_11  and  C_17
REMARK    5  A    between atoms: C_16  and  C_18
REMARK    6  A    between atoms: C_20  and  C_23
REMARK    7  A    between atoms: C_26  and  C_32
REMARK    8  A    between atoms: C_31  and  C_33
REMARK                            x       y       z     vdW  Elec       q    Type
REMARK                         _______ _______ _______ _____ _____    ______ ____
ROOT
ATOM      7  N   UNL     1      -0.765   1.749  25.057  0.00  0.00    -0.281 NA
ATOM      8  N   UNL     1      -4.177   1.081  23.622  0.00  0.00    -0.347 N 
ATOM      9  N   UNL     1      -4.341  -0.464  25.231  0.00  0.00    -0.240 NA
ATOM     11  C   UNL     1      -0.654   0.400  25.674  0.00  0.00    +0.150 C 
ATOM     12  C   UNL     1      -1.983  -0.256  26.145  0.00  0.00    +0.085 C 
ATOM     13  C   UNL     1      -1.746   1.818  23.940  0.00  0.00    +0.140 C 
ATOM     14  C   UNL     1      -2.967   1.039  24.244  0.00  0.00    +0.053 A 
ATOM     15  C   UNL     1      -3.090   0.083  25.221  0.00  0.00    +0.065 A 
ATOM     19  C   UNL     1      -4.973   0.156  24.253  0.00  0.00    +0.197 A 
ATOM     34  H   UNL     1      -4.442   1.672  22.845  0.00  0.00    +0.167 HD
ENDROOT
BRANCH  11  17
ATOM      4  O   UNL     1       0.117  -1.699  24.825  0.00  0.00    -0.274 OA
ATOM     10  N   UNL     1       0.600   0.243  23.635  0.00  0.00    -0.310 N 
ATOM     17  C   UNL     1       0.049  -0.481  24.678  0.00  0.00    +0.231 C 
ATOM     35  H   UNL     1       0.467   1.251  23.610  0.00  0.00    +0.149 HD
BRANCH  10  20
ATOM     20  C   UNL     1       1.346  -0.365  22.558  0.00  0.00    +0.139 C 
BRANCH  20  23
ATOM     23  C   UNL     1       2.829  -0.340  22.819  0.00  0.00    -0.030 A 
ATOM     27  C   UNL     1       3.587   0.764  22.430  0.00  0.00    +0.006 A 
ATOM     28  C   UNL     1       3.444  -1.421  23.450  0.00  0.00    +0.006 A 
ATOM     29  C   UNL     1       4.961   0.786  22.672  0.00  0.00    +0.013 A 
ATOM     30  C   UNL     1       4.817  -1.398  23.692  0.00  0.00    +0.013 A 
ATOM     31  C   UNL     1       5.576  -0.294  23.302  0.00  0.00    +0.055 A 
BRANCH  31  33
ATOM      1  F   UNL     1       7.546   0.986  23.754  0.00  0.00    -0.166 F 
ATOM      2  F   UNL     1       7.768  -0.799  22.533  0.00  0.00    -0.166 F 
ATOM      3  F   UNL     1       7.415  -0.975  24.672  0.00  0.00    -0.166 F 
ATOM     33  C   UNL     1       7.044  -0.270  23.562  0.00  0.00    +0.417 C 
ENDBRANCH  31  33
ENDBRANCH  20  23
ENDBRANCH  10  20
ENDBRANCH  11  17
BRANCH   7  16
ATOM     16  C   UNL     1      -1.051   2.765  26.074  0.00  0.00    +0.120 C 
BRANCH  16  18
ATOM     18  C   UNL     1      -2.394   3.411  25.858  0.00  0.00    -0.033 A 
ATOM     21  C   UNL     1      -3.490   3.012  26.624  0.00  0.00    +0.006 A 
ATOM     22  C   UNL     1      -2.542   4.407  24.893  0.00  0.00    +0.006 A 
ATOM     24  C   UNL     1      -4.735   3.610  26.423  0.00  0.00    +0.015 A 
ATOM     25  C   UNL     1      -3.786   5.005  24.693  0.00  0.00    +0.015 A 
ATOM     26  C   UNL     1      -4.882   4.606  25.458  0.00  0.00    +0.059 A 
BRANCH  26  32
ATOM      6  O   UNL     1      -6.407   6.168  24.478  0.00  0.00    -0.245 OA
ATOM     32  C   UNL     1      -6.179   5.231  25.251  0.00  0.00    +0.337 C 
BRANCH  32   5
ATOM      5  O   UNL     1      -7.156   4.668  26.012  0.00  0.00    -0.477 OA
ATOM     36  H   UNL     1      -6.901   4.621  26.958  0.00  0.00    +0.295 HD
ENDBRANCH  32   5
ENDBRANCH  26  32
ENDBRANCH  16  18
ENDBRANCH   7  16
TORSDOF 8
ENDMDL
MODEL 5
REMARK VINA RESULT:       3.2      1.875      2.894
REMARK  Name = 26745413
REMARK  8 active torsions:
REMARK  status: ('A' for Active; 'I' for Inactive)
REMARK    1  A    between atoms: O_5  and  C_32
REMARK    2  A    between atoms: N_7  and  C_16
REMARK    3  A    between atoms: N_10  and  C_20
REMARK    4  A    between atoms: C_11  and  C_17
REMARK    5  A    between atoms: C_16  and  C_18
REMARK    6  A    between atoms: C_20  and  C_23
REMARK    7  A    between atoms: C_26  and  C_32
REMARK    8  A    between atoms: C_31  and  C_33
REMARK                            x       y       z     vdW  Elec       q    Type
REMARK                         _______ _______ _______ _____ _____    ______ ____
ROOT
ATOM      7  N   UNL     1      -1.966  -0.869  25.245  0.00  0.00    -0.281 NA
ATOM      8  N   UNL     1       0.196   1.968  26.440  0.00  0.00    -0.347 N 
ATOM      9  N   UNL     1      -0.661   3.097  24.709  0.00  0.00    -0.240 NA
ATOM     11  C   UNL     1      -2.042  -0.353  23.852  0.00  0.00    +0.150 C 
ATOM     12  C   UNL     1      -1.990   1.193  23.685  0.00  0.00    +0.085 C 
ATOM     13  C   UNL     1      -0.801  -0.351  26.014  0.00  0.00    +0.140 C 
ATOM     14  C   UNL     1      -0.569   1.085  25.741  0.00  0.00    +0.053 A 
ATOM     15  C   UNL     1      -1.079   1.796  24.684  0.00  0.00    +0.065 A 
ATOM     19  C   UNL     1       0.108   3.168  25.778  0.00  0.00    +0.197 A 
ATOM     34  H   UNL     1       0.728   1.782  27.279  0.00  0.00    +0.167 HD
ENDROOT
BRANCH  11  17
ATOM      4  O   UNL     1      -0.679  -2.205  23.197  0.00  0.00    -0.274 OA
ATOM     10  N   UNL     1      -0.250  -0.110  22.276  0.00  0.00    -0.310 N 
ATOM     17  C   UNL     1      -0.930  -1.008  23.080  0.00  0.00    +0.231 C 
ATOM     35  H   UNL     1      -0.557   0.859  22.249  0.00  0.00    +0.149 HD
BRANCH  10  20
ATOM     20  C   UNL     1       0.875  -0.483  21.451  0.00  0.00    +0.139 C 
BRANCH  20  23
ATOM     23  C   UNL     1       2.183  -0.322  22.178  0.00  0.00    -0.030 A 
ATOM     27  C   UNL     1       2.898   0.871  22.072  0.00  0.00    +0.006 A 
ATOM     28  C   UNL     1       2.680  -1.367  22.958  0.00  0.00    +0.006 A 
ATOM     29  C   UNL     1       4.110   1.019  22.746  0.00  0.00    +0.013 A 
ATOM     30  C   UNL     1       3.892  -1.217  23.632  0.00  0.00    +0.013 A 
ATOM     31  C   UNL     1       4.607  -0.024  23.526  0.00  0.00    +0.055 A 
BRANCH  31  33
ATOM      1  F   UNL     1       6.998  -0.082  23.462  0.00  0.00    -0.166 F 
ATOM      2  F   UNL     1       6.028  -0.729  25.297  0.00  0.00    -0.166 F 
ATOM      3  F   UNL     1       6.085   1.382  24.777  0.00  0.00    -0.166 F 
ATOM     33  C   UNL     1       5.903   0.136  24.248  0.00  0.00    +0.417 C 
ENDBRANCH  31  33
ENDBRANCH  20  23
ENDBRANCH  10  20
ENDBRANCH  11  17
BRANCH   7  16
ATOM     16  C   UNL     1      -3.221  -0.624  25.961  0.00  0.00    +0.120 C 
BRANCH  16  18
ATOM     18  C   UNL     1      -3.772   0.747  25.674  0.00  0.00    -0.033 A 
ATOM     21  C   UNL     1      -4.780   0.906  24.723  0.00  0.00    +0.006 A 
ATOM     22  C   UNL     1      -3.275   1.856  26.356  0.00  0.00    +0.006 A 
ATOM     24  C   UNL     1      -5.291   2.177  24.455  0.00  0.00    +0.015 A 
ATOM     25  C   UNL     1      -3.785   3.126  26.090  0.00  0.00    +0.015 A 
ATOM     26  C   UNL     1      -4.793   3.286  25.139  0.00  0.00    +0.059 A 
BRANCH  26  32
ATOM      6  O   UNL     1      -4.865   5.411  24.040  0.00  0.00    -0.245 OA
ATOM     32  C   UNL     1      -5.327   4.611  24.861  0.00  0.00    +0.337 C 
BRANCH  32   5
ATOM      5  O   UNL     1      -6.422   4.900  25.615  0.00  0.00    -0.477 OA
ATOM     36  H   UNL     1      -7.024   4.130  25.696  0.00  0.00    +0.295 HD
ENDBRANCH  32   5
ENDBRANCH  26  32
ENDBRANCH  16  18
ENDBRANCH   7  16
TORSDOF 8
ENDMDL
MODEL 6
REMARK VINA RESULT:       3.5      1.903      2.772
REMARK  Name = 26745413
REMARK  8 active torsions:
REMARK  status: ('A' for Active; 'I' for Inactive)
REMARK    1  A    between atoms: O_5  and  C_32
REMARK    2  A    between atoms: N_7  and  C_16
REMARK    3  A    between atoms: N_10  and  C_20
REMARK    4  A    between atoms: C_11  and  C_17
REMARK    5  A    between atoms: C_16  and  C_18
REMARK    6  A    between atoms: C_20  and  C_23
REMARK    7  A    between atoms: C_26  and  C_32
REMARK    8  A    between atoms: C_31  and  C_33
REMARK                            x       y       z     vdW  Elec       q    Type
REMARK                         _______ _______ _______ _____ _____    ______ ____
ROOT
ATOM      7  N   UNL     1      -3.189  -0.081  23.936  0.00  0.00    -0.281 NA
ATOM      8  N   UNL     1      -1.397  -3.228  24.954  0.00  0.00    -0.347 N 
ATOM      9  N   UNL     1      -0.188  -1.885  26.272  0.00  0.00    -0.240 NA
ATOM     11  C   UNL     1      -2.055   0.803  24.315  0.00  0.00    +0.150 C 
ATOM     12  C   UNL     1      -1.173   0.324  25.503  0.00  0.00    +0.085 C 
ATOM     13  C   UNL     1      -2.791  -1.494  23.688  0.00  0.00    +0.140 C 
ATOM     14  C   UNL     1      -1.789  -1.954  24.674  0.00  0.00    +0.053 A 
ATOM     15  C   UNL     1      -1.032  -1.150  25.489  0.00  0.00    +0.065 A 
ATOM     19  C   UNL     1      -0.430  -3.134  25.924  0.00  0.00    +0.197 A 
ATOM     34  H   UNL     1      -1.744  -4.078  24.531  0.00  0.00    +0.167 HD
ENDROOT
BRANCH  11  17
ATOM      4  O   UNL     1      -1.541   1.796  22.201  0.00  0.00    -0.274 OA
ATOM     10  N   UNL     1      -0.106   0.178  23.064  0.00  0.00    -0.310 N 
ATOM     17  C   UNL     1      -1.220   0.999  23.079  0.00  0.00    +0.231 C 
ATOM     35  H   UNL     1       0.067  -0.435  23.856  0.00  0.00    +0.149 HD
BRANCH  10  20
ATOM     20  C   UNL     1       0.845   0.157  21.977  0.00  0.00    +0.139 C 
BRANCH  20  23
ATOM     23  C   UNL     1       2.264   0.071  22.474  0.00  0.00    -0.030 A 
ATOM     27  C   UNL     1       2.717  -1.096  23.089  0.00  0.00    +0.006 A 
ATOM     28  C   UNL     1       3.124   1.158  22.320  0.00  0.00    +0.006 A 
ATOM     29  C   UNL     1       4.031  -1.175  23.550  0.00  0.00    +0.013 A 
ATOM     30  C   UNL     1       4.438   1.078  22.780  0.00  0.00    +0.013 A 
ATOM     31  C   UNL     1       4.892  -0.089  23.396  0.00  0.00    +0.055 A 
BRANCH  31  33
ATOM      1  F   UNL     1       6.466  -1.058  24.915  0.00  0.00    -0.166 F 
ATOM      2  F   UNL     1       6.763   1.021  24.353  0.00  0.00    -0.166 F 
ATOM      3  F   UNL     1       7.189  -0.567  22.929  0.00  0.00    -0.166 F 
ATOM     33  C   UNL     1       6.297  -0.174  23.887  0.00  0.00    +0.417 C 
ENDBRANCH  31  33
ENDBRANCH  20  23
ENDBRANCH  10  20
ENDBRANCH  11  17
BRANCH   7  16
ATOM     16  C   UNL     1      -4.265  -0.003  24.929  0.00  0.00    +0.120 C 
BRANCH  16  18
ATOM     18  C   UNL     1      -4.791   1.399  25.076  0.00  0.00    -0.033 A 
ATOM     21  C   UNL     1      -4.185   2.447  24.383  0.00  0.00    +0.006 A 
ATOM     22  C   UNL     1      -5.883   1.651  25.906  0.00  0.00    +0.006 A 
ATOM     24  C   UNL     1      -4.672   3.748  24.520  0.00  0.00    +0.015 A 
ATOM     25  C   UNL     1      -6.370   2.951  26.043  0.00  0.00    +0.015 A 
ATOM     26  C   UNL     1      -5.764   3.999  25.350  0.00  0.00    +0.059 A 
BRANCH  26  32
ATOM      6  O   UNL     1      -6.620   6.090  24.562  0.00  0.00    -0.245 OA
ATOM     32  C   UNL     1      -6.273   5.354  25.492  0.00  0.00    +0.337 C 
BRANCH  32   5
ATOM      5  O   UNL     1      -6.334   5.754  26.791  0.00  0.00    -0.477 OA
ATOM     36  H   UNL     1      -6.924   5.180  27.324  0.00  0.00    +0.295 HD
ENDBRANCH  32   5
ENDBRANCH  26  32
ENDBRANCH  16  18
ENDBRANCH   7  16
TORSDOF 8
ENDMDL
MODEL 7
REMARK VINA RESULT:       3.5      1.450      2.001
REMARK  Name = 26745413
REMARK  8 active torsions:
REMARK  status: ('A' for Active; 'I' for Inactive)
REMARK    1  A    between atoms: O_5  and  C_32
REMARK    2  A    between atoms: N_7  and  C_16
REMARK    3  A    between atoms: N_10  and  C_20
REMARK    4  A    between atoms: C_11  and  C_17
REMARK    5  A    between atoms: C_16  and  C_18
REMARK    6  A    between atoms: C_20  and  C_23
REMARK    7  A    between atoms: C_26  and  C_32
REMARK    8  A    between atoms: C_31  and  C_33
REMARK                            x       y       z     vdW  Elec       q    Type
REMARK                         _______ _______ _______ _____ _____    ______ ____
ROOT
ATOM      7  N   UNL     1      -0.124   2.360  23.543  0.00  0.00    -0.281 NA
ATOM      8  N   UNL     1      -3.351   0.456  23.876  0.00  0.00    -0.347 N 
ATOM      9  N   UNL     1      -2.456  -0.356  25.758  0.00  0.00    -0.240 NA
ATOM     11  C   UNL     1       0.638   1.408  24.395  0.00  0.00    +0.150 C 
ATOM     12  C   UNL     1      -0.161   0.704  25.528  0.00  0.00    +0.085 C 
ATOM     13  C   UNL     1      -1.362   1.780  22.955  0.00  0.00    +0.140 C 
ATOM     14  C   UNL     1      -2.074   0.924  23.931  0.00  0.00    +0.053 A 
ATOM     15  C   UNL     1      -1.544   0.410  25.088  0.00  0.00    +0.065 A 
ATOM     19  C   UNL     1      -3.534  -0.311  25.001  0.00  0.00    +0.197 A 
ATOM     34  H   UNL     1      -4.034   0.632  23.151  0.00  0.00    +0.167 HD
ENDROOT
BRANCH  11  17
ATOM      4  O   UNL     1       0.577  -0.415  22.849  0.00  0.00    -0.274 OA
ATOM     10  N   UNL     1       2.639   0.487  23.446  0.00  0.00    -0.310 N 
ATOM     17  C   UNL     1       1.258   0.395  23.473  0.00  0.00    +0.231 C 
ATOM     35  H   UNL     1       3.096   1.210  23.995  0.00  0.00    +0.149 HD
BRANCH  10  20
ATOM     20  C   UNL     1       3.474  -0.387  22.656  0.00  0.00    +0.139 C 
BRANCH  20  23
ATOM     23  C   UNL     1       4.937  -0.181  22.947  0.00  0.00    -0.030 A 
ATOM     27  C   UNL     1       5.894  -0.960  22.297  0.00  0.00    +0.006 A 
ATOM     28  C   UNL     1       5.334   0.789  23.867  0.00  0.00    +0.006 A 
ATOM     29  C   UNL     1       7.249  -0.769  22.567  0.00  0.00    +0.013 A 
ATOM     30  C   UNL     1       6.690   0.980  24.136  0.00  0.00    +0.013 A 
ATOM     31  C   UNL     1       7.647   0.201  23.486  0.00  0.00    +0.055 A 
BRANCH  31  33
ATOM      1  F   UNL     1       9.405   1.686  24.141  0.00  0.00    -0.166 F 
ATOM      2  F   UNL     1       9.889   0.134  22.697  0.00  0.00    -0.166 F 
ATOM      3  F   UNL     1       9.570  -0.379  24.787  0.00  0.00    -0.166 F 
ATOM     33  C   UNL     1       9.096   0.407  23.774  0.00  0.00    +0.417 C 
ENDBRANCH  31  33
ENDBRANCH  20  23
ENDBRANCH  10  20
ENDBRANCH  11  17
BRANCH   7  16
ATOM     16  C   UNL     1      -0.418   3.596  24.275  0.00  0.00    +0.120 C 
BRANCH  16  18
ATOM     18  C   UNL     1      -1.864   3.674  24.684  0.00  0.00    -0.033 A 
ATOM     21  C   UNL     1      -2.860   3.758  23.711  0.00  0.00    +0.006 A 
ATOM     22  C   UNL     1      -2.209   3.664  26.035  0.00  0.00    +0.006 A 
ATOM     24  C   UNL     1      -4.201   3.832  24.089  0.00  0.00    +0.015 A 
ATOM     25  C   UNL     1      -3.549   3.738  26.414  0.00  0.00    +0.015 A 
ATOM     26  C   UNL     1      -4.545   3.821  25.441  0.00  0.00    +0.059 A 
BRANCH  26  32
ATOM      6  O   UNL     1      -6.637   4.919  25.820  0.00  0.00    -0.245 OA
ATOM     32  C   UNL     1      -5.943   3.897  25.836  0.00  0.00    +0.337 C 
BRANCH  32   5
ATOM      5  O   UNL     1      -6.436   2.694  26.239  0.00  0.00    -0.477 OA
ATOM     36  H   UNL     1      -6.980   2.270  25.543  0.00  0.00    +0.295 HD
ENDBRANCH  32   5
ENDBRANCH  26  32
ENDBRANCH  16  18
ENDBRANCH   7  16
TORSDOF 8
ENDMDL
