MODEL 1
REMARK VINA RESULT:       3.5      0.000      0.000
REMARK  Name = 71693478
REMARK  10 active torsions:
REMARK  status: ('A' for Active; 'I' for Inactive)
REMARK    1  A    between atoms: S_1  and  N_11
REMARK    2  A    between atoms: S_1  and  C_27
REMARK    3  A    between atoms: O_4  and  C_14
REMARK    4  A    between atoms: N_9  and  C_17
REMARK    5  A    between atoms: N_10  and  C_25
REMARK    6  A    between atoms: N_10  and  C_26
REMARK    7  A    between atoms: N_11  and  C_24
REMARK    8  A    between atoms: C_12  and  C_14
REMARK    9  A    between atoms: C_13  and  C_15
REMARK   10  A    between atoms: C_17  and  C_21
REMARK                            x       y       z     vdW  Elec       q    Type
REMARK                         _______ _______ _______ _____ _____    ______ ____
ROOT
ATOM     15  C   UNL     1      17.196  -5.268  27.593  0.00  0.00    -0.017 A 
ATOM     19  C   UNL     1      17.337  -3.882  27.509  0.00  0.00    +0.008 A 
ATOM     20  C   UNL     1      17.125  -6.033  26.429  0.00  0.00    +0.008 A 
ATOM     22  C   UNL     1      17.405  -3.262  26.261  0.00  0.00    +0.025 A 
ATOM     23  C   UNL     1      17.193  -5.414  25.181  0.00  0.00    +0.025 A 
ATOM     24  C   UNL     1      17.334  -4.028  25.098  0.00  0.00    +0.048 A 
ENDROOT
BRANCH  15  13
ATOM      3  O   UNL     1      17.063  -4.903  29.927  0.00  0.00    -0.361 OA
ATOM      5  O   UNL     1      16.101  -6.772  32.805  0.00  0.00    -0.273 OA
ATOM      9  N   UNL     1      15.748  -7.266  30.554  0.00  0.00    -0.283 N 
ATOM     12  C   UNL     1      15.891  -6.846  29.139  0.00  0.00    +0.135 C 
ATOM     13  C   UNL     1      17.123  -5.941  28.948  0.00  0.00    +0.171 C 
ATOM     16  C   UNL     1      16.297  -6.536  31.610  0.00  0.00    +0.242 C 
ATOM     18  C   UNL     1      17.252  -5.425  31.220  0.00  0.00    +0.256 C 
BRANCH  12  14
ATOM     14  C   UNL     1      15.941  -8.039  28.174  0.00  0.00    +0.181 C 
BRANCH  14   4
ATOM      4  O   UNL     1      16.689  -9.070  28.785  0.00  0.00    -0.393 OA
ATOM     33  H   UNL     1      16.619  -8.945  29.746  0.00  0.00    +0.209 HD
ENDBRANCH  14   4
ENDBRANCH  12  14
BRANCH   9  17
ATOM     17  C   UNL     1      14.806  -8.339  30.861  0.00  0.00    +0.204 C 
BRANCH  17  21
ATOM      6  O   UNL     1      13.098  -6.681  30.580  0.00  0.00    -0.274 OA
ATOM     10  N   UNL     1      12.554  -8.535  31.864  0.00  0.00    -0.306 N 
ATOM     21  C   UNL     1      13.417  -7.763  31.077  0.00  0.00    +0.232 C 
ATOM     25  C   UNL     1      11.187  -8.116  32.165  0.00  0.00    +0.131 C 
ATOM     26  C   UNL     1      12.955  -9.812  32.441  0.00  0.00    +0.131 C 
ENDBRANCH  17  21
ENDBRANCH   9  17
ENDBRANCH  15  13
BRANCH  24  11
ATOM     11  N   UNL     1      17.405  -3.394  23.820  0.00  0.00    -0.216 N 
ATOM     34  H   UNL     1      17.405  -4.037  23.017  0.00  0.00    +0.174 HD
BRANCH  11   1
ATOM      1  S   UNL     1      16.577  -1.901  23.588  0.00  0.00    +0.072 S 
ATOM      7  O   UNL     1      17.215  -1.169  22.510  0.00  0.00    -0.150 OA
ATOM      8  O   UNL     1      16.354  -1.251  24.866  0.00  0.00    -0.150 OA
BRANCH   1  27
ATOM      2  F   UNL     1      11.347  -3.723  21.556  0.00  0.00    -0.205 F 
ATOM     27  C   UNL     1      15.008  -2.448  22.978  0.00  0.00    +0.109 A 
ATOM     28  C   UNL     1      14.115  -3.096  23.833  0.00  0.00    +0.031 A 
ATOM     29  C   UNL     1      14.663  -2.230  21.644  0.00  0.00    +0.031 A 
ATOM     30  C   UNL     1      12.878  -3.526  23.352  0.00  0.00    +0.040 A 
ATOM     31  C   UNL     1      13.427  -2.661  21.164  0.00  0.00    +0.040 A 
ATOM     32  C   UNL     1      12.534  -3.309  22.018  0.00  0.00    +0.124 A 
ENDBRANCH   1  27
ENDBRANCH  11   1
ENDBRANCH  24  11
TORSDOF 8
ENDMDL
MODEL 2
REMARK VINA RESULT:       4.4     15.924     19.017
REMARK  Name = 71693478
REMARK  10 active torsions:
REMARK  status: ('A' for Active; 'I' for Inactive)
REMARK    1  A    between atoms: S_1  and  N_11
REMARK    2  A    between atoms: S_1  and  C_27
REMARK    3  A    between atoms: O_4  and  C_14
REMARK    4  A    between atoms: N_9  and  C_17
REMARK    5  A    between atoms: N_10  and  C_25
REMARK    6  A    between atoms: N_10  and  C_26
REMARK    7  A    between atoms: N_11  and  C_24
REMARK    8  A    between atoms: C_12  and  C_14
REMARK    9  A    between atoms: C_13  and  C_15
REMARK   10  A    between atoms: C_17  and  C_21
REMARK                            x       y       z     vdW  Elec       q    Type
REMARK                         _______ _______ _______ _____ _____    ______ ____
ROOT
ATOM     15  C   UNL     1      -1.573  -0.170  24.700  0.00  0.00    -0.017 A 
ATOM     19  C   UNL     1      -2.317  -0.627  25.789  0.00  0.00    +0.008 A 
ATOM     20  C   UNL     1      -2.211   0.470  23.638  0.00  0.00    +0.008 A 
ATOM     22  C   UNL     1      -3.700  -0.444  25.815  0.00  0.00    +0.025 A 
ATOM     23  C   UNL     1      -3.594   0.653  23.664  0.00  0.00    +0.025 A 
ATOM     24  C   UNL     1      -4.338   0.197  24.753  0.00  0.00    +0.048 A 
ENDROOT
BRANCH  15  13
ATOM      3  O   UNL     1       0.169  -1.662  24.119  0.00  0.00    -0.361 OA
ATOM      5  O   UNL     1       3.666  -1.456  23.465  0.00  0.00    -0.273 OA
ATOM      9  N   UNL     1       2.104   0.266  23.630  0.00  0.00    -0.283 N 
ATOM     12  C   UNL     1       0.688   0.663  23.817  0.00  0.00    +0.135 C 
ATOM     13  C   UNL     1      -0.072  -0.369  24.673  0.00  0.00    +0.171 C 
ATOM     16  C   UNL     1       2.530  -1.059  23.735  0.00  0.00    +0.242 C 
ATOM     18  C   UNL     1       1.514  -2.037  24.291  0.00  0.00    +0.256 C 
BRANCH  12  14
ATOM     14  C   UNL     1       0.546   2.071  24.414  0.00  0.00    +0.181 C 
BRANCH  14   4
ATOM      4  O   UNL     1       0.744   1.980  25.810  0.00  0.00    -0.393 OA
ATOM     33  H   UNL     1       0.955   1.053  26.011  0.00  0.00    +0.209 HD
ENDBRANCH  14   4
ENDBRANCH  12  14
BRANCH   9  17
ATOM     17  C   UNL     1       3.030   1.256  23.083  0.00  0.00    +0.204 C 
BRANCH  17  21
ATOM      6  O   UNL     1       4.069   0.226  21.185  0.00  0.00    -0.274 OA
ATOM     10  N   UNL     1       5.320   0.327  23.136  0.00  0.00    -0.306 N 
ATOM     21  C   UNL     1       4.172   0.559  22.368  0.00  0.00    +0.232 C 
ATOM     25  C   UNL     1       6.504  -0.336  22.593  0.00  0.00    +0.131 C 
ATOM     26  C   UNL     1       5.419   0.730  24.533  0.00  0.00    +0.131 C 
ENDBRANCH  17  21
ENDBRANCH   9  17
ENDBRANCH  15  13
BRANCH  24  11
ATOM     11  N   UNL     1      -5.753   0.385  24.780  0.00  0.00    -0.216 N 
ATOM     34  H   UNL     1      -6.296  -0.449  25.040  0.00  0.00    +0.174 HD
BRANCH  11   1
ATOM      1  S   UNL     1      -6.378   1.892  25.335  0.00  0.00    +0.072 S 
ATOM      7  O   UNL     1      -6.725   1.771  26.738  0.00  0.00    -0.150 OA
ATOM      8  O   UNL     1      -7.356   2.402  24.392  0.00  0.00    -0.150 OA
BRANCH   1  27
ATOM      2  F   UNL     1      -1.615   5.359  25.042  0.00  0.00    -0.205 F 
ATOM     27  C   UNL     1      -4.949   2.933  25.247  0.00  0.00    +0.109 A 
ATOM     28  C   UNL     1      -4.232   3.232  26.406  0.00  0.00    +0.031 A 
ATOM     29  C   UNL     1      -4.538   3.452  24.019  0.00  0.00    +0.031 A 
ATOM     30  C   UNL     1      -3.105   4.051  26.336  0.00  0.00    +0.040 A 
ATOM     31  C   UNL     1      -3.412   4.272  23.950  0.00  0.00    +0.040 A 
ATOM     32  C   UNL     1      -2.696   4.572  25.109  0.00  0.00    +0.124 A 
ENDBRANCH   1  27
ENDBRANCH  11   1
ENDBRANCH  24  11
TORSDOF 8
ENDMDL
MODEL 3
REMARK VINA RESULT:       5.0     15.870     19.053
REMARK  Name = 71693478
REMARK  10 active torsions:
REMARK  status: ('A' for Active; 'I' for Inactive)
REMARK    1  A    between atoms: S_1  and  N_11
REMARK    2  A    between atoms: S_1  and  C_27
REMARK    3  A    between atoms: O_4  and  C_14
REMARK    4  A    between atoms: N_9  and  C_17
REMARK    5  A    between atoms: N_10  and  C_25
REMARK    6  A    between atoms: N_10  and  C_26
REMARK    7  A    between atoms: N_11  and  C_24
REMARK    8  A    between atoms: C_12  and  C_14
REMARK    9  A    between atoms: C_13  and  C_15
REMARK   10  A    between atoms: C_17  and  C_21
REMARK                            x       y       z     vdW  Elec       q    Type
REMARK                         _______ _______ _______ _____ _____    ______ ____
ROOT
ATOM     15  C   UNL     1      -1.838   0.373  23.449  0.00  0.00    -0.017 A 
ATOM     19  C   UNL     1      -2.484  -0.287  24.495  0.00  0.00    +0.008 A 
ATOM     20  C   UNL     1      -2.439   1.478  22.845  0.00  0.00    +0.008 A 
ATOM     22  C   UNL     1      -3.730   0.157  24.937  0.00  0.00    +0.025 A 
ATOM     23  C   UNL     1      -3.685   1.922  23.287  0.00  0.00    +0.025 A 
ATOM     24  C   UNL     1      -4.330   1.262  24.333  0.00  0.00    +0.048 A 
ENDROOT
BRANCH  15  13
ATOM      3  O   UNL     1      -0.485  -0.008  21.546  0.00  0.00    -0.361 OA
ATOM      5  O   UNL     1       2.987  -0.417  20.857  0.00  0.00    -0.273 OA
ATOM      9  N   UNL     1       1.962   0.351  22.805  0.00  0.00    -0.283 N 
ATOM     12  C   UNL     1       0.705   0.712  23.503  0.00  0.00    +0.135 C 
ATOM     13  C   UNL     1      -0.485  -0.109  22.970  0.00  0.00    +0.171 C 
ATOM     16  C   UNL     1       1.973  -0.217  21.529  0.00  0.00    +0.242 C 
ATOM     18  C   UNL     1       0.628  -0.671  20.997  0.00  0.00    +0.256 C 
BRANCH  12  14
ATOM     14  C   UNL     1       0.819   0.571  25.029  0.00  0.00    +0.181 C 
BRANCH  14   4
ATOM      4  O   UNL     1       0.639   1.848  25.604  0.00  0.00    -0.393 OA
ATOM     33  H   UNL     1       0.481   1.717  26.554  0.00  0.00    +0.209 HD
ENDBRANCH  14   4
ENDBRANCH  12  14
BRANCH   9  17
ATOM     17  C   UNL     1       3.223   0.826  23.369  0.00  0.00    +0.204 C 
BRANCH  17  21
ATOM      6  O   UNL     1       3.676  -1.500  23.728  0.00  0.00    -0.274 OA
ATOM     10  N   UNL     1       5.470  -0.043  23.927  0.00  0.00    -0.306 N 
ATOM     21  C   UNL     1       4.126  -0.353  23.687  0.00  0.00    +0.232 C 
ATOM     25  C   UNL     1       6.463  -1.065  24.248  0.00  0.00    +0.131 C 
ATOM     26  C   UNL     1       5.978   1.322  23.873  0.00  0.00    +0.131 C 
ENDBRANCH  17  21
ENDBRANCH   9  17
ENDBRANCH  15  13
BRANCH  24  11
ATOM     11  N   UNL     1      -5.605   1.717  24.786  0.00  0.00    -0.216 N 
ATOM     34  H   UNL     1      -6.286   0.971  24.983  0.00  0.00    +0.174 HD
BRANCH  11   1
ATOM      1  S   UNL     1      -5.675   3.091  25.824  0.00  0.00    +0.072 S 
ATOM      7  O   UNL     1      -5.740   2.641  27.201  0.00  0.00    -0.150 OA
ATOM      8  O   UNL     1      -6.654   4.040  25.328  0.00  0.00    -0.150 OA
BRANCH   1  27
ATOM      2  F   UNL     1      -0.326   5.459  25.052  0.00  0.00    -0.205 F 
ATOM     27  C   UNL     1      -4.070   3.802  25.592  0.00  0.00    +0.109 A 
ATOM     28  C   UNL     1      -3.012   3.419  26.418  0.00  0.00    +0.031 A 
ATOM     29  C   UNL     1      -3.862   4.743  24.583  0.00  0.00    +0.031 A 
ATOM     30  C   UNL     1      -1.747   3.979  26.235  0.00  0.00    +0.040 A 
ATOM     31  C   UNL     1      -2.598   5.302  24.401  0.00  0.00    +0.040 A 
ATOM     32  C   UNL     1      -1.540   4.921  25.227  0.00  0.00    +0.124 A 
ENDBRANCH   1  27
ENDBRANCH  11   1
ENDBRANCH  24  11
TORSDOF 8
ENDMDL
MODEL 4
REMARK VINA RESULT:       5.7     15.653     18.797
REMARK  Name = 71693478
REMARK  10 active torsions:
REMARK  status: ('A' for Active; 'I' for Inactive)
REMARK    1  A    between atoms: S_1  and  N_11
REMARK    2  A    between atoms: S_1  and  C_27
REMARK    3  A    between atoms: O_4  and  C_14
REMARK    4  A    between atoms: N_9  and  C_17
REMARK    5  A    between atoms: N_10  and  C_25
REMARK    6  A    between atoms: N_10  and  C_26
REMARK    7  A    between atoms: N_11  and  C_24
REMARK    8  A    between atoms: C_12  and  C_14
REMARK    9  A    between atoms: C_13  and  C_15
REMARK   10  A    between atoms: C_17  and  C_21
REMARK                            x       y       z     vdW  Elec       q    Type
REMARK                         _______ _______ _______ _____ _____    ______ ____
ROOT
ATOM     15  C   UNL     1      -1.081   0.918  23.598  0.00  0.00    -0.017 A 
ATOM     19  C   UNL     1      -1.274   0.286  24.827  0.00  0.00    +0.008 A 
ATOM     20  C   UNL     1      -2.180   1.349  22.855  0.00  0.00    +0.008 A 
ATOM     22  C   UNL     1      -2.566   0.085  25.312  0.00  0.00    +0.025 A 
ATOM     23  C   UNL     1      -3.472   1.148  23.341  0.00  0.00    +0.025 A 
ATOM     24  C   UNL     1      -3.665   0.517  24.570  0.00  0.00    +0.048 A 
ENDROOT
BRANCH  15  13
ATOM      3  O   UNL     1       0.959   2.062  23.952  0.00  0.00    -0.361 OA
ATOM      5  O   UNL     1       4.354   1.713  22.925  0.00  0.00    -0.273 OA
ATOM      9  N   UNL     1       2.604   0.185  22.737  0.00  0.00    -0.283 N 
ATOM     12  C   UNL     1       1.184  -0.139  23.017  0.00  0.00    +0.135 C 
ATOM     13  C   UNL     1       0.322   1.137  23.071  0.00  0.00    +0.171 C 
ATOM     16  C   UNL     1       3.156   1.435  23.021  0.00  0.00    +0.242 C 
ATOM     18  C   UNL     1       2.171   2.522  23.402  0.00  0.00    +0.256 C 
BRANCH  12  14
ATOM     14  C   UNL     1       0.601  -1.144  22.013  0.00  0.00    +0.181 C 
BRANCH  14   4
ATOM      4  O   UNL     1       0.924  -0.703  20.710  0.00  0.00    -0.393 OA
ATOM     33  H   UNL     1       1.875  -0.856  20.582  0.00  0.00    +0.209 HD
ENDBRANCH  14   4
ENDBRANCH  12  14
BRANCH   9  17
ATOM     17  C   UNL     1       3.502  -0.911  22.381  0.00  0.00    +0.204 C 
BRANCH  17  21
ATOM      6  O   UNL     1       3.613  -2.204  24.397  0.00  0.00    -0.274 OA
ATOM     10  N   UNL     1       5.510  -0.998  23.821  0.00  0.00    -0.306 N 
ATOM     21  C   UNL     1       4.195  -1.439  23.624  0.00  0.00    +0.232 C 
ATOM     25  C   UNL     1       6.310  -1.414  24.971  0.00  0.00    +0.131 C 
ATOM     26  C   UNL     1       6.177  -0.093  22.893  0.00  0.00    +0.131 C 
ENDBRANCH  17  21
ENDBRANCH   9  17
ENDBRANCH  15  13
BRANCH  24  11
ATOM     11  N   UNL     1      -4.987   0.312  25.068  0.00  0.00    -0.216 N 
ATOM     34  H   UNL     1      -5.105  -0.527  25.651  0.00  0.00    +0.174 HD
BRANCH  11   1
ATOM      1  S   UNL     1      -5.922   1.685  25.528  0.00  0.00    +0.072 S 
ATOM      7  O   UNL     1      -6.311   1.546  26.919  0.00  0.00    -0.150 OA
ATOM      8  O   UNL     1      -6.929   1.961  24.522  0.00  0.00    -0.150 OA
BRANCH   1  27
ATOM      2  F   UNL     1      -1.915   6.008  25.299  0.00  0.00    -0.205 F 
ATOM     27  C   UNL     1      -4.719   2.982  25.459  0.00  0.00    +0.109 A 
ATOM     28  C   UNL     1      -4.617   3.779  24.318  0.00  0.00    +0.031 A 
ATOM     29  C   UNL     1      -3.875   3.209  26.546  0.00  0.00    +0.031 A 
ATOM     30  C   UNL     1      -3.670   4.801  24.265  0.00  0.00    +0.040 A 
ATOM     31  C   UNL     1      -2.928   4.231  26.492  0.00  0.00    +0.040 A 
ATOM     32  C   UNL     1      -2.825   5.027  25.351  0.00  0.00    +0.124 A 
ENDBRANCH   1  27
ENDBRANCH  11   1
ENDBRANCH  24  11
TORSDOF 8
ENDMDL
