MODEL 1
REMARK VINA RESULT:      -5.0      0.000      0.000
REMARK  Name = 75537136
REMARK  5 active torsions:
REMARK  status: ('A' for Active; 'I' for Inactive)
REMARK    1  A    between atoms: O_2  and  C_17
REMARK    2  A    between atoms: O_2  and  C_18
REMARK    3  A    between atoms: N_3  and  C_6
REMARK    4  A    between atoms: N_5  and  C_16
REMARK    5  A    between atoms: C_16  and  C_17
REMARK                            x       y       z     vdW  Elec       q    Type
REMARK                         _______ _______ _______ _____ _____    ______ ____
ROOT
ATOM      1  O   UNL     1      -0.592  -2.176  23.953  0.00  0.00    -0.252 OA
ATOM      3  N   UNL     1      -3.785   1.568  25.184  0.00  0.00    -0.296 NA
ATOM      4  N   UNL     1      -1.690  -0.242  24.708  0.00  0.00    -0.278 N 
ATOM      5  N   UNL     1       0.296  -0.008  23.686  0.00  0.00    -0.281 N 
ATOM      7  C   UNL     1      -1.387   1.170  24.822  0.00  0.00    +0.109 C 
ATOM      8  C   UNL     1      -2.600   2.008  24.421  0.00  0.00    +0.108 C 
ATOM     12  C   UNL     1      -4.091   0.149  24.911  0.00  0.00    +0.104 C 
ATOM     13  C   UNL     1      -2.914  -0.754  25.289  0.00  0.00    +0.125 C 
ATOM     14  C   UNL     1      -0.159   1.350  23.932  0.00  0.00    +0.133 C 
ATOM     15  C   UNL     1      -0.653  -0.963  24.101  0.00  0.00    +0.305 C 
ENDROOT
BRANCH   3   6
ATOM      6  C   UNL     1      -4.928   2.385  24.804  0.00  0.00    +0.057 C 
ATOM      9  C   UNL     1      -4.547   3.877  24.910  0.00  0.00    +0.019 C 
ATOM     10  C   UNL     1      -5.830   2.604  26.038  0.00  0.00    +0.019 C 
ATOM     11  C   UNL     1      -5.909   4.087  25.609  0.00  0.00    +0.003 C 
ENDBRANCH   3   6
BRANCH   5  16
ATOM     16  C   UNL     1       1.517  -0.288  22.964  0.00  0.00    +0.137 C 
BRANCH  16  17
ATOM     17  C   UNL     1       2.526   0.835  23.117  0.00  0.00    +0.178 C 
BRANCH  17   2
ATOM      2  O   UNL     1       3.677   0.545  22.336  0.00  0.00    -0.381 OA
ATOM     18  C   UNL     1       4.825   0.348  23.151  0.00  0.00    +0.194 C 
ENDBRANCH  17   2
ENDBRANCH  16  17
ENDBRANCH   5  16
TORSDOF 4
ENDMDL
MODEL 2
REMARK VINA RESULT:      -4.9      1.782      2.426
REMARK  Name = 75537136
REMARK  5 active torsions:
REMARK  status: ('A' for Active; 'I' for Inactive)
REMARK    1  A    between atoms: O_2  and  C_17
REMARK    2  A    between atoms: O_2  and  C_18
REMARK    3  A    between atoms: N_3  and  C_6
REMARK    4  A    between atoms: N_5  and  C_16
REMARK    5  A    between atoms: C_16  and  C_17
REMARK                            x       y       z     vdW  Elec       q    Type
REMARK                         _______ _______ _______ _____ _____    ______ ____
ROOT
ATOM      1  O   UNL     1       0.923   2.153  25.346  0.00  0.00    -0.252 OA
ATOM      3  N   UNL     1      -3.923   3.360  24.463  0.00  0.00    -0.296 NA
ATOM      4  N   UNL     1      -1.214   2.619  24.491  0.00  0.00    -0.278 N 
ATOM      5  N   UNL     1      -0.149   0.786  23.750  0.00  0.00    -0.281 N 
ATOM      7  C   UNL     1      -2.076   2.092  23.453  0.00  0.00    +0.109 C 
ATOM      8  C   UNL     1      -3.524   2.038  23.940  0.00  0.00    +0.108 C 
ATOM     12  C   UNL     1      -3.066   3.761  25.596  0.00  0.00    +0.104 C 
ATOM     13  C   UNL     1      -1.595   3.835  25.180  0.00  0.00    +0.125 C 
ATOM     14  C   UNL     1      -1.458   0.734  23.123  0.00  0.00    +0.133 C 
ATOM     15  C   UNL     1      -0.025   1.889  24.618  0.00  0.00    +0.305 C 
ENDROOT
BRANCH   3   6
ATOM      6  C   UNL     1      -5.308   3.299  24.908  0.00  0.00    +0.057 C 
ATOM      9  C   UNL     1      -5.343   3.080  26.435  0.00  0.00    +0.019 C 
ATOM     10  C   UNL     1      -5.826   1.852  24.763  0.00  0.00    +0.019 C 
ATOM     11  C   UNL     1      -6.439   2.022  26.172  0.00  0.00    +0.003 C 
ENDBRANCH   3   6
BRANCH   5  16
ATOM     16  C   UNL     1       0.821  -0.274  23.586  0.00  0.00    +0.137 C 
BRANCH  16  17
ATOM     17  C   UNL     1       1.765   0.007  22.432  0.00  0.00    +0.178 C 
BRANCH  17   2
ATOM      2  O   UNL     1       3.099  -0.277  22.833  0.00  0.00    -0.381 OA
ATOM     18  C   UNL     1       3.931   0.870  22.724  0.00  0.00    +0.194 C 
ENDBRANCH  17   2
ENDBRANCH  16  17
ENDBRANCH   5  16
TORSDOF 4
ENDMDL
MODEL 3
REMARK VINA RESULT:      -4.5      2.092      3.340
REMARK  Name = 75537136
REMARK  5 active torsions:
REMARK  status: ('A' for Active; 'I' for Inactive)
REMARK    1  A    between atoms: O_2  and  C_17
REMARK    2  A    between atoms: O_2  and  C_18
REMARK    3  A    between atoms: N_3  and  C_6
REMARK    4  A    between atoms: N_5  and  C_16
REMARK    5  A    between atoms: C_16  and  C_17
REMARK                            x       y       z     vdW  Elec       q    Type
REMARK                         _______ _______ _______ _____ _____    ______ ____
ROOT
ATOM      1  O   UNL     1       0.717   2.464  25.746  0.00  0.00    -0.252 OA
ATOM      3  N   UNL     1      -4.155   3.566  24.871  0.00  0.00    -0.296 NA
ATOM      4  N   UNL     1      -1.410   2.970  24.891  0.00  0.00    -0.278 N 
ATOM      5  N   UNL     1      -0.214   1.360  23.881  0.00  0.00    -0.281 N 
ATOM      7  C   UNL     1      -2.201   2.599  23.735  0.00  0.00    +0.109 C 
ATOM      8  C   UNL     1      -3.660   2.384  24.137  0.00  0.00    +0.108 C 
ATOM     12  C   UNL     1      -3.365   3.795  26.097  0.00  0.00    +0.104 C 
ATOM     13  C   UNL     1      -1.886   4.018  25.770  0.00  0.00    +0.125 C 
ATOM     14  C   UNL     1      -1.494   1.359  23.194  0.00  0.00    +0.133 C 
ATOM     15  C   UNL     1      -0.187   2.290  24.939  0.00  0.00    +0.305 C 
ENDROOT
BRANCH   3   6
ATOM      6  C   UNL     1      -5.549   3.354  25.232  0.00  0.00    +0.057 C 
ATOM      9  C   UNL     1      -5.625   2.818  26.678  0.00  0.00    +0.019 C 
ATOM     10  C   UNL     1      -5.988   1.949  24.767  0.00  0.00    +0.019 C 
ATOM     11  C   UNL     1      -6.656   1.794  26.152  0.00  0.00    +0.003 C 
ENDBRANCH   3   6
BRANCH   5  16
ATOM     16  C   UNL     1       0.822   0.399  23.574  0.00  0.00    +0.137 C 
BRANCH  16  17
ATOM     17  C   UNL     1       0.312  -1.026  23.684  0.00  0.00    +0.178 C 
BRANCH  17   2
ATOM      2  O   UNL     1      -0.298  -1.212  24.954  0.00  0.00    -0.381 OA
ATOM     18  C   UNL     1      -1.515  -1.937  24.846  0.00  0.00    +0.194 C 
ENDBRANCH  17   2
ENDBRANCH  16  17
ENDBRANCH   5  16
TORSDOF 4
ENDMDL
MODEL 4
REMARK VINA RESULT:      -4.4     14.792     16.775
REMARK  Name = 75537136
REMARK  5 active torsions:
REMARK  status: ('A' for Active; 'I' for Inactive)
REMARK    1  A    between atoms: O_2  and  C_17
REMARK    2  A    between atoms: O_2  and  C_18
REMARK    3  A    between atoms: N_3  and  C_6
REMARK    4  A    between atoms: N_5  and  C_16
REMARK    5  A    between atoms: C_16  and  C_17
REMARK                            x       y       z     vdW  Elec       q    Type
REMARK                         _______ _______ _______ _____ _____    ______ ____
ROOT
ATOM      1  O   UNL     1      -4.669  -9.865  16.785  0.00  0.00    -0.252 OA
ATOM      3  N   UNL     1      -5.292 -10.611  11.807  0.00  0.00    -0.296 NA
ATOM      4  N   UNL     1      -5.320 -10.476  14.613  0.00  0.00    -0.278 N 
ATOM      5  N   UNL     1      -6.917  -9.879  16.074  0.00  0.00    -0.281 N 
ATOM      7  C   UNL     1      -6.563 -10.712  13.908  0.00  0.00    +0.109 C 
ATOM      8  C   UNL     1      -6.498 -10.118  12.502  0.00  0.00    +0.108 C 
ATOM     12  C   UNL     1      -4.068 -10.219  12.533  0.00  0.00    +0.104 C 
ATOM     13  C   UNL     1      -4.064 -10.780  13.958  0.00  0.00    +0.125 C 
ATOM     14  C   UNL     1      -7.620 -10.092  14.820  0.00  0.00    +0.133 C 
ATOM     15  C   UNL     1      -5.526 -10.054  15.932  0.00  0.00    +0.305 C 
ENDROOT
BRANCH   3   6
ATOM      6  C   UNL     1      -5.252 -10.051  10.465  0.00  0.00    +0.057 C 
ATOM      9  C   UNL     1      -3.848 -10.269   9.862  0.00  0.00    +0.019 C 
ATOM     10  C   UNL     1      -4.902  -8.550  10.549  0.00  0.00    +0.019 C 
ATOM     11  C   UNL     1      -3.920  -8.802   9.382  0.00  0.00    +0.003 C 
ENDBRANCH   3   6
BRANCH   5  16
ATOM     16  C   UNL     1      -7.593  -9.401  17.260  0.00  0.00    +0.137 C 
BRANCH  16  17
ATOM     17  C   UNL     1      -9.085  -9.247  17.028  0.00  0.00    +0.178 C 
BRANCH  17   2
ATOM      2  O   UNL     1      -9.487  -7.934  17.392  0.00  0.00    -0.381 OA
ATOM     18  C   UNL     1     -10.128  -7.266  16.313  0.00  0.00    +0.194 C 
ENDBRANCH  17   2
ENDBRANCH  16  17
ENDBRANCH   5  16
TORSDOF 4
ENDMDL
MODEL 5
REMARK VINA RESULT:      -3.9     13.843     17.988
REMARK  Name = 75537136
REMARK  5 active torsions:
REMARK  status: ('A' for Active; 'I' for Inactive)
REMARK    1  A    between atoms: O_2  and  C_17
REMARK    2  A    between atoms: O_2  and  C_18
REMARK    3  A    between atoms: N_3  and  C_6
REMARK    4  A    between atoms: N_5  and  C_16
REMARK    5  A    between atoms: C_16  and  C_17
REMARK                            x       y       z     vdW  Elec       q    Type
REMARK                         _______ _______ _______ _____ _____    ______ ____
ROOT
ATOM      1  O   UNL     1      10.745   8.550  19.139  0.00  0.00    -0.252 OA
ATOM      3  N   UNL     1      15.777   8.315  19.730  0.00  0.00    -0.296 NA
ATOM      4  N   UNL     1      13.005   8.770  19.738  0.00  0.00    -0.278 N 
ATOM      5  N   UNL     1      11.473   8.688  21.378  0.00  0.00    -0.281 N 
ATOM      7  C   UNL     1      13.759   9.004  20.953  0.00  0.00    +0.109 C 
ATOM      8  C   UNL     1      15.011   8.127  20.978  0.00  0.00    +0.108 C 
ATOM     12  C   UNL     1      14.970   7.936  18.553  0.00  0.00    +0.104 C 
ATOM     13  C   UNL     1      13.693   8.777  18.463  0.00  0.00    +0.125 C 
ATOM     14  C   UNL     1      12.753   8.719  22.066  0.00  0.00    +0.133 C 
ATOM     15  C   UNL     1      11.630   8.660  19.978  0.00  0.00    +0.305 C 
ENDROOT
BRANCH   3   6
ATOM      6  C   UNL     1      16.974   7.488  19.775  0.00  0.00    +0.057 C 
ATOM      9  C   UNL     1      16.729   6.193  18.971  0.00  0.00    +0.019 C 
ATOM     10  C   UNL     1      16.941   6.615  21.048  0.00  0.00    +0.019 C 
ATOM     11  C   UNL     1      17.387   5.439  20.149  0.00  0.00    +0.003 C 
ENDBRANCH   3   6
BRANCH   5  16
ATOM     16  C   UNL     1      10.223   8.552  22.092  0.00  0.00    +0.137 C 
BRANCH  16  17
ATOM     17  C   UNL     1       9.858   7.095  22.306  0.00  0.00    +0.178 C 
BRANCH  17   2
ATOM      2  O   UNL     1      10.605   6.285  21.410  0.00  0.00    -0.381 OA
ATOM     18  C   UNL     1      10.588   4.919  21.805  0.00  0.00    +0.194 C 
ENDBRANCH  17   2
ENDBRANCH  16  17
ENDBRANCH   5  16
TORSDOF 4
ENDMDL
MODEL 6
REMARK VINA RESULT:      -3.8      2.712      5.623
REMARK  Name = 75537136
REMARK  5 active torsions:
REMARK  status: ('A' for Active; 'I' for Inactive)
REMARK    1  A    between atoms: O_2  and  C_17
REMARK    2  A    between atoms: O_2  and  C_18
REMARK    3  A    between atoms: N_3  and  C_6
REMARK    4  A    between atoms: N_5  and  C_16
REMARK    5  A    between atoms: C_16  and  C_17
REMARK                            x       y       z     vdW  Elec       q    Type
REMARK                         _______ _______ _______ _____ _____    ______ ____
ROOT
ATOM      1  O   UNL     1       0.082   3.411  23.100  0.00  0.00    -0.252 OA
ATOM      3  N   UNL     1      -0.771  -1.112  25.232  0.00  0.00    -0.296 NA
ATOM      4  N   UNL     1      -0.185   1.532  24.483  0.00  0.00    -0.278 N 
ATOM      5  N   UNL     1      -0.961   3.508  25.213  0.00  0.00    -0.281 N 
ATOM      7  C   UNL     1      -0.639   1.268  25.833  0.00  0.00    +0.109 C 
ATOM      8  C   UNL     1      -1.499   0.005  25.868  0.00  0.00    +0.108 C 
ATOM     12  C   UNL     1      -0.457  -0.802  23.822  0.00  0.00    +0.104 C 
ATOM     13  C   UNL     1       0.405   0.458  23.710  0.00  0.00    +0.125 C 
ATOM     14  C   UNL     1      -1.366   2.551  26.229  0.00  0.00    +0.133 C 
ATOM     15  C   UNL     1      -0.302   2.883  24.136  0.00  0.00    +0.305 C 
ENDROOT
BRANCH   3   6
ATOM      6  C   UNL     1      -1.594  -2.311  25.286  0.00  0.00    +0.057 C 
ATOM      9  C   UNL     1      -2.104  -2.644  23.868  0.00  0.00    +0.019 C 
ATOM     10  C   UNL     1      -3.045  -1.917  25.636  0.00  0.00    +0.019 C 
ATOM     11  C   UNL     1      -3.486  -2.887  24.516  0.00  0.00    +0.003 C 
ENDBRANCH   3   6
BRANCH   5  16
ATOM     16  C   UNL     1      -1.345   4.901  25.277  0.00  0.00    +0.137 C 
BRANCH  16  17
ATOM     17  C   UNL     1      -2.832   5.060  25.532  0.00  0.00    +0.178 C 
BRANCH  17   2
ATOM      2  O   UNL     1      -3.557   4.248  24.619  0.00  0.00    -0.381 OA
ATOM     18  C   UNL     1      -4.671   3.625  25.245  0.00  0.00    +0.194 C 
ENDBRANCH  17   2
ENDBRANCH  16  17
ENDBRANCH   5  16
TORSDOF 4
ENDMDL
MODEL 7
REMARK VINA RESULT:      -3.5      3.309      5.085
REMARK  Name = 75537136
REMARK  5 active torsions:
REMARK  status: ('A' for Active; 'I' for Inactive)
REMARK    1  A    between atoms: O_2  and  C_17
REMARK    2  A    between atoms: O_2  and  C_18
REMARK    3  A    between atoms: N_3  and  C_6
REMARK    4  A    between atoms: N_5  and  C_16
REMARK    5  A    between atoms: C_16  and  C_17
REMARK                            x       y       z     vdW  Elec       q    Type
REMARK                         _______ _______ _______ _____ _____    ______ ____
ROOT
ATOM      1  O   UNL     1      -4.277   3.902  26.267  0.00  0.00    -0.252 OA
ATOM      3  N   UNL     1      -4.085  -0.615  23.967  0.00  0.00    -0.296 NA
ATOM      4  N   UNL     1      -4.146   2.064  24.811  0.00  0.00    -0.278 N 
ATOM      5  N   UNL     1      -2.721   3.772  24.499  0.00  0.00    -0.281 N 
ATOM      7  C   UNL     1      -3.434   1.726  23.595  0.00  0.00    +0.109 C 
ATOM      8  C   UNL     1      -2.952   0.277  23.647  0.00  0.00    +0.108 C 
ATOM     12  C   UNL     1      -4.672  -0.273  25.278  0.00  0.00    +0.104 C 
ATOM     13  C   UNL     1      -5.177   1.172  25.300  0.00  0.00    +0.125 C 
ATOM     14  C   UNL     1      -2.322   2.771  23.524  0.00  0.00    +0.133 C 
ATOM     15  C   UNL     1      -3.781   3.321  25.311  0.00  0.00    +0.305 C 
ENDROOT
BRANCH   3   6
ATOM      6  C   UNL     1      -3.616  -1.992  23.997  0.00  0.00    +0.057 C 
ATOM      9  C   UNL     1      -3.492  -2.457  25.464  0.00  0.00    +0.019 C 
ATOM     10  C   UNL     1      -2.073  -2.005  23.940  0.00  0.00    +0.019 C 
ATOM     11  C   UNL     1      -2.127  -3.063  25.066  0.00  0.00    +0.003 C 
ENDBRANCH   3   6
BRANCH   5  16
ATOM     16  C   UNL     1      -1.988   5.006  24.674  0.00  0.00    +0.137 C 
BRANCH  16  17
ATOM     17  C   UNL     1      -0.533   4.748  25.016  0.00  0.00    +0.178 C 
BRANCH  17   2
ATOM      2  O   UNL     1      -0.454   3.733  26.007  0.00  0.00    -0.381 OA
ATOM     18  C   UNL     1       0.282   2.608  25.544  0.00  0.00    +0.194 C 
ENDBRANCH  17   2
ENDBRANCH  16  17
ENDBRANCH   5  16
TORSDOF 4
ENDMDL
MODEL 8
REMARK VINA RESULT:      -3.5      2.553      6.101
REMARK  Name = 75537136
REMARK  5 active torsions:
REMARK  status: ('A' for Active; 'I' for Inactive)
REMARK    1  A    between atoms: O_2  and  C_17
REMARK    2  A    between atoms: O_2  and  C_18
REMARK    3  A    between atoms: N_3  and  C_6
REMARK    4  A    between atoms: N_5  and  C_16
REMARK    5  A    between atoms: C_16  and  C_17
REMARK                            x       y       z     vdW  Elec       q    Type
REMARK                         _______ _______ _______ _____ _____    ______ ____
ROOT
ATOM      1  O   UNL     1      -4.439  -0.312  25.734  0.00  0.00    -0.252 OA
ATOM      3  N   UNL     1       0.102  -0.413  23.476  0.00  0.00    -0.296 NA
ATOM      4  N   UNL     1      -2.567  -0.178  24.323  0.00  0.00    -0.278 N 
ATOM      5  N   UNL     1      -3.974   1.570  24.390  0.00  0.00    -0.281 N 
ATOM      7  C   UNL     1      -2.068   0.729  23.309  0.00  0.00    +0.109 C 
ATOM      8  C   UNL     1      -0.557   0.908  23.452  0.00  0.00    +0.108 C 
ATOM     12  C   UNL     1      -0.380  -1.223  24.614  0.00  0.00    +0.104 C 
ATOM     13  C   UNL     1      -1.893  -1.443  24.537  0.00  0.00    +0.125 C 
ATOM     14  C   UNL     1      -2.889   1.999  23.524  0.00  0.00    +0.133 C 
ATOM     15  C   UNL     1      -3.749   0.282  24.916  0.00  0.00    +0.305 C 
ENDROOT
BRANCH   3   6
ATOM      6  C   UNL     1       1.540  -0.228  23.596  0.00  0.00    +0.057 C 
ATOM      9  C   UNL     1       1.858   1.283  23.630  0.00  0.00    +0.019 C 
ATOM     10  C   UNL     1       2.176  -0.255  22.190  0.00  0.00    +0.019 C 
ATOM     11  C   UNL     1       2.999   0.977  22.633  0.00  0.00    +0.003 C 
ENDBRANCH   3   6
BRANCH   5  16
ATOM     16  C   UNL     1      -5.058   2.455  24.755  0.00  0.00    +0.137 C 
BRANCH  16  17
ATOM     17  C   UNL     1      -4.556   3.850  25.077  0.00  0.00    +0.178 C 
BRANCH  17   2
ATOM      2  O   UNL     1      -3.679   3.790  26.193  0.00  0.00    -0.381 OA
ATOM     18  C   UNL     1      -2.423   4.389  25.903  0.00  0.00    +0.194 C 
ENDBRANCH  17   2
ENDBRANCH  16  17
ENDBRANCH   5  16
TORSDOF 4
ENDMDL
MODEL 9
REMARK VINA RESULT:      -3.4     16.186     17.609
REMARK  Name = 75537136
REMARK  5 active torsions:
REMARK  status: ('A' for Active; 'I' for Inactive)
REMARK    1  A    between atoms: O_2  and  C_17
REMARK    2  A    between atoms: O_2  and  C_18
REMARK    3  A    between atoms: N_3  and  C_6
REMARK    4  A    between atoms: N_5  and  C_16
REMARK    5  A    between atoms: C_16  and  C_17
REMARK                            x       y       z     vdW  Elec       q    Type
REMARK                         _______ _______ _______ _____ _____    ______ ____
ROOT
ATOM      1  O   UNL     1      -2.034  -9.875  12.689  0.00  0.00    -0.252 OA
ATOM      3  N   UNL     1      -5.684  -9.813   9.168  0.00  0.00    -0.296 NA
ATOM      4  N   UNL     1      -3.860 -10.246  11.260  0.00  0.00    -0.278 N 
ATOM      5  N   UNL     1      -4.149 -10.574  13.463  0.00  0.00    -0.281 N 
ATOM      7  C   UNL     1      -5.202 -10.780  11.376  0.00  0.00    +0.109 C 
ATOM      8  C   UNL     1      -6.180  -9.942  10.553  0.00  0.00    +0.108 C 
ATOM     12  C   UNL     1      -4.366  -9.148   9.140  0.00  0.00    +0.104 C 
ATOM     13  C   UNL     1      -3.331  -9.935   9.948  0.00  0.00    +0.125 C 
ATOM     14  C   UNL     1      -5.464 -10.781  12.881  0.00  0.00    +0.133 C 
ATOM     15  C   UNL     1      -3.199 -10.195  12.494  0.00  0.00    +0.305 C 
ENDROOT
BRANCH   3   6
ATOM      6  C   UNL     1      -6.633  -9.027   8.393  0.00  0.00    +0.057 C 
ATOM      9  C   UNL     1      -7.034  -7.772   9.198  0.00  0.00    +0.019 C 
ATOM     10  C   UNL     1      -8.061  -9.556   8.647  0.00  0.00    +0.019 C 
ATOM     11  C   UNL     1      -8.491  -8.078   8.783  0.00  0.00    +0.003 C 
ENDBRANCH   3   6
BRANCH   5  16
ATOM     16  C   UNL     1      -3.929 -10.617  14.892  0.00  0.00    +0.137 C 
BRANCH  16  17
ATOM     17  C   UNL     1      -5.238 -10.628  15.659  0.00  0.00    +0.178 C 
BRANCH  17   2
ATOM      2  O   UNL     1      -5.009 -10.189  16.991  0.00  0.00    -0.381 OA
ATOM     18  C   UNL     1      -6.154 -10.387  17.810  0.00  0.00    +0.194 C 
ENDBRANCH  17   2
ENDBRANCH  16  17
ENDBRANCH   5  16
TORSDOF 4
ENDMDL
MODEL 10
REMARK VINA RESULT:      -3.3     17.906     19.384
REMARK  Name = 75537136
REMARK  5 active torsions:
REMARK  status: ('A' for Active; 'I' for Inactive)
REMARK    1  A    between atoms: O_2  and  C_17
REMARK    2  A    between atoms: O_2  and  C_18
REMARK    3  A    between atoms: N_3  and  C_6
REMARK    4  A    between atoms: N_5  and  C_16
REMARK    5  A    between atoms: C_16  and  C_17
REMARK                            x       y       z     vdW  Elec       q    Type
REMARK                         _______ _______ _______ _____ _____    ______ ____
ROOT
ATOM      1  O   UNL     1      16.523  -8.721  25.179  0.00  0.00    -0.252 OA
ATOM      3  N   UNL     1      15.475  -7.497  29.988  0.00  0.00    -0.296 NA
ATOM      4  N   UNL     1      16.448  -7.929  27.388  0.00  0.00    -0.278 N 
ATOM      5  N   UNL     1      17.102  -6.513  25.773  0.00  0.00    -0.281 N 
ATOM      7  C   UNL     1      16.842  -6.728  28.095  0.00  0.00    +0.109 C 
ATOM      8  C   UNL     1      15.776  -6.341  29.120  0.00  0.00    +0.108 C 
ATOM     12  C   UNL     1      14.965  -8.633  29.195  0.00  0.00    +0.104 C 
ATOM     13  C   UNL     1      15.985  -9.076  28.142  0.00  0.00    +0.125 C 
ATOM     14  C   UNL     1      17.063  -5.707  26.981  0.00  0.00    +0.133 C 
ATOM     15  C   UNL     1      16.676  -7.835  26.010  0.00  0.00    +0.305 C 
ENDROOT
BRANCH   3   6
ATOM      6  C   UNL     1      14.472  -7.110  30.968  0.00  0.00    +0.057 C 
ATOM      9  C   UNL     1      13.098  -7.668  30.540  0.00  0.00    +0.019 C 
ATOM     10  C   UNL     1      13.929  -5.708  30.615  0.00  0.00    +0.019 C 
ATOM     11  C   UNL     1      12.519  -6.279  30.893  0.00  0.00    +0.003 C 
ENDBRANCH   3   6
BRANCH   5  16
ATOM     16  C   UNL     1      17.405  -5.941  24.479  0.00  0.00    +0.137 C 
BRANCH  16  17
ATOM     17  C   UNL     1      17.072  -4.462  24.431  0.00  0.00    +0.178 C 
BRANCH  17   2
ATOM      2  O   UNL     1      16.717  -4.101  23.103  0.00  0.00    -0.381 OA
ATOM     18  C   UNL     1      15.944  -2.908  23.076  0.00  0.00    +0.194 C 
ENDBRANCH  17   2
ENDBRANCH  16  17
ENDBRANCH   5  16
TORSDOF 4
ENDMDL
