MODEL 1
REMARK VINA RESULT:      -4.9      0.000      0.000
REMARK  Name = 75536730
REMARK  11 active torsions:
REMARK  status: ('A' for Active; 'I' for Inactive)
REMARK    1  A    between atoms: O_2  and  C_9
REMARK    2  A    between atoms: O_4  and  C_21
REMARK    3  A    between atoms: O_4  and  C_24
REMARK    4  A    between atoms: N_5  and  C_8
REMARK    5  A    between atoms: N_5  and  C_13
REMARK    6  A    between atoms: N_6  and  C_12
REMARK    7  A    between atoms: N_7  and  C_18
REMARK    8  A    between atoms: C_10  and  C_12
REMARK    9  A    between atoms: C_13  and  C_14
REMARK   10  A    between atoms: C_18  and  C_22
REMARK   11  A    between atoms: C_18  and  C_23
REMARK                            x       y       z     vdW  Elec       q    Type
REMARK                         _______ _______ _______ _____ _____    ______ ____
ROOT
ATOM      1  O   UNL     1      -1.862  -0.899  25.770  0.00  0.00    -0.371 OA
ATOM      8  C   UNL     1      -3.939  -1.463  24.784  0.00  0.00    +0.111 C 
ATOM      9  C   UNL     1      -2.856  -2.260  24.078  0.00  0.00    +0.164 C 
ATOM     10  C   UNL     1      -1.542  -1.687  24.608  0.00  0.00    +0.165 C 
ATOM     11  C   UNL     1      -3.249  -1.080  26.083  0.00  0.00    +0.181 C 
ENDROOT
BRANCH   9   2
ATOM      2  O   UNL     1      -2.974  -3.622  24.496  0.00  0.00    -0.388 OA
ATOM     26  H   UNL     1      -2.132  -4.061  24.292  0.00  0.00    +0.210 HD
ENDBRANCH   9   2
BRANCH   8   5
ATOM      5  N   UNL     1      -4.313  -0.271  24.025  0.00  0.00    -0.305 NA
ATOM     25  H   UNL     1      -3.479   0.130  23.595  0.00  0.00    +0.123 HD
BRANCH   5  13
ATOM     13  C   UNL     1      -4.920   0.733  24.890  0.00  0.00    +0.116 C 
BRANCH  13  14
ATOM     14  C   UNL     1      -4.053   1.956  25.023  0.00  0.00    -0.033 A 
ATOM     16  C   UNL     1      -4.454   3.009  25.847  0.00  0.00    +0.008 A 
ATOM     17  C   UNL     1      -2.849   2.038  24.324  0.00  0.00    +0.008 A 
ATOM     19  C   UNL     1      -3.650   4.142  25.971  0.00  0.00    +0.046 A 
ATOM     20  C   UNL     1      -2.046   3.172  24.448  0.00  0.00    +0.046 A 
ATOM     21  C   UNL     1      -2.447   4.223  25.272  0.00  0.00    +0.120 A 
BRANCH  21   4
ATOM      4  O   UNL     1      -1.663   5.329  25.393  0.00  0.00    -0.495 OA
ATOM     24  C   UNL     1      -0.487   5.383  24.585  0.00  0.00    +0.277 C 
ENDBRANCH  21   4
ENDBRANCH  13  14
ENDBRANCH   5  13
ENDBRANCH   8   5
BRANCH  10  12
ATOM     12  C   UNL     1      -0.821  -0.794  23.609  0.00  0.00    +0.140 C 
BRANCH  12   6
ATOM      3  O   UNL     1       1.366  -0.275  21.800  0.00  0.00    -0.253 OA
ATOM      6  N   UNL     1       0.566  -0.647  23.948  0.00  0.00    -0.297 N 
ATOM      7  N   UNL     1       2.821  -0.298  23.606  0.00  0.00    -0.297 N 
ATOM     15  C   UNL     1       1.568  -0.396  23.006  0.00  0.00    +0.300 C 
ATOM     27  H   UNL     1       0.834  -0.738  24.924  0.00  0.00    +0.150 HD
ATOM     28  H   UNL     1       2.896  -0.483  24.601  0.00  0.00    +0.150 HD
BRANCH   7  18
ATOM     18  C   UNL     1       4.028  -0.042  22.856  0.00  0.00    +0.068 C 
ATOM     22  C   UNL     1       4.102   1.423  22.445  0.00  0.00    +0.027 C 
ATOM     23  C   UNL     1       5.251  -0.449  23.668  0.00  0.00    +0.027 C 
ENDBRANCH   7  18
ENDBRANCH  12   6
ENDBRANCH  10  12
TORSDOF 8
ENDMDL
MODEL 2
REMARK VINA RESULT:      -4.7      1.805      4.705
REMARK  Name = 75536730
REMARK  11 active torsions:
REMARK  status: ('A' for Active; 'I' for Inactive)
REMARK    1  A    between atoms: O_2  and  C_9
REMARK    2  A    between atoms: O_4  and  C_21
REMARK    3  A    between atoms: O_4  and  C_24
REMARK    4  A    between atoms: N_5  and  C_8
REMARK    5  A    between atoms: N_5  and  C_13
REMARK    6  A    between atoms: N_6  and  C_12
REMARK    7  A    between atoms: N_7  and  C_18
REMARK    8  A    between atoms: C_10  and  C_12
REMARK    9  A    between atoms: C_13  and  C_14
REMARK   10  A    between atoms: C_18  and  C_22
REMARK   11  A    between atoms: C_18  and  C_23
REMARK                            x       y       z     vdW  Elec       q    Type
REMARK                         _______ _______ _______ _____ _____    ______ ____
ROOT
ATOM      1  O   UNL     1      -0.597   4.278  25.367  0.00  0.00    -0.371 OA
ATOM      8  C   UNL     1      -2.910   4.625  24.996  0.00  0.00    +0.111 C 
ATOM      9  C   UNL     1      -2.763   3.665  26.164  0.00  0.00    +0.164 C 
ATOM     10  C   UNL     1      -1.275   3.320  26.202  0.00  0.00    +0.165 C 
ATOM     11  C   UNL     1      -1.538   5.278  24.955  0.00  0.00    +0.181 C 
ENDROOT
BRANCH   9   2
ATOM      2  O   UNL     1      -3.108   4.374  27.357  0.00  0.00    -0.388 OA
ATOM     26  H   UNL     1      -2.475   4.108  28.045  0.00  0.00    +0.210 HD
ENDBRANCH   9   2
BRANCH   8   5
ATOM      5  N   UNL     1      -3.184   3.917  23.748  0.00  0.00    -0.305 NA
ATOM     25  H   UNL     1      -3.280   4.595  22.990  0.00  0.00    +0.123 HD
BRANCH   5  13
ATOM     13  C   UNL     1      -4.418   3.147  23.841  0.00  0.00    +0.116 C 
BRANCH  13  14
ATOM     14  C   UNL     1      -4.151   1.690  24.113  0.00  0.00    -0.033 A 
ATOM     16  C   UNL     1      -4.753   1.062  25.204  0.00  0.00    +0.008 A 
ATOM     17  C   UNL     1      -3.302   0.968  23.275  0.00  0.00    +0.008 A 
ATOM     19  C   UNL     1      -4.506  -0.287  25.456  0.00  0.00    +0.046 A 
ATOM     20  C   UNL     1      -3.055  -0.381  23.526  0.00  0.00    +0.046 A 
ATOM     21  C   UNL     1      -3.657  -1.008  24.617  0.00  0.00    +0.120 A 
BRANCH  21   4
ATOM      4  O   UNL     1      -3.416  -2.325  24.862  0.00  0.00    -0.495 OA
ATOM     24  C   UNL     1      -2.159  -2.846  24.430  0.00  0.00    +0.277 C 
ENDBRANCH  21   4
ENDBRANCH  13  14
ENDBRANCH   5  13
ENDBRANCH   8   5
BRANCH  10  12
ATOM     12  C   UNL     1      -0.961   1.926  25.680  0.00  0.00    +0.140 C 
BRANCH  12   6
ATOM      3  O   UNL     1       0.182  -0.318  24.271  0.00  0.00    -0.253 OA
ATOM      6  N   UNL     1       0.206   1.933  24.844  0.00  0.00    -0.297 N 
ATOM      7  N   UNL     1       1.837   1.085  23.450  0.00  0.00    -0.297 N 
ATOM     15  C   UNL     1       0.697   0.796  24.194  0.00  0.00    +0.300 C 
ATOM     27  H   UNL     1       0.706   2.809  24.725  0.00  0.00    +0.150 HD
ATOM     28  H   UNL     1       2.227   2.020  23.507  0.00  0.00    +0.150 HD
BRANCH   7  18
ATOM     18  C   UNL     1       2.543   0.086  22.682  0.00  0.00    +0.068 C 
ATOM     22  C   UNL     1       1.728  -0.323  21.461  0.00  0.00    +0.027 C 
ATOM     23  C   UNL     1       3.918   0.602  22.279  0.00  0.00    +0.027 C 
ENDBRANCH   7  18
ENDBRANCH  12   6
ENDBRANCH  10  12
TORSDOF 8
ENDMDL
MODEL 3
REMARK VINA RESULT:      -4.7      1.648      4.809
REMARK  Name = 75536730
REMARK  11 active torsions:
REMARK  status: ('A' for Active; 'I' for Inactive)
REMARK    1  A    between atoms: O_2  and  C_9
REMARK    2  A    between atoms: O_4  and  C_21
REMARK    3  A    between atoms: O_4  and  C_24
REMARK    4  A    between atoms: N_5  and  C_8
REMARK    5  A    between atoms: N_5  and  C_13
REMARK    6  A    between atoms: N_6  and  C_12
REMARK    7  A    between atoms: N_7  and  C_18
REMARK    8  A    between atoms: C_10  and  C_12
REMARK    9  A    between atoms: C_13  and  C_14
REMARK   10  A    between atoms: C_18  and  C_22
REMARK   11  A    between atoms: C_18  and  C_23
REMARK                            x       y       z     vdW  Elec       q    Type
REMARK                         _______ _______ _______ _____ _____    ______ ____
ROOT
ATOM      1  O   UNL     1      -2.352   2.883  23.612  0.00  0.00    -0.371 OA
ATOM      8  C   UNL     1      -3.817   3.897  25.171  0.00  0.00    +0.111 C 
ATOM      9  C   UNL     1      -2.401   4.331  25.510  0.00  0.00    +0.164 C 
ATOM     10  C   UNL     1      -1.506   3.476  24.615  0.00  0.00    +0.165 C 
ATOM     11  C   UNL     1      -3.666   3.441  23.729  0.00  0.00    +0.181 C 
ENDROOT
BRANCH   9   2
ATOM      2  O   UNL     1      -2.264   5.703  25.131  0.00  0.00    -0.388 OA
ATOM     26  H   UNL     1      -2.013   6.200  25.927  0.00  0.00    +0.210 HD
ENDBRANCH   9   2
BRANCH   8   5
ATOM      5  N   UNL     1      -4.259   2.793  26.020  0.00  0.00    -0.305 NA
ATOM     25  H   UNL     1      -3.443   2.299  26.383  0.00  0.00    +0.123 HD
BRANCH   5  13
ATOM     13  C   UNL     1      -5.079   1.850  25.270  0.00  0.00    +0.116 C 
BRANCH  13  14
ATOM     14  C   UNL     1      -4.364   0.545  25.038  0.00  0.00    -0.033 A 
ATOM     16  C   UNL     1      -4.856  -0.363  24.100  0.00  0.00    +0.008 A 
ATOM     17  C   UNL     1      -3.209   0.245  25.760  0.00  0.00    +0.008 A 
ATOM     19  C   UNL     1      -4.192  -1.571  23.884  0.00  0.00    +0.046 A 
ATOM     20  C   UNL     1      -2.546  -0.963  25.545  0.00  0.00    +0.046 A 
ATOM     21  C   UNL     1      -3.038  -1.871  24.607  0.00  0.00    +0.120 A 
BRANCH  21   4
ATOM      4  O   UNL     1      -2.391  -3.049  24.397  0.00  0.00    -0.495 OA
ATOM     24  C   UNL     1      -0.966  -3.030  24.476  0.00  0.00    +0.277 C 
ENDBRANCH  21   4
ENDBRANCH  13  14
ENDBRANCH   5  13
ENDBRANCH   8   5
BRANCH  10  12
ATOM     12  C   UNL     1      -0.793   2.357  25.360  0.00  0.00    +0.140 C 
BRANCH  12   6
ATOM      3  O   UNL     1       0.022   0.201  23.625  0.00  0.00    -0.253 OA
ATOM      6  N   UNL     1       0.518   2.126  24.825  0.00  0.00    -0.297 N 
ATOM      7  N   UNL     1       2.173   1.068  23.615  0.00  0.00    -0.297 N 
ATOM     15  C   UNL     1       0.832   1.052  23.987  0.00  0.00    +0.300 C 
ATOM     27  H   UNL     1       1.260   2.774  25.075  0.00  0.00    +0.150 HD
ATOM     28  H   UNL     1       2.780   1.772  24.023  0.00  0.00    +0.150 HD
BRANCH   7  18
ATOM     18  C   UNL     1       2.757   0.068  22.752  0.00  0.00    +0.068 C 
ATOM     22  C   UNL     1       1.834  -0.227  21.576  0.00  0.00    +0.027 C 
ATOM     23  C   UNL     1       4.132   0.518  22.274  0.00  0.00    +0.027 C 
ENDBRANCH   7  18
ENDBRANCH  12   6
ENDBRANCH  10  12
TORSDOF 8
ENDMDL
MODEL 4
REMARK VINA RESULT:      -3.9      2.050      6.370
REMARK  Name = 75536730
REMARK  11 active torsions:
REMARK  status: ('A' for Active; 'I' for Inactive)
REMARK    1  A    between atoms: O_2  and  C_9
REMARK    2  A    between atoms: O_4  and  C_21
REMARK    3  A    between atoms: O_4  and  C_24
REMARK    4  A    between atoms: N_5  and  C_8
REMARK    5  A    between atoms: N_5  and  C_13
REMARK    6  A    between atoms: N_6  and  C_12
REMARK    7  A    between atoms: N_7  and  C_18
REMARK    8  A    between atoms: C_10  and  C_12
REMARK    9  A    between atoms: C_13  and  C_14
REMARK   10  A    between atoms: C_18  and  C_22
REMARK   11  A    between atoms: C_18  and  C_23
REMARK                            x       y       z     vdW  Elec       q    Type
REMARK                         _______ _______ _______ _____ _____    ______ ____
ROOT
ATOM      1  O   UNL     1      -3.740   3.857  26.161  0.00  0.00    -0.371 OA
ATOM      8  C   UNL     1      -2.167   3.211  24.514  0.00  0.00    +0.111 C 
ATOM      9  C   UNL     1      -3.557   3.019  23.933  0.00  0.00    +0.164 C 
ATOM     10  C   UNL     1      -4.507   3.240  25.109  0.00  0.00    +0.165 C 
ATOM     11  C   UNL     1      -2.438   4.176  25.657  0.00  0.00    +0.181 C 
ENDROOT
BRANCH   9   2
ATOM      2  O   UNL     1      -3.770   4.047  22.962  0.00  0.00    -0.388 OA
ATOM     26  H   UNL     1      -2.907   4.454  22.778  0.00  0.00    +0.210 HD
ENDBRANCH   9   2
BRANCH   8   5
ATOM      5  N   UNL     1      -1.615   1.955  25.016  0.00  0.00    -0.305 NA
ATOM     25  H   UNL     1      -0.696   2.130  25.424  0.00  0.00    +0.123 HD
BRANCH   5  13
ATOM     13  C   UNL     1      -1.470   0.978  23.944  0.00  0.00    +0.116 C 
BRANCH  13  14
ATOM     14  C   UNL     1      -0.033   0.809  23.530  0.00  0.00    -0.033 A 
ATOM     16  C   UNL     1       0.342  -0.277  22.738  0.00  0.00    +0.008 A 
ATOM     17  C   UNL     1       0.925   1.737  23.938  0.00  0.00    +0.008 A 
ATOM     19  C   UNL     1       1.673  -0.434  22.354  0.00  0.00    +0.046 A 
ATOM     20  C   UNL     1       2.257   1.580  23.554  0.00  0.00    +0.046 A 
ATOM     21  C   UNL     1       2.630   0.494  22.762  0.00  0.00    +0.120 A 
BRANCH  21   4
ATOM      4  O   UNL     1       3.929   0.342  22.387  0.00  0.00    -0.495 OA
ATOM     24  C   UNL     1       4.917   0.433  23.414  0.00  0.00    +0.277 C 
ENDBRANCH  21   4
ENDBRANCH  13  14
ENDBRANCH   5  13
ENDBRANCH   8   5
BRANCH  10  12
ATOM     12  C   UNL     1      -5.113   1.955  25.652  0.00  0.00    +0.140 C 
BRANCH  12   6
ATOM      3  O   UNL     1      -3.978  -0.573  26.454  0.00  0.00    -0.253 OA
ATOM      6  N   UNL     1      -4.809   0.837  24.806  0.00  0.00    -0.297 N 
ATOM      7  N   UNL     1      -4.063  -1.274  24.245  0.00  0.00    -0.297 N 
ATOM     15  C   UNL     1      -4.256  -0.359  25.276  0.00  0.00    +0.300 C 
ATOM     27  H   UNL     1      -4.997   0.922  23.811  0.00  0.00    +0.150 HD
ATOM     28  H   UNL     1      -4.258  -0.978  23.293  0.00  0.00    +0.150 HD
BRANCH   7  18
ATOM     18  C   UNL     1      -3.505  -2.588  24.460  0.00  0.00    +0.068 C 
ATOM     22  C   UNL     1      -4.090  -3.586  23.468  0.00  0.00    +0.027 C 
ATOM     23  C   UNL     1      -1.986  -2.541  24.364  0.00  0.00    +0.027 C 
ENDBRANCH   7  18
ENDBRANCH  12   6
ENDBRANCH  10  12
TORSDOF 8
ENDMDL
MODEL 5
REMARK VINA RESULT:      -3.8      2.394      6.372
REMARK  Name = 75536730
REMARK  11 active torsions:
REMARK  status: ('A' for Active; 'I' for Inactive)
REMARK    1  A    between atoms: O_2  and  C_9
REMARK    2  A    between atoms: O_4  and  C_21
REMARK    3  A    between atoms: O_4  and  C_24
REMARK    4  A    between atoms: N_5  and  C_8
REMARK    5  A    between atoms: N_5  and  C_13
REMARK    6  A    between atoms: N_6  and  C_12
REMARK    7  A    between atoms: N_7  and  C_18
REMARK    8  A    between atoms: C_10  and  C_12
REMARK    9  A    between atoms: C_13  and  C_14
REMARK   10  A    between atoms: C_18  and  C_22
REMARK   11  A    between atoms: C_18  and  C_23
REMARK                            x       y       z     vdW  Elec       q    Type
REMARK                         _______ _______ _______ _____ _____    ______ ____
ROOT
ATOM      1  O   UNL     1      -4.362   4.208  25.495  0.00  0.00    -0.371 OA
ATOM      8  C   UNL     1      -2.201   3.418  26.052  0.00  0.00    +0.111 C 
ATOM      9  C   UNL     1      -2.099   4.164  24.733  0.00  0.00    +0.164 C 
ATOM     10  C   UNL     1      -3.546   4.448  24.333  0.00  0.00    +0.165 C 
ATOM     11  C   UNL     1      -3.505   3.957  26.616  0.00  0.00    +0.181 C 
ENDROOT
BRANCH   9   2
ATOM      2  O   UNL     1      -1.433   5.404  24.985  0.00  0.00    -0.388 OA
ATOM     26  H   UNL     1      -1.923   6.098  24.513  0.00  0.00    +0.210 HD
ENDBRANCH   9   2
BRANCH   8   5
ATOM      5  N   UNL     1      -2.282   1.973  25.849  0.00  0.00    -0.305 NA
ATOM     25  H   UNL     1      -3.048   1.597  26.408  0.00  0.00    +0.123 HD
BRANCH   5  13
ATOM     13  C   UNL     1      -1.045   1.316  26.252  0.00  0.00    +0.116 C 
BRANCH  13  14
ATOM     14  C   UNL     1      -0.203   0.928  25.066  0.00  0.00    -0.033 A 
ATOM     16  C   UNL     1       0.696   1.844  24.519  0.00  0.00    +0.008 A 
ATOM     17  C   UNL     1      -0.321  -0.347  24.514  0.00  0.00    +0.008 A 
ATOM     19  C   UNL     1       1.477   1.484  23.420  0.00  0.00    +0.046 A 
ATOM     20  C   UNL     1       0.459  -0.708  23.415  0.00  0.00    +0.046 A 
ATOM     21  C   UNL     1       1.358   0.209  22.869  0.00  0.00    +0.120 A 
BRANCH  21   4
ATOM      4  O   UNL     1       2.120  -0.143  21.797  0.00  0.00    -0.495 OA
ATOM     24  C   UNL     1       3.486   0.271  21.808  0.00  0.00    +0.277 C 
ENDBRANCH  21   4
ENDBRANCH  13  14
ENDBRANCH   5  13
ENDBRANCH   8   5
BRANCH  10  12
ATOM     12  C   UNL     1      -4.049   3.561  23.204  0.00  0.00    +0.140 C 
BRANCH  12   6
ATOM      3  O   UNL     1      -5.376   1.425  24.619  0.00  0.00    -0.253 OA
ATOM      6  N   UNL     1      -3.591   2.210  23.358  0.00  0.00    -0.297 N 
ATOM      7  N   UNL     1      -3.626   0.011  24.055  0.00  0.00    -0.297 N 
ATOM     15  C   UNL     1      -4.297   1.231  24.063  0.00  0.00    +0.300 C 
ATOM     27  H   UNL     1      -2.702   1.954  22.939  0.00  0.00    +0.150 HD
ATOM     28  H   UNL     1      -2.706  -0.032  23.629  0.00  0.00    +0.150 HD
BRANCH   7  18
ATOM     18  C   UNL     1      -4.140  -1.168  24.712  0.00  0.00    +0.068 C 
ATOM     22  C   UNL     1      -4.079  -2.370  23.777  0.00  0.00    +0.027 C 
ATOM     23  C   UNL     1      -3.373  -1.433  26.001  0.00  0.00    +0.027 C 
ENDBRANCH   7  18
ENDBRANCH  12   6
ENDBRANCH  10  12
TORSDOF 8
ENDMDL
MODEL 6
REMARK VINA RESULT:      -3.7      2.411      5.841
REMARK  Name = 75536730
REMARK  11 active torsions:
REMARK  status: ('A' for Active; 'I' for Inactive)
REMARK    1  A    between atoms: O_2  and  C_9
REMARK    2  A    between atoms: O_4  and  C_21
REMARK    3  A    between atoms: O_4  and  C_24
REMARK    4  A    between atoms: N_5  and  C_8
REMARK    5  A    between atoms: N_5  and  C_13
REMARK    6  A    between atoms: N_6  and  C_12
REMARK    7  A    between atoms: N_7  and  C_18
REMARK    8  A    between atoms: C_10  and  C_12
REMARK    9  A    between atoms: C_13  and  C_14
REMARK   10  A    between atoms: C_18  and  C_22
REMARK   11  A    between atoms: C_18  and  C_23
REMARK                            x       y       z     vdW  Elec       q    Type
REMARK                         _______ _______ _______ _____ _____    ______ ____
ROOT
ATOM      1  O   UNL     1      -4.515   2.742  26.792  0.00  0.00    -0.371 OA
ATOM      8  C   UNL     1      -4.293   4.649  25.407  0.00  0.00    +0.111 C 
ATOM      9  C   UNL     1      -5.677   4.065  25.179  0.00  0.00    +0.164 C 
ATOM     10  C   UNL     1      -5.666   2.733  25.927  0.00  0.00    +0.165 C 
ATOM     11  C   UNL     1      -3.916   4.043  26.749  0.00  0.00    +0.181 C 
ENDROOT
BRANCH   9   2
ATOM      2  O   UNL     1      -6.625   4.939  25.796  0.00  0.00    -0.388 OA
ATOM     26  H   UNL     1      -7.325   5.114  25.145  0.00  0.00    +0.210 HD
ENDBRANCH   9   2
BRANCH   8   5
ATOM      5  N   UNL     1      -3.354   4.233  24.368  0.00  0.00    -0.305 NA
ATOM     25  H   UNL     1      -3.599   3.295  24.049  0.00  0.00    +0.123 HD
BRANCH   5  13
ATOM     13  C   UNL     1      -1.987   4.210  24.873  0.00  0.00    +0.116 C 
BRANCH  13  14
ATOM     14  C   UNL     1      -1.235   2.995  24.402  0.00  0.00    -0.033 A 
ATOM     16  C   UNL     1       0.011   2.688  24.952  0.00  0.00    +0.008 A 
ATOM     17  C   UNL     1      -1.782   2.174  23.415  0.00  0.00    +0.008 A 
ATOM     19  C   UNL     1       0.707   1.561  24.515  0.00  0.00    +0.046 A 
ATOM     20  C   UNL     1      -1.085   1.048  22.979  0.00  0.00    +0.046 A 
ATOM     21  C   UNL     1       0.160   0.742  23.529  0.00  0.00    +0.120 A 
BRANCH  21   4
ATOM      4  O   UNL     1       0.839  -0.358  23.103  0.00  0.00    -0.495 OA
ATOM     24  C   UNL     1       2.075  -0.134  22.424  0.00  0.00    +0.277 C 
ENDBRANCH  21   4
ENDBRANCH  13  14
ENDBRANCH   5  13
ENDBRANCH   8   5
BRANCH  10  12
ATOM     12  C   UNL     1      -5.564   1.522  25.011  0.00  0.00    +0.140 C 
BRANCH  12   6
ATOM      3  O   UNL     1      -4.510  -0.708  23.514  0.00  0.00    -0.253 OA
ATOM      6  N   UNL     1      -4.450   0.691  25.367  0.00  0.00    -0.297 N 
ATOM      7  N   UNL     1      -2.907  -1.012  25.163  0.00  0.00    -0.297 N 
ATOM     15  C   UNL     1      -4.001  -0.376  24.583  0.00  0.00    +0.300 C 
ATOM     27  H   UNL     1      -3.968   0.882  26.241  0.00  0.00    +0.150 HD
ATOM     28  H   UNL     1      -2.604  -0.709  26.083  0.00  0.00    +0.150 HD
BRANCH   7  18
ATOM     18  C   UNL     1      -2.250  -2.146  24.556  0.00  0.00    +0.068 C 
ATOM     22  C   UNL     1      -0.902  -2.400  25.219  0.00  0.00    +0.027 C 
ATOM     23  C   UNL     1      -3.143  -3.378  24.632  0.00  0.00    +0.027 C 
ENDBRANCH   7  18
ENDBRANCH  12   6
ENDBRANCH  10  12
TORSDOF 8
ENDMDL
MODEL 7
REMARK VINA RESULT:      -3.2      2.453      5.315
REMARK  Name = 75536730
REMARK  11 active torsions:
REMARK  status: ('A' for Active; 'I' for Inactive)
REMARK    1  A    between atoms: O_2  and  C_9
REMARK    2  A    between atoms: O_4  and  C_21
REMARK    3  A    between atoms: O_4  and  C_24
REMARK    4  A    between atoms: N_5  and  C_8
REMARK    5  A    between atoms: N_5  and  C_13
REMARK    6  A    between atoms: N_6  and  C_12
REMARK    7  A    between atoms: N_7  and  C_18
REMARK    8  A    between atoms: C_10  and  C_12
REMARK    9  A    between atoms: C_13  and  C_14
REMARK   10  A    between atoms: C_18  and  C_22
REMARK   11  A    between atoms: C_18  and  C_23
REMARK                            x       y       z     vdW  Elec       q    Type
REMARK                         _______ _______ _______ _____ _____    ______ ____
ROOT
ATOM      1  O   UNL     1      -3.463  -2.891  24.220  0.00  0.00    -0.371 OA
ATOM      8  C   UNL     1      -1.528  -1.755  24.976  0.00  0.00    +0.111 C 
ATOM      9  C   UNL     1      -2.738  -1.091  25.612  0.00  0.00    +0.164 C 
ATOM     10  C   UNL     1      -3.941  -1.723  24.915  0.00  0.00    +0.165 C 
ATOM     11  C   UNL     1      -2.092  -3.108  24.573  0.00  0.00    +0.181 C 
ENDROOT
BRANCH   9   2
ATOM      2  O   UNL     1      -2.756  -1.452  26.995  0.00  0.00    -0.388 OA
ATOM     26  H   UNL     1      -3.552  -1.990  27.144  0.00  0.00    +0.210 HD
ENDBRANCH   9   2
BRANCH   8   5
ATOM      5  N   UNL     1      -1.062  -1.018  23.805  0.00  0.00    -0.305 NA
ATOM     25  H   UNL     1      -0.881  -1.673  23.043  0.00  0.00    +0.123 HD
BRANCH   5  13
ATOM     13  C   UNL     1       0.168  -0.292  24.096  0.00  0.00    +0.116 C 
BRANCH  13  14
ATOM     14  C   UNL     1      -0.099   1.146  24.453  0.00  0.00    -0.033 A 
ATOM     16  C   UNL     1      -0.322   2.086  23.446  0.00  0.00    +0.008 A 
ATOM     17  C   UNL     1      -0.125   1.539  25.791  0.00  0.00    +0.008 A 
ATOM     19  C   UNL     1      -0.570   3.417  23.777  0.00  0.00    +0.046 A 
ATOM     20  C   UNL     1      -0.373   2.871  26.122  0.00  0.00    +0.046 A 
ATOM     21  C   UNL     1      -0.596   3.810  25.115  0.00  0.00    +0.120 A 
BRANCH  21   4
ATOM      4  O   UNL     1      -0.839   5.109  25.438  0.00  0.00    -0.495 OA
ATOM     24  C   UNL     1      -1.626   5.870  24.522  0.00  0.00    +0.277 C 
ENDBRANCH  21   4
ENDBRANCH  13  14
ENDBRANCH   5  13
ENDBRANCH   8   5
BRANCH  10  12
ATOM     12  C   UNL     1      -4.610  -0.805  23.903  0.00  0.00    +0.140 C 
BRANCH  12   6
ATOM      3  O   UNL     1      -5.628   1.363  25.512  0.00  0.00    -0.253 OA
ATOM      6  N   UNL     1      -4.089   0.529  23.985  0.00  0.00    -0.297 N 
ATOM      7  N   UNL     1      -3.943   2.724  24.683  0.00  0.00    -0.297 N 
ATOM     15  C   UNL     1      -4.644   1.526  24.793  0.00  0.00    +0.300 C 
ATOM     27  H   UNL     1      -3.279   0.764  23.420  0.00  0.00    +0.150 HD
ATOM     28  H   UNL     1      -3.187   2.781  24.008  0.00  0.00    +0.150 HD
BRANCH   7  18
ATOM     18  C   UNL     1      -4.309   3.915  25.414  0.00  0.00    +0.068 C 
ATOM     22  C   UNL     1      -5.825   4.055  25.481  0.00  0.00    +0.027 C 
ATOM     23  C   UNL     1      -3.696   3.890  26.807  0.00  0.00    +0.027 C 
ENDBRANCH   7  18
ENDBRANCH  12   6
ENDBRANCH  10  12
TORSDOF 8
ENDMDL
MODEL 8
REMARK VINA RESULT:      -3.1      2.666      6.882
REMARK  Name = 75536730
REMARK  11 active torsions:
REMARK  status: ('A' for Active; 'I' for Inactive)
REMARK    1  A    between atoms: O_2  and  C_9
REMARK    2  A    between atoms: O_4  and  C_21
REMARK    3  A    between atoms: O_4  and  C_24
REMARK    4  A    between atoms: N_5  and  C_8
REMARK    5  A    between atoms: N_5  and  C_13
REMARK    6  A    between atoms: N_6  and  C_12
REMARK    7  A    between atoms: N_7  and  C_18
REMARK    8  A    between atoms: C_10  and  C_12
REMARK    9  A    between atoms: C_13  and  C_14
REMARK   10  A    between atoms: C_18  and  C_22
REMARK   11  A    between atoms: C_18  and  C_23
REMARK                            x       y       z     vdW  Elec       q    Type
REMARK                         _______ _______ _______ _____ _____    ______ ____
ROOT
ATOM      1  O   UNL     1      -0.933   3.526  23.866  0.00  0.00    -0.371 OA
ATOM      8  C   UNL     1       0.172   2.243  25.521  0.00  0.00    +0.111 C 
ATOM      9  C   UNL     1       0.432   1.591  24.174  0.00  0.00    +0.164 C 
ATOM     10  C   UNL     1      -0.480   2.332  23.199  0.00  0.00    +0.165 C 
ATOM     11  C   UNL     1      -0.237   3.649  25.113  0.00  0.00    +0.181 C 
ENDROOT
BRANCH   9   2
ATOM      2  O   UNL     1       1.795   1.843  23.823  0.00  0.00    -0.388 OA
ATOM     26  H   UNL     1       1.919   2.807  23.820  0.00  0.00    +0.210 HD
ENDBRANCH   9   2
BRANCH   8   5
ATOM      5  N   UNL     1      -0.909   1.578  26.243  0.00  0.00    -0.305 NA
ATOM     25  H   UNL     1      -1.091   2.077  27.114  0.00  0.00    +0.123 HD
BRANCH   5  13
ATOM     13  C   UNL     1      -0.559   0.200  26.561  0.00  0.00    +0.116 C 
BRANCH  13  14
ATOM     14  C   UNL     1      -1.455  -0.785  25.858  0.00  0.00    -0.033 A 
ATOM     16  C   UNL     1      -0.923  -1.661  24.912  0.00  0.00    +0.008 A 
ATOM     17  C   UNL     1      -2.818  -0.820  26.153  0.00  0.00    +0.008 A 
ATOM     19  C   UNL     1      -1.754  -2.573  24.261  0.00  0.00    +0.046 A 
ATOM     20  C   UNL     1      -3.649  -1.732  25.502  0.00  0.00    +0.046 A 
ATOM     21  C   UNL     1      -3.116  -2.609  24.557  0.00  0.00    +0.120 A 
BRANCH  21   4
ATOM      4  O   UNL     1      -3.927  -3.498  23.922  0.00  0.00    -0.495 OA
ATOM     24  C   UNL     1      -5.098  -2.977  23.295  0.00  0.00    +0.277 C 
ENDBRANCH  21   4
ENDBRANCH  13  14
ENDBRANCH   5  13
ENDBRANCH   8   5
BRANCH  10  12
ATOM     12  C   UNL     1      -1.701   1.529  22.777  0.00  0.00    +0.140 C 
BRANCH  12   6
ATOM      3  O   UNL     1      -4.128   3.057  23.094  0.00  0.00    -0.253 OA
ATOM      6  N   UNL     1      -2.653   1.428  23.846  0.00  0.00    -0.297 N 
ATOM      7  N   UNL     1      -4.555   1.907  25.062  0.00  0.00    -0.297 N 
ATOM     15  C   UNL     1      -3.810   2.209  23.926  0.00  0.00    +0.300 C 
ATOM     27  H   UNL     1      -2.473   0.758  24.588  0.00  0.00    +0.150 HD
ATOM     28  H   UNL     1      -4.173   1.241  25.727  0.00  0.00    +0.150 HD
BRANCH   7  18
ATOM     18  C   UNL     1      -5.796   2.571  25.383  0.00  0.00    +0.068 C 
ATOM     22  C   UNL     1      -6.506   1.853  26.525  0.00  0.00    +0.027 C 
ATOM     23  C   UNL     1      -5.542   4.033  25.725  0.00  0.00    +0.027 C 
ENDBRANCH   7  18
ENDBRANCH  12   6
ENDBRANCH  10  12
TORSDOF 8
ENDMDL
MODEL 9
REMARK VINA RESULT:      -3.0      2.548      5.482
REMARK  Name = 75536730
REMARK  11 active torsions:
REMARK  status: ('A' for Active; 'I' for Inactive)
REMARK    1  A    between atoms: O_2  and  C_9
REMARK    2  A    between atoms: O_4  and  C_21
REMARK    3  A    between atoms: O_4  and  C_24
REMARK    4  A    between atoms: N_5  and  C_8
REMARK    5  A    between atoms: N_5  and  C_13
REMARK    6  A    between atoms: N_6  and  C_12
REMARK    7  A    between atoms: N_7  and  C_18
REMARK    8  A    between atoms: C_10  and  C_12
REMARK    9  A    between atoms: C_13  and  C_14
REMARK   10  A    between atoms: C_18  and  C_22
REMARK   11  A    between atoms: C_18  and  C_23
REMARK                            x       y       z     vdW  Elec       q    Type
REMARK                         _______ _______ _______ _____ _____    ______ ____
ROOT
ATOM      1  O   UNL     1       1.009   1.909  24.789  0.00  0.00    -0.371 OA
ATOM      8  C   UNL     1      -0.686   3.012  23.558  0.00  0.00    +0.111 C 
ATOM      9  C   UNL     1      -0.949   3.254  25.034  0.00  0.00    +0.164 C 
ATOM     10  C   UNL     1       0.039   2.343  25.761  0.00  0.00    +0.165 C 
ATOM     11  C   UNL     1       0.781   2.616  23.563  0.00  0.00    +0.181 C 
ENDROOT
BRANCH   9   2
ATOM      2  O   UNL     1      -0.622   4.617  25.318  0.00  0.00    -0.388 OA
ATOM     26  H   UNL     1      -0.231   4.994  24.513  0.00  0.00    +0.210 HD
ENDBRANCH   9   2
BRANCH   8   5
ATOM      5  N   UNL     1      -1.514   1.929  23.033  0.00  0.00    -0.305 NA
ATOM     25  H   UNL     1      -1.048   1.507  22.229  0.00  0.00    +0.123 HD
BRANCH   5  13
ATOM     13  C   UNL     1      -2.818   2.422  22.610  0.00  0.00    +0.116 C 
BRANCH  13  14
ATOM     14  C   UNL     1      -3.799   2.469  23.751  0.00  0.00    -0.033 A 
ATOM     16  C   UNL     1      -4.287   1.283  24.301  0.00  0.00    +0.008 A 
ATOM     17  C   UNL     1      -4.218   3.698  24.260  0.00  0.00    +0.008 A 
ATOM     19  C   UNL     1      -5.195   1.327  25.359  0.00  0.00    +0.046 A 
ATOM     20  C   UNL     1      -5.126   3.742  25.319  0.00  0.00    +0.046 A 
ATOM     21  C   UNL     1      -5.614   2.556  25.868  0.00  0.00    +0.120 A 
BRANCH  21   4
ATOM      4  O   UNL     1      -6.499   2.599  26.900  0.00  0.00    -0.495 OA
ATOM     24  C   UNL     1      -6.917   1.349  27.449  0.00  0.00    +0.277 C 
ENDBRANCH  21   4
ENDBRANCH  13  14
ENDBRANCH   5  13
ENDBRANCH   8   5
BRANCH  10  12
ATOM     12  C   UNL     1      -0.608   1.109  26.372  0.00  0.00    +0.140 C 
BRANCH  12   6
ATOM      3  O   UNL     1      -2.744  -0.831  26.390  0.00  0.00    -0.253 OA
ATOM      6  N   UNL     1      -0.881   0.114  25.375  0.00  0.00    -0.297 N 
ATOM      7  N   UNL     1      -1.975  -1.645  24.359  0.00  0.00    -0.297 N 
ATOM     15  C   UNL     1      -1.942  -0.793  25.459  0.00  0.00    +0.300 C 
ATOM     27  H   UNL     1      -0.266   0.061  24.568  0.00  0.00    +0.150 HD
ATOM     28  H   UNL     1      -1.226  -1.583  23.676  0.00  0.00    +0.150 HD
BRANCH   7  18
ATOM     18  C   UNL     1      -2.973  -2.677  24.199  0.00  0.00    +0.068 C 
ATOM     22  C   UNL     1      -3.210  -3.399  25.519  0.00  0.00    +0.027 C 
ATOM     23  C   UNL     1      -4.265  -2.084  23.655  0.00  0.00    +0.027 C 
ENDBRANCH   7  18
ENDBRANCH  12   6
ENDBRANCH  10  12
TORSDOF 8
ENDMDL
MODEL 10
REMARK VINA RESULT:      -2.9      2.258      5.378
REMARK  Name = 75536730
REMARK  11 active torsions:
REMARK  status: ('A' for Active; 'I' for Inactive)
REMARK    1  A    between atoms: O_2  and  C_9
REMARK    2  A    between atoms: O_4  and  C_21
REMARK    3  A    between atoms: O_4  and  C_24
REMARK    4  A    between atoms: N_5  and  C_8
REMARK    5  A    between atoms: N_5  and  C_13
REMARK    6  A    between atoms: N_6  and  C_12
REMARK    7  A    between atoms: N_7  and  C_18
REMARK    8  A    between atoms: C_10  and  C_12
REMARK    9  A    between atoms: C_13  and  C_14
REMARK   10  A    between atoms: C_18  and  C_22
REMARK   11  A    between atoms: C_18  and  C_23
REMARK                            x       y       z     vdW  Elec       q    Type
REMARK                         _______ _______ _______ _____ _____    ______ ____
ROOT
ATOM      1  O   UNL     1      -3.834   3.481  23.925  0.00  0.00    -0.371 OA
ATOM      8  C   UNL     1      -5.654   2.574  25.139  0.00  0.00    +0.111 C 
ATOM      9  C   UNL     1      -5.160   3.801  25.886  0.00  0.00    +0.164 C 
ATOM     10  C   UNL     1      -3.866   4.196  25.175  0.00  0.00    +0.165 C 
ATOM     11  C   UNL     1      -5.086   2.807  23.748  0.00  0.00    +0.181 C 
ENDROOT
BRANCH   9   2
ATOM      2  O   UNL     1      -6.126   4.840  25.707  0.00  0.00    -0.388 OA
ATOM     26  H   UNL     1      -5.829   5.386  24.961  0.00  0.00    +0.210 HD
ENDBRANCH   9   2
BRANCH   8   5
ATOM      5  N   UNL     1      -5.124   1.342  25.716  0.00  0.00    -0.305 NA
ATOM     25  H   UNL     1      -4.136   1.471  25.938  0.00  0.00    +0.123 HD
BRANCH   5  13
ATOM     13  C   UNL     1      -5.249   0.229  24.783  0.00  0.00    +0.116 C 
BRANCH  13  14
ATOM     14  C   UNL     1      -4.052  -0.683  24.834  0.00  0.00    -0.033 A 
ATOM     16  C   UNL     1      -4.000  -1.812  24.015  0.00  0.00    +0.008 A 
ATOM     17  C   UNL     1      -2.995  -0.400  25.698  0.00  0.00    +0.008 A 
ATOM     19  C   UNL     1      -2.891  -2.657  24.062  0.00  0.00    +0.046 A 
ATOM     20  C   UNL     1      -1.886  -1.244  25.744  0.00  0.00    +0.046 A 
ATOM     21  C   UNL     1      -1.834  -2.372  24.926  0.00  0.00    +0.120 A 
BRANCH  21   4
ATOM      4  O   UNL     1      -0.752  -3.196  24.971  0.00  0.00    -0.495 OA
ATOM     24  C   UNL     1       0.438  -2.672  25.559  0.00  0.00    +0.277 C 
ENDBRANCH  21   4
ENDBRANCH  13  14
ENDBRANCH   5  13
ENDBRANCH   8   5
BRANCH  10  12
ATOM     12  C   UNL     1      -2.610   3.845  25.958  0.00  0.00    +0.140 C 
BRANCH  12   6
ATOM      3  O   UNL     1      -0.496   3.636  24.006  0.00  0.00    -0.253 OA
ATOM      6  N   UNL     1      -2.007   2.641  25.463  0.00  0.00    -0.297 N 
ATOM      7  N   UNL     1      -0.582   1.327  24.211  0.00  0.00    -0.297 N 
ATOM     15  C   UNL     1      -0.982   2.626  24.511  0.00  0.00    +0.300 C 
ATOM     27  H   UNL     1      -2.348   1.752  25.817  0.00  0.00    +0.150 HD
ATOM     28  H   UNL     1      -1.093   0.555  24.628  0.00  0.00    +0.150 HD
BRANCH   7  18
ATOM     18  C   UNL     1       0.462   1.032  23.257  0.00  0.00    +0.068 C 
ATOM     22  C   UNL     1       1.828   1.380  23.835  0.00  0.00    +0.027 C 
ATOM     23  C   UNL     1       0.397  -0.431  22.838  0.00  0.00    +0.027 C 
ENDBRANCH   7  18
ENDBRANCH  12   6
ENDBRANCH  10  12
TORSDOF 8
ENDMDL
