MODEL 1
REMARK VINA RESULT:      15.4      0.000      0.000
REMARK  Name = 44716695
REMARK  11 active torsions:
REMARK  status: ('A' for Active; 'I' for Inactive)
REMARK    1  A    between atoms: O_3  and  C_11
REMARK    2  A    between atoms: C_9  and  C_17
REMARK    3  A    between atoms: C_12  and  C_18
REMARK    4  A    between atoms: C_14  and  C_21
REMARK    5  A    between atoms: C_18  and  C_22
REMARK    6  A    between atoms: C_18  and  C_23
REMARK    7  A    between atoms: C_29  and  C_30
REMARK    8  A    between atoms: C_30  and  C_31
REMARK    9  A    between atoms: C_31  and  C_32
REMARK   10  A    between atoms: C_31  and  C_33
REMARK   11  A    between atoms: C_31  and  C_34
REMARK                            x       y       z     vdW  Elec       q    Type
REMARK                         _______ _______ _______ _____ _____    ______ ____
ROOT
ATOM      1  S   UNL     1       1.594  -1.997  24.169  0.00  0.00    -0.057 S 
ATOM      5  O   UNL     1       4.046   1.419  22.104  0.00  0.00    -0.275 OA
ATOM      6  N   UNL     1       1.454   0.432  23.297  0.00  0.00    -0.229 NA
ATOM      8  N   UNL     1       3.571  -0.691  23.045  0.00  0.00    -0.265 N 
ATOM      9  C   UNL     1      -2.078  -0.625  25.413  0.00  0.00    -0.022 C 
ATOM     10  C   UNL     1      -2.281   0.395  24.223  0.00  0.00    +0.033 C 
ATOM     11  C   UNL     1      -3.430   1.398  24.527  0.00  0.00    +0.123 C 
ATOM     12  C   UNL     1      -4.741   0.696  24.949  0.00  0.00    +0.029 C 
ATOM     13  C   UNL     1      -3.427  -1.299  25.757  0.00  0.00    +0.008 C 
ATOM     14  C   UNL     1      -0.925   1.098  23.807  0.00  0.00    +0.042 C 
ATOM     15  C   UNL     1      -4.528  -0.301  26.089  0.00  0.00    +0.007 C 
ATOM     16  C   UNL     1      -1.090  -1.753  24.978  0.00  0.00    +0.051 C 
ATOM     17  C   UNL     1      -1.521   0.068  26.684  0.00  0.00    +0.012 C 
ATOM     19  C   UNL     1       0.208   0.100  23.799  0.00  0.00    +0.057 A 
ATOM     20  C   UNL     1       0.117  -1.168  24.336  0.00  0.00    +0.015 A 
ATOM     21  C   UNL     1      -1.004   1.811  22.449  0.00  0.00    +0.014 C 
ATOM     24  C   UNL     1       2.259  -0.599  23.427  0.00  0.00    +0.165 A 
ATOM     29  C   UNL     1       4.388   0.284  22.421  0.00  0.00    +0.219 C 
ATOM     36  H   UNL     1       3.998  -1.592  23.248  0.00  0.00    +0.157 HD
ENDROOT
BRANCH  11   3
ATOM      3  O   UNL     1      -3.717   2.160  23.356  0.00  0.00    -0.391 OA
ATOM     35  H   UNL     1      -3.618   1.575  22.585  0.00  0.00    +0.210 HD
ENDBRANCH  11   3
BRANCH  12  18
ATOM     18  C   UNL     1      -5.825   1.704  25.346  0.00  0.00    +0.078 C 
ATOM     22  C   UNL     1      -7.205   1.209  24.951  0.00  0.00    +0.017 C 
BRANCH  18  23
ATOM      2  S   UNL     1      -1.704   4.919  25.587  0.00  0.00    -0.158 S 
ATOM      4  O   UNL     1      -6.068   3.270  23.584  0.00  0.00    -0.275 OA
ATOM      7  N   UNL     1      -4.657   3.882  25.326  0.00  0.00    -0.300 N 
ATOM     23  C   UNL     1      -5.534   3.018  24.667  0.00  0.00    +0.219 C 
ATOM     25  C   UNL     1      -3.917   3.563  26.553  0.00  0.00    +0.118 C 
ATOM     26  C   UNL     1      -4.326   5.176  24.729  0.00  0.00    +0.118 C 
ATOM     27  C   UNL     1      -2.429   3.392  26.268  0.00  0.00    +0.088 C 
ATOM     28  C   UNL     1      -2.885   5.203  24.230  0.00  0.00    +0.088 C 
ENDBRANCH  18  23
ENDBRANCH  12  18
BRANCH  29  30
ATOM     30  C   UNL     1       5.812  -0.193  22.157  0.00  0.00    +0.102 C 
BRANCH  30  31
ATOM     31  C   UNL     1       6.706  -0.287  23.416  0.00  0.00    -0.029 C 
ATOM     32  C   UNL     1       6.302  -1.483  24.295  0.00  0.00    +0.011 C 
ATOM     33  C   UNL     1       8.193  -0.409  23.046  0.00  0.00    +0.011 C 
ATOM     34  C   UNL     1       6.514   1.005  24.235  0.00  0.00    +0.011 C 
ENDBRANCH  30  31
ENDBRANCH  29  30
TORSDOF 5
ENDMDL
