MODEL 1
REMARK VINA RESULT:      -3.7      0.000      0.000
REMARK  Name = 86769016
REMARK  4 active torsions:
REMARK  status: ('A' for Active; 'I' for Inactive)
REMARK    1  A    between atoms: N_3  and  C_14
REMARK    2  A    between atoms: N_4  and  C_15
REMARK    3  A    between atoms: C_14  and  C_16
REMARK    4  A    between atoms: C_15  and  C_17
REMARK                            x       y       z     vdW  Elec       q    Type
REMARK                         _______ _______ _______ _____ _____    ______ ____
ROOT
ATOM      1  O   UNL     1      -0.125  -1.633  23.853  0.00  0.00    -0.252 OA
ATOM      2  N   UNL     1      -0.727   0.444  24.770  0.00  0.00    -0.278 N 
ATOM      3  N   UNL     1      -2.375   2.550  25.642  0.00  0.00    -0.292 NA
ATOM      4  N   UNL     1       0.988   0.377  23.322  0.00  0.00    -0.278 N 
ATOM      8  C   UNL     1      -0.203   1.793  24.766  0.00  0.00    +0.109 C 
ATOM      9  C   UNL     1      -1.339   2.805  24.620  0.00  0.00    +0.109 C 
ATOM     10  C   UNL     1       0.803   1.788  23.617  0.00  0.00    +0.133 C 
ATOM     11  C   UNL     1      -1.846   0.121  25.630  0.00  0.00    +0.125 C 
ATOM     12  C   UNL     1      -2.934   1.191  25.497  0.00  0.00    +0.104 C 
ATOM     13  C   UNL     1       0.028  -0.425  23.970  0.00  0.00    +0.306 C 
ENDROOT
BRANCH   3  14
ATOM     14  C   UNL     1      -3.438   3.549  25.549  0.00  0.00    +0.158 C 
BRANCH  14  16
ATOM      5  N   UNL     1      -5.641   2.856  26.511  0.00  0.00    -0.347 N 
ATOM      6  N   UNL     1      -5.325   2.369  24.368  0.00  0.00    -0.239 NA
ATOM     16  C   UNL     1      -4.796   2.917  25.439  0.00  0.00    +0.121 A 
ATOM     19  C   UNL     1      -6.783   2.230  26.097  0.00  0.00    +0.104 A 
ATOM     20  C   UNL     1      -6.564   1.938  24.771  0.00  0.00    +0.130 A 
ATOM     24  H   UNL     1      -5.458   3.210  27.441  0.00  0.00    +0.167 HD
ENDBRANCH  14  16
ENDBRANCH   3  14
BRANCH   4  15
ATOM     15  C   UNL     1       1.958  -0.082  22.351  0.00  0.00    +0.164 C 
BRANCH  15  17
ATOM      7  N   UNL     1       3.644  -1.399  23.502  0.00  0.00    -0.258 NA
ATOM     17  C   UNL     1       3.330  -0.207  22.944  0.00  0.00    +0.059 A 
ATOM     18  C   UNL     1       4.193   0.876  22.892  0.00  0.00    +0.025 A 
ATOM     21  C   UNL     1       5.458   0.727  23.450  0.00  0.00    +0.003 A 
ATOM     22  C   UNL     1       4.884  -1.506  24.032  0.00  0.00    +0.111 A 
ATOM     23  C   UNL     1       5.818  -0.483  24.032  0.00  0.00    +0.020 A 
ENDBRANCH  15  17
ENDBRANCH   4  15
TORSDOF 4
ENDMDL
MODEL 2
REMARK VINA RESULT:      -1.9      1.812      8.471
REMARK  Name = 86769016
REMARK  4 active torsions:
REMARK  status: ('A' for Active; 'I' for Inactive)
REMARK    1  A    between atoms: N_3  and  C_14
REMARK    2  A    between atoms: N_4  and  C_15
REMARK    3  A    between atoms: C_14  and  C_16
REMARK    4  A    between atoms: C_15  and  C_17
REMARK                            x       y       z     vdW  Elec       q    Type
REMARK                         _______ _______ _______ _____ _____    ______ ____
ROOT
ATOM      1  O   UNL     1      -1.571   3.912  25.052  0.00  0.00    -0.252 OA
ATOM      2  N   UNL     1      -0.573   1.925  24.295  0.00  0.00    -0.278 N 
ATOM      3  N   UNL     1       1.389   0.212  23.235  0.00  0.00    -0.292 NA
ATOM      4  N   UNL     1      -2.687   2.360  23.671  0.00  0.00    -0.278 N 
ATOM      8  C   UNL     1      -0.991   0.740  23.576  0.00  0.00    +0.109 C 
ATOM      9  C   UNL     1       0.078   0.327  22.564  0.00  0.00    +0.109 C 
ATOM     10  C   UNL     1      -2.332   1.139  22.965  0.00  0.00    +0.133 C 
ATOM     11  C   UNL     1       0.756   1.975  24.868  0.00  0.00    +0.125 C 
ATOM     12  C   UNL     1       1.786   1.498  23.841  0.00  0.00    +0.104 C 
ATOM     13  C   UNL     1      -1.606   2.864  24.423  0.00  0.00    +0.306 C 
ENDROOT
BRANCH   3  14
ATOM     14  C   UNL     1       2.407  -0.241  22.288  0.00  0.00    +0.158 C 
BRANCH  14  16
ATOM      5  N   UNL     1       4.128  -1.269  23.786  0.00  0.00    -0.347 N 
ATOM      6  N   UNL     1       4.754   0.571  22.713  0.00  0.00    -0.239 NA
ATOM     16  C   UNL     1       3.774  -0.282  22.909  0.00  0.00    +0.121 A 
ATOM     19  C   UNL     1       5.417  -1.033  24.171  0.00  0.00    +0.104 A 
ATOM     20  C   UNL     1       5.782   0.109  23.496  0.00  0.00    +0.130 A 
ATOM     24  H   UNL     1       3.545  -2.037  24.092  0.00  0.00    +0.167 HD
ENDBRANCH  14  16
ENDBRANCH   3  14
BRANCH   4  15
ATOM     15  C   UNL     1      -3.957   3.021  23.468  0.00  0.00    +0.164 C 
BRANCH  15  17
ATOM      7  N   UNL     1      -5.350   3.792  25.302  0.00  0.00    -0.258 NA
ATOM     17  C   UNL     1      -4.924   2.732  24.577  0.00  0.00    +0.059 A 
ATOM     18  C   UNL     1      -5.330   1.426  24.802  0.00  0.00    +0.025 A 
ATOM     21  C   UNL     1      -6.228   1.193  25.838  0.00  0.00    +0.003 A 
ATOM     22  C   UNL     1      -6.224   3.526  26.299  0.00  0.00    +0.111 A 
ATOM     23  C   UNL     1      -6.688   2.257  26.605  0.00  0.00    +0.020 A 
ENDBRANCH  15  17
ENDBRANCH   4  15
TORSDOF 4
ENDMDL
MODEL 3
REMARK VINA RESULT:      -1.5      1.623      8.369
REMARK  Name = 86769016
REMARK  4 active torsions:
REMARK  status: ('A' for Active; 'I' for Inactive)
REMARK    1  A    between atoms: N_3  and  C_14
REMARK    2  A    between atoms: N_4  and  C_15
REMARK    3  A    between atoms: C_14  and  C_16
REMARK    4  A    between atoms: C_15  and  C_17
REMARK                            x       y       z     vdW  Elec       q    Type
REMARK                         _______ _______ _______ _____ _____    ______ ____
ROOT
ATOM      1  O   UNL     1      -2.584   2.487  25.421  0.00  0.00    -0.252 OA
ATOM      2  N   UNL     1      -0.858   1.025  24.789  0.00  0.00    -0.278 N 
ATOM      3  N   UNL     1       1.520   0.140  23.577  0.00  0.00    -0.292 NA
ATOM      4  N   UNL     1      -2.977   0.290  24.658  0.00  0.00    -0.278 N 
ATOM      8  C   UNL     1      -0.737  -0.369  24.416  0.00  0.00    +0.109 C 
ATOM      9  C   UNL     1       0.241  -0.525  23.252  0.00  0.00    +0.109 C 
ATOM     10  C   UNL     1      -2.173  -0.789  24.108  0.00  0.00    +0.133 C 
ATOM     11  C   UNL     1       0.341   1.812  24.987  0.00  0.00    +0.125 C 
ATOM     12  C   UNL     1       1.316   1.580  23.829  0.00  0.00    +0.104 C 
ATOM     13  C   UNL     1      -2.189   1.404  25.012  0.00  0.00    +0.306 C 
ENDROOT
BRANCH   3  14
ATOM     14  C   UNL     1       2.484  -0.055  22.494  0.00  0.00    +0.158 C 
BRANCH  14  16
ATOM      5  N   UNL     1       4.273  -1.208  23.809  0.00  0.00    -0.347 N 
ATOM      6  N   UNL     1       4.884   0.660  22.777  0.00  0.00    -0.239 NA
ATOM     16  C   UNL     1       3.890  -0.169  23.008  0.00  0.00    +0.121 A 
ATOM     19  C   UNL     1       5.594  -1.032  24.107  0.00  0.00    +0.104 A 
ATOM     20  C   UNL     1       5.949   0.128  23.459  0.00  0.00    +0.130 A 
ATOM     24  H   UNL     1       3.687  -1.970  24.124  0.00  0.00    +0.167 HD
ENDBRANCH  14  16
ENDBRANCH   3  14
BRANCH   4  15
ATOM     15  C   UNL     1      -4.422   0.237  24.674  0.00  0.00    +0.164 C 
BRANCH  15  17
ATOM      7  N   UNL     1      -5.814   1.600  26.125  0.00  0.00    -0.258 NA
ATOM     17  C   UNL     1      -5.029   1.564  25.024  0.00  0.00    +0.059 A 
ATOM     18  C   UNL     1      -4.764   2.664  24.224  0.00  0.00    +0.025 A 
ATOM     21  C   UNL     1      -5.341   3.879  24.576  0.00  0.00    +0.003 A 
ATOM     22  C   UNL     1      -6.356   2.799  26.436  0.00  0.00    +0.111 A 
ATOM     23  C   UNL     1      -6.154   3.956  25.701  0.00  0.00    +0.020 A 
ENDBRANCH  15  17
ENDBRANCH   4  15
TORSDOF 4
ENDMDL
MODEL 4
REMARK VINA RESULT:      -1.5      1.487      1.951
REMARK  Name = 86769016
REMARK  4 active torsions:
REMARK  status: ('A' for Active; 'I' for Inactive)
REMARK    1  A    between atoms: N_3  and  C_14
REMARK    2  A    between atoms: N_4  and  C_15
REMARK    3  A    between atoms: C_14  and  C_16
REMARK    4  A    between atoms: C_15  and  C_17
REMARK                            x       y       z     vdW  Elec       q    Type
REMARK                         _______ _______ _______ _____ _____    ______ ____
ROOT
ATOM      1  O   UNL     1       1.123   1.689  25.505  0.00  0.00    -0.252 OA
ATOM      2  N   UNL     1      -0.762   2.738  24.574  0.00  0.00    -0.278 N 
ATOM      3  N   UNL     1      -3.239   4.064  24.460  0.00  0.00    -0.292 NA
ATOM      4  N   UNL     1      -0.029   0.835  23.632  0.00  0.00    -0.278 N 
ATOM      8  C   UNL     1      -1.595   2.569  23.403  0.00  0.00    +0.109 C 
ATOM      9  C   UNL     1      -3.066   2.773  23.762  0.00  0.00    +0.109 C 
ATOM     10  C   UNL     1      -1.245   1.167  22.907  0.00  0.00    +0.133 C 
ATOM     11  C   UNL     1      -0.951   3.901  25.416  0.00  0.00    +0.125 C 
ATOM     12  C   UNL     1      -2.442   4.102  25.703  0.00  0.00    +0.104 C 
ATOM     13  C   UNL     1       0.227   1.750  24.674  0.00  0.00    +0.306 C 
ENDROOT
BRANCH   3  14
ATOM     14  C   UNL     1      -4.652   4.297  24.756  0.00  0.00    +0.158 C 
BRANCH  14  16
ATOM      5  N   UNL     1      -5.859   2.987  26.514  0.00  0.00    -0.347 N 
ATOM      6  N   UNL     1      -5.509   1.933  24.591  0.00  0.00    -0.239 NA
ATOM     16  C   UNL     1      -5.335   3.055  25.253  0.00  0.00    +0.121 A 
ATOM     19  C   UNL     1      -6.405   1.744  26.665  0.00  0.00    +0.104 A 
ATOM     20  C   UNL     1      -6.176   1.111  25.465  0.00  0.00    +0.130 A 
ATOM     24  H   UNL     1      -5.848   3.723  27.208  0.00  0.00    +0.167 HD
ENDBRANCH  14  16
ENDBRANCH   3  14
BRANCH   4  15
ATOM     15  C   UNL     1       0.707  -0.383  23.377  0.00  0.00    +0.164 C 
BRANCH  15  17
ATOM      7  N   UNL     1       2.997  -1.119  23.711  0.00  0.00    -0.258 NA
ATOM     17  C   UNL     1       2.183  -0.136  23.267  0.00  0.00    +0.059 A 
ATOM     18  C   UNL     1       2.632   1.059  22.726  0.00  0.00    +0.025 A 
ATOM     21  C   UNL     1       4.006   1.256  22.638  0.00  0.00    +0.003 A 
ATOM     22  C   UNL     1       4.327  -0.891  23.608  0.00  0.00    +0.111 A 
ATOM     23  C   UNL     1       4.875   0.268  23.084  0.00  0.00    +0.020 A 
ENDBRANCH  15  17
ENDBRANCH   4  15
TORSDOF 4
ENDMDL
MODEL 5
REMARK VINA RESULT:      -0.9      1.569      8.003
REMARK  Name = 86769016
REMARK  4 active torsions:
REMARK  status: ('A' for Active; 'I' for Inactive)
REMARK    1  A    between atoms: N_3  and  C_14
REMARK    2  A    between atoms: N_4  and  C_15
REMARK    3  A    between atoms: C_14  and  C_16
REMARK    4  A    between atoms: C_15  and  C_17
REMARK                            x       y       z     vdW  Elec       q    Type
REMARK                         _______ _______ _______ _____ _____    ______ ____
ROOT
ATOM      1  O   UNL     1      -2.588  -1.236  26.445  0.00  0.00    -0.252 OA
ATOM      2  N   UNL     1      -1.295  -0.863  24.521  0.00  0.00    -0.278 N 
ATOM      3  N   UNL     1       0.959  -0.266  22.949  0.00  0.00    -0.292 NA
ATOM      4  N   UNL     1      -3.345   0.049  24.619  0.00  0.00    -0.278 N 
ATOM      8  C   UNL     1      -1.487  -0.262  23.218  0.00  0.00    +0.109 C 
ATOM      9  C   UNL     1      -0.260   0.560  22.824  0.00  0.00    +0.109 C 
ATOM     10  C   UNL     1      -2.774   0.544  23.377  0.00  0.00    +0.133 C 
ATOM     11  C   UNL     1      -0.063  -1.572  24.799  0.00  0.00    +0.125 C 
ATOM     12  C   UNL     1       1.136  -0.740  24.336  0.00  0.00    +0.104 C 
ATOM     13  C   UNL     1      -2.430  -0.749  25.335  0.00  0.00    +0.306 C 
ENDROOT
BRANCH   3  14
ATOM     14  C   UNL     1       2.133   0.492  22.517  0.00  0.00    +0.158 C 
BRANCH  14  16
ATOM      5  N   UNL     1       4.442   0.784  23.435  0.00  0.00    -0.347 N 
ATOM      6  N   UNL     1       3.668  -1.296  23.409  0.00  0.00    -0.239 NA
ATOM     16  C   UNL     1       3.400  -0.042  23.120  0.00  0.00    +0.121 A 
ATOM     19  C   UNL     1       5.437   0.009  23.959  0.00  0.00    +0.104 A 
ATOM     20  C   UNL     1       4.936  -1.272  23.932  0.00  0.00    +0.130 A 
ATOM     24  H   UNL     1       4.473   1.787  23.306  0.00  0.00    +0.167 HD
ENDBRANCH  14  16
ENDBRANCH   3  14
BRANCH   4  15
ATOM     15  C   UNL     1      -4.642   0.480  25.092  0.00  0.00    +0.164 C 
BRANCH  15  17
ATOM      7  N   UNL     1      -3.521   2.620  25.342  0.00  0.00    -0.258 NA
ATOM     17  C   UNL     1      -4.704   1.966  25.287  0.00  0.00    +0.059 A 
ATOM     18  C   UNL     1      -5.939   2.586  25.396  0.00  0.00    +0.025 A 
ATOM     21  C   UNL     1      -5.961   3.965  25.576  0.00  0.00    +0.003 A 
ATOM     22  C   UNL     1      -3.584   3.960  25.515  0.00  0.00    +0.111 A 
ATOM     23  C   UNL     1      -4.766   4.672  25.637  0.00  0.00    +0.020 A 
ENDBRANCH  15  17
ENDBRANCH   4  15
TORSDOF 4
ENDMDL
MODEL 6
REMARK VINA RESULT:      -0.8      1.398      2.084
REMARK  Name = 86769016
REMARK  4 active torsions:
REMARK  status: ('A' for Active; 'I' for Inactive)
REMARK    1  A    between atoms: N_3  and  C_14
REMARK    2  A    between atoms: N_4  and  C_15
REMARK    3  A    between atoms: C_14  and  C_16
REMARK    4  A    between atoms: C_15  and  C_17
REMARK                            x       y       z     vdW  Elec       q    Type
REMARK                         _______ _______ _______ _____ _____    ______ ____
ROOT
ATOM      1  O   UNL     1       0.599  -1.759  22.566  0.00  0.00    -0.252 OA
ATOM      2  N   UNL     1      -0.847  -0.781  24.138  0.00  0.00    -0.278 N 
ATOM      3  N   UNL     1      -3.257  -0.058  25.394  0.00  0.00    -0.292 NA
ATOM      4  N   UNL     1       0.875   0.440  23.372  0.00  0.00    -0.278 N 
ATOM      8  C   UNL     1      -0.896   0.441  24.913  0.00  0.00    +0.109 C 
ATOM      9  C   UNL     1      -2.320   0.993  24.946  0.00  0.00    +0.109 C 
ATOM     10  C   UNL     1       0.126   1.346  24.228  0.00  0.00    +0.133 C 
ATOM     11  C   UNL     1      -1.819  -1.823  24.397  0.00  0.00    +0.125 C 
ATOM     12  C   UNL     1      -3.223  -1.218  24.481  0.00  0.00    +0.104 C 
ATOM     13  C   UNL     1       0.255  -0.821  23.272  0.00  0.00    +0.306 C 
ENDROOT
BRANCH   3  14
ATOM     14  C   UNL     1      -4.615   0.476  25.488  0.00  0.00    +0.158 C 
BRANCH  14  16
ATOM      5  N   UNL     1      -4.244   2.458  24.006  0.00  0.00    -0.347 N 
ATOM      6  N   UNL     1      -5.073   2.896  26.019  0.00  0.00    -0.239 NA
ATOM     16  C   UNL     1      -4.659   1.950  25.206  0.00  0.00    +0.121 A 
ATOM     19  C   UNL     1      -4.405   3.814  24.057  0.00  0.00    +0.104 A 
ATOM     20  C   UNL     1      -4.918   4.061  25.310  0.00  0.00    +0.130 A 
ATOM     24  H   UNL     1      -3.885   1.929  23.223  0.00  0.00    +0.167 HD
ENDBRANCH  14  16
ENDBRANCH   3  14
BRANCH   4  15
ATOM     15  C   UNL     1       2.026   0.878  22.614  0.00  0.00    +0.164 C 
BRANCH  15  17
ATOM      7  N   UNL     1       4.359   1.115  23.248  0.00  0.00    -0.258 NA
ATOM     17  C   UNL     1       3.301   0.280  23.132  0.00  0.00    +0.059 A 
ATOM     18  C   UNL     1       3.335  -1.066  23.461  0.00  0.00    +0.025 A 
ATOM     21  C   UNL     1       4.531  -1.589  23.939  0.00  0.00    +0.003 A 
ATOM     22  C   UNL     1       5.505   0.570  23.717  0.00  0.00    +0.111 A 
ATOM     23  C   UNL     1       5.641  -0.762  24.072  0.00  0.00    +0.020 A 
ENDBRANCH  15  17
ENDBRANCH   4  15
TORSDOF 4
ENDMDL
MODEL 7
REMARK VINA RESULT:       0.0      1.613      8.401
REMARK  Name = 86769016
REMARK  4 active torsions:
REMARK  status: ('A' for Active; 'I' for Inactive)
REMARK    1  A    between atoms: N_3  and  C_14
REMARK    2  A    between atoms: N_4  and  C_15
REMARK    3  A    between atoms: C_14  and  C_16
REMARK    4  A    between atoms: C_15  and  C_17
REMARK                            x       y       z     vdW  Elec       q    Type
REMARK                         _______ _______ _______ _____ _____    ______ ____
ROOT
ATOM      1  O   UNL     1      -2.538   2.259  25.735  0.00  0.00    -0.252 OA
ATOM      2  N   UNL     1      -0.839   0.761  25.112  0.00  0.00    -0.278 N 
ATOM      3  N   UNL     1       1.487  -0.194  23.853  0.00  0.00    -0.292 NA
ATOM      4  N   UNL     1      -2.962   0.025  25.109  0.00  0.00    -0.278 N 
ATOM      8  C   UNL     1      -0.734  -0.651  24.811  0.00  0.00    +0.109 C 
ATOM      9  C   UNL     1       0.196  -0.873  23.618  0.00  0.00    +0.109 C 
ATOM     10  C   UNL     1      -2.181  -1.084  24.585  0.00  0.00    +0.133 C 
ATOM     11  C   UNL     1       0.367   1.555  25.218  0.00  0.00    +0.125 C 
ATOM     12  C   UNL     1       1.294   1.258  24.036  0.00  0.00    +0.104 C 
ATOM     13  C   UNL     1      -2.160   1.155  25.369  0.00  0.00    +0.306 C 
ENDROOT
BRANCH   3  14
ATOM     14  C   UNL     1       2.405  -0.449  22.744  0.00  0.00    +0.158 C 
BRANCH  14  16
ATOM      5  N   UNL     1       4.576  -1.359  23.594  0.00  0.00    -0.347 N 
ATOM      6  N   UNL     1       4.544   0.817  23.155  0.00  0.00    -0.239 NA
ATOM     16  C   UNL     1       3.841  -0.293  23.156  0.00  0.00    +0.121 A 
ATOM     19  C   UNL     1       5.828  -0.900  23.890  0.00  0.00    +0.104 A 
ATOM     20  C   UNL     1       5.784   0.446  23.612  0.00  0.00    +0.130 A 
ATOM     24  H   UNL     1       4.254  -2.314  23.682  0.00  0.00    +0.167 HD
ENDBRANCH  14  16
ENDBRANCH   3  14
BRANCH   4  15
ATOM     15  C   UNL     1      -4.405  -0.023  25.187  0.00  0.00    +0.164 C 
BRANCH  15  17
ATOM      7  N   UNL     1      -4.664   2.241  24.348  0.00  0.00    -0.258 NA
ATOM     17  C   UNL     1      -5.008   1.346  25.302  0.00  0.00    +0.059 A 
ATOM     18  C   UNL     1      -5.870   1.623  26.351  0.00  0.00    +0.025 A 
ATOM     21  C   UNL     1      -6.412   2.901  26.428  0.00  0.00    +0.003 A 
ATOM     22  C   UNL     1      -5.213   3.473  24.455  0.00  0.00    +0.111 A 
ATOM     23  C   UNL     1      -6.082   3.849  25.466  0.00  0.00    +0.020 A 
ENDBRANCH  15  17
ENDBRANCH   4  15
TORSDOF 4
ENDMDL
MODEL 8
REMARK VINA RESULT:       0.0      2.523      7.633
REMARK  Name = 86769016
REMARK  4 active torsions:
REMARK  status: ('A' for Active; 'I' for Inactive)
REMARK    1  A    between atoms: N_3  and  C_14
REMARK    2  A    between atoms: N_4  and  C_15
REMARK    3  A    between atoms: C_14  and  C_16
REMARK    4  A    between atoms: C_15  and  C_17
REMARK                            x       y       z     vdW  Elec       q    Type
REMARK                         _______ _______ _______ _____ _____    ______ ____
ROOT
ATOM      1  O   UNL     1      -2.882   3.271  24.711  0.00  0.00    -0.252 OA
ATOM      2  N   UNL     1      -0.720   2.357  24.629  0.00  0.00    -0.278 N 
ATOM      3  N   UNL     1       1.885   1.857  23.694  0.00  0.00    -0.292 NA
ATOM      4  N   UNL     1      -2.437   0.988  25.101  0.00  0.00    -0.278 N 
ATOM      8  C   UNL     1      -0.097   1.085  24.931  0.00  0.00    +0.109 C 
ATOM      9  C   UNL     1       0.941   0.734  23.866  0.00  0.00    +0.109 C 
ATOM     10  C   UNL     1      -1.275   0.117  25.022  0.00  0.00    +0.133 C 
ATOM     11  C   UNL     1       0.115   3.493  24.299  0.00  0.00    +0.125 C 
ATOM     12  C   UNL     1       1.177   3.083  23.275  0.00  0.00    +0.104 C 
ATOM     13  C   UNL     1      -2.110   2.327  24.806  0.00  0.00    +0.306 C 
ENDROOT
BRANCH   3  14
ATOM     14  C   UNL     1       2.919   1.509  22.720  0.00  0.00    +0.158 C 
BRANCH  14  16
ATOM      5  N   UNL     1       3.617  -0.823  23.299  0.00  0.00    -0.347 N 
ATOM      6  N   UNL     1       5.085   0.773  23.777  0.00  0.00    -0.239 NA
ATOM     16  C   UNL     1       3.899   0.514  23.273  0.00  0.00    +0.121 A 
ATOM     19  C   UNL     1       4.693  -1.458  23.854  0.00  0.00    +0.104 A 
ATOM     20  C   UNL     1       5.585  -0.452  24.141  0.00  0.00    +0.130 A 
ATOM     24  H   UNL     1       2.770  -1.265  22.968  0.00  0.00    +0.167 HD
ENDBRANCH  14  16
ENDBRANCH   3  14
BRANCH   4  15
ATOM     15  C   UNL     1      -3.771   0.470  25.309  0.00  0.00    +0.164 C 
BRANCH  15  17
ATOM      7  N   UNL     1      -3.359  -1.878  25.777  0.00  0.00    -0.258 NA
ATOM     17  C   UNL     1      -3.880  -0.974  24.916  0.00  0.00    +0.059 A 
ATOM     18  C   UNL     1      -4.496  -1.307  23.720  0.00  0.00    +0.025 A 
ATOM     21  C   UNL     1      -4.582  -2.654  23.386  0.00  0.00    +0.003 A 
ATOM     22  C   UNL     1      -3.462  -3.178  25.418  0.00  0.00    +0.111 A 
ATOM     23  C   UNL     1      -4.058  -3.613  24.245  0.00  0.00    +0.020 A 
ENDBRANCH  15  17
ENDBRANCH   4  15
TORSDOF 4
ENDMDL
