MODEL 1
REMARK VINA RESULT:       7.6      0.000      0.000
REMARK  Name = 51137031
REMARK  5 active torsions:
REMARK  status: ('A' for Active; 'I' for Inactive)
REMARK    1  A    between atoms: S_1  and  C_19
REMARK    2  A    between atoms: S_1  and  C_22
REMARK    3  A    between atoms: C_9  and  C_13
REMARK    4  A    between atoms: C_14  and  C_17
REMARK    5  A    between atoms: C_22  and  C_25
REMARK                            x       y       z     vdW  Elec       q    Type
REMARK                         _______ _______ _______ _____ _____    ______ ____
ROOT
ATOM      2  O   UNL     1      -0.642   1.107  25.505  0.00  0.00    -0.439 OA
ATOM      7  N   UNL     1      -2.604   0.212  24.808  0.00  0.00    -0.213 NA
ATOM     13  C   UNL     1      -1.324   0.021  25.046  0.00  0.00    +0.201 A 
ATOM     15  C   UNL     1      -2.792   1.533  25.134  0.00  0.00    +0.111 A 
ATOM     16  C   UNL     1      -1.592   2.085  25.561  0.00  0.00    +0.155 A 
ATOM     18  C   UNL     1      -3.936   2.343  25.099  0.00  0.00    +0.058 A 
ATOM     19  C   UNL     1      -3.808   3.681  25.501  0.00  0.00    +0.090 A 
ATOM     20  C   UNL     1      -1.428   3.403  25.967  0.00  0.00    +0.050 A 
ATOM     21  C   UNL     1      -2.578   4.198  25.926  0.00  0.00    +0.030 A 
ENDROOT
BRANCH  13   9
ATOM      3  O   UNL     1       1.952  -0.667  20.968  0.00  0.00    -0.270 OA
ATOM      6  N   UNL     1       0.986  -1.113  23.033  0.00  0.00    -0.297 N 
ATOM      9  C   UNL     1      -0.512  -1.251  24.876  0.00  0.00    +0.094 C 
ATOM     10  C   UNL     1      -1.041  -2.110  23.716  0.00  0.00    +0.033 C 
ATOM     11  C   UNL     1       0.965  -1.078  24.496  0.00  0.00    +0.121 C 
ATOM     12  C   UNL     1      -0.282  -1.591  22.503  0.00  0.00    +0.109 C 
ATOM     14  C   UNL     1       2.006  -0.687  22.196  0.00  0.00    +0.247 C 
BRANCH  14  17
ATOM      8  N   UNL     1       5.603   0.707  24.020  0.00  0.00    -0.263 NA
ATOM     17  C   UNL     1       3.245  -0.206  22.826  0.00  0.00    +0.040 A 
ATOM     23  C   UNL     1       3.611   1.131  22.715  0.00  0.00    +0.033 A 
ATOM     24  C   UNL     1       4.056  -1.086  23.534  0.00  0.00    +0.033 A 
ATOM     26  C   UNL     1       4.788   1.534  23.324  0.00  0.00    +0.111 A 
ATOM     27  C   UNL     1       5.214  -0.585  24.107  0.00  0.00    +0.111 A 
ENDBRANCH  14  17
ENDBRANCH  13   9
BRANCH  19   1
ATOM      1  S   UNL     1      -5.213   4.722  25.470  0.00  0.00    -0.003 S 
ATOM      4  O   UNL     1      -5.247   5.501  26.699  0.00  0.00    -0.169 OA
ATOM      5  O   UNL     1      -5.236   5.399  24.182  0.00  0.00    -0.169 OA
BRANCH   1  22
ATOM     22  C   UNL     1      -6.592   3.602  25.527  0.00  0.00    +0.168 C 
ATOM     25  C   UNL     1      -6.268   2.362  26.331  0.00  0.00    +0.028 C 
ENDBRANCH   1  22
ENDBRANCH  19   1
TORSDOF 4
ENDMDL
MODEL 2
REMARK VINA RESULT:       7.9      1.226      1.885
REMARK  Name = 51137031
REMARK  5 active torsions:
REMARK  status: ('A' for Active; 'I' for Inactive)
REMARK    1  A    between atoms: S_1  and  C_19
REMARK    2  A    between atoms: S_1  and  C_22
REMARK    3  A    between atoms: C_9  and  C_13
REMARK    4  A    between atoms: C_14  and  C_17
REMARK    5  A    between atoms: C_22  and  C_25
REMARK                            x       y       z     vdW  Elec       q    Type
REMARK                         _______ _______ _______ _____ _____    ______ ____
ROOT
ATOM      2  O   UNL     1      -3.018  -0.711  25.203  0.00  0.00    -0.439 OA
ATOM      7  N   UNL     1      -1.391   0.867  25.237  0.00  0.00    -0.213 NA
ATOM     13  C   UNL     1      -1.689  -0.412  25.166  0.00  0.00    +0.201 A 
ATOM     15  C   UNL     1      -2.621   1.473  25.330  0.00  0.00    +0.111 A 
ATOM     16  C   UNL     1      -3.619   0.510  25.309  0.00  0.00    +0.155 A 
ATOM     18  C   UNL     1      -2.984   2.823  25.434  0.00  0.00    +0.058 A 
ATOM     19  C   UNL     1      -4.350   3.134  25.513  0.00  0.00    +0.090 A 
ATOM     20  C   UNL     1      -4.980   0.779  25.385  0.00  0.00    +0.050 A 
ATOM     21  C   UNL     1      -5.326   2.130  25.489  0.00  0.00    +0.030 A 
ENDROOT
BRANCH  13   9
ATOM      3  O   UNL     1       1.487  -1.034  20.999  0.00  0.00    -0.270 OA
ATOM      6  N   UNL     1       0.657  -1.430  23.132  0.00  0.00    -0.297 N 
ATOM      9  C   UNL     1      -0.745  -1.596  25.048  0.00  0.00    +0.094 C 
ATOM     10  C   UNL     1      -1.216  -2.592  23.976  0.00  0.00    +0.033 C 
ATOM     11  C   UNL     1       0.688  -1.289  24.589  0.00  0.00    +0.121 C 
ATOM     12  C   UNL     1      -0.567  -2.083  22.695  0.00  0.00    +0.109 C 
ATOM     14  C   UNL     1       1.590  -0.957  22.222  0.00  0.00    +0.247 C 
BRANCH  14  17
ATOM      8  N   UNL     1       5.071   0.958  23.776  0.00  0.00    -0.263 NA
ATOM     17  C   UNL     1       2.789  -0.296  22.759  0.00  0.00    +0.040 A 
ATOM     23  C   UNL     1       2.971   1.071  22.584  0.00  0.00    +0.033 A 
ATOM     24  C   UNL     1       3.747  -1.037  23.443  0.00  0.00    +0.033 A 
ATOM     26  C   UNL     1       4.118   1.645  23.107  0.00  0.00    +0.111 A 
ATOM     27  C   UNL     1       4.860  -0.369  23.928  0.00  0.00    +0.111 A 
ENDBRANCH  14  17
ENDBRANCH  13   9
BRANCH  19   1
ATOM      1  S   UNL     1      -4.841   4.807  25.646  0.00  0.00    -0.003 S 
ATOM      4  O   UNL     1      -6.287   4.860  25.800  0.00  0.00    -0.169 OA
ATOM      5  O   UNL     1      -3.982   5.445  26.632  0.00  0.00    -0.169 OA
BRANCH   1  22
ATOM     22  C   UNL     1      -4.462   5.504  24.055  0.00  0.00    +0.168 C 
ATOM     25  C   UNL     1      -4.033   4.439  23.070  0.00  0.00    +0.028 C 
ENDBRANCH   1  22
ENDBRANCH  19   1
TORSDOF 4
ENDMDL
MODEL 3
REMARK VINA RESULT:       8.4      3.042      8.712
REMARK  Name = 51137031
REMARK  5 active torsions:
REMARK  status: ('A' for Active; 'I' for Inactive)
REMARK    1  A    between atoms: S_1  and  C_19
REMARK    2  A    between atoms: S_1  and  C_22
REMARK    3  A    between atoms: C_9  and  C_13
REMARK    4  A    between atoms: C_14  and  C_17
REMARK    5  A    between atoms: C_22  and  C_25
REMARK                            x       y       z     vdW  Elec       q    Type
REMARK                         _______ _______ _______ _____ _____    ______ ____
ROOT
ATOM      2  O   UNL     1      -0.877   1.902  24.816  0.00  0.00    -0.439 OA
ATOM      7  N   UNL     1       0.972   3.212  24.871  0.00  0.00    -0.213 NA
ATOM     13  C   UNL     1      -0.299   3.080  25.182  0.00  0.00    +0.201 A 
ATOM     15  C   UNL     1       1.268   2.025  24.244  0.00  0.00    +0.111 A 
ATOM     16  C   UNL     1       0.139   1.220  24.209  0.00  0.00    +0.155 A 
ATOM     18  C   UNL     1       2.459   1.547  23.679  0.00  0.00    +0.058 A 
ATOM     19  C   UNL     1       2.447   0.269  23.101  0.00  0.00    +0.090 A 
ATOM     20  C   UNL     1       0.089  -0.049  23.646  0.00  0.00    +0.050 A 
ATOM     21  C   UNL     1       1.284  -0.511  23.086  0.00  0.00    +0.030 A 
ENDROOT
BRANCH  13   9
ATOM      3  O   UNL     1      -5.077   4.328  23.326  0.00  0.00    -0.270 OA
ATOM      6  N   UNL     1      -3.342   4.227  24.866  0.00  0.00    -0.297 N 
ATOM      9  C   UNL     1      -1.203   4.069  25.897  0.00  0.00    +0.094 C 
ATOM     10  C   UNL     1      -1.309   5.397  25.129  0.00  0.00    +0.033 C 
ATOM     11  C   UNL     1      -2.678   3.669  26.045  0.00  0.00    +0.121 C 
ATOM     12  C   UNL     1      -2.480   5.177  24.180  0.00  0.00    +0.109 C 
ATOM     14  C   UNL     1      -4.588   3.886  24.363  0.00  0.00    +0.247 C 
BRANCH  14  17
ATOM      8  N   UNL     1      -6.884   1.039  26.560  0.00  0.00    -0.263 NA
ATOM     17  C   UNL     1      -5.381   2.905  25.119  0.00  0.00    +0.040 A 
ATOM     23  C   UNL     1      -6.096   3.303  26.243  0.00  0.00    +0.033 A 
ATOM     24  C   UNL     1      -5.417   1.575  24.715  0.00  0.00    +0.033 A 
ATOM     26  C   UNL     1      -6.825   2.340  26.923  0.00  0.00    +0.111 A 
ATOM     27  C   UNL     1      -6.177   0.689  25.462  0.00  0.00    +0.111 A 
ENDBRANCH  14  17
ENDBRANCH  13   9
BRANCH  19   1
ATOM      1  S   UNL     1       3.913  -0.360  22.384  0.00  0.00    -0.003 S 
ATOM      4  O   UNL     1       4.009  -1.781  22.684  0.00  0.00    -0.169 OA
ATOM      5  O   UNL     1       3.963   0.095  21.003  0.00  0.00    -0.169 OA
BRANCH   1  22
ATOM     22  C   UNL     1       5.221   0.449  23.276  0.00  0.00    +0.168 C 
ATOM     25  C   UNL     1       5.698  -0.389  24.442  0.00  0.00    +0.028 C 
ENDBRANCH   1  22
ENDBRANCH  19   1
TORSDOF 4
ENDMDL
