MODEL 1
REMARK VINA RESULT:      -3.9      0.000      0.000
REMARK  Name = 45784315
REMARK  3 active torsions:
REMARK  status: ('A' for Active; 'I' for Inactive)
REMARK    1  A    between atoms: N_1  and  C_5
REMARK    2  A    between atoms: C_8  and  C_13
REMARK    3  A    between atoms: C_18  and  C_20
REMARK                            x       y       z     vdW  Elec       q    Type
REMARK                         _______ _______ _______ _____ _____    ______ ____
ROOT
ATOM      2  N   UNL     1      14.832  -6.721  28.585  0.00  0.00    -0.342 N 
ATOM      3  N   UNL     1      16.051  -5.166  29.602  0.00  0.00    -0.232 NA
ATOM     13  C   UNL     1      15.937  -5.920  28.531  0.00  0.00    +0.113 A 
ATOM     14  C   UNL     1      14.189  -6.469  29.770  0.00  0.00    +0.067 A 
ATOM     15  C   UNL     1      14.970  -5.495  30.386  0.00  0.00    +0.089 A 
ATOM     16  C   UNL     1      13.027  -6.993  30.338  0.00  0.00    +0.046 A 
ATOM     17  C   UNL     1      14.583  -5.001  31.644  0.00  0.00    +0.031 A 
ATOM     18  C   UNL     1      12.657  -6.490  31.591  0.00  0.00    +0.054 A 
ATOM     19  C   UNL     1      13.420  -5.513  32.232  0.00  0.00    +0.021 A 
ATOM     21  H   UNL     1      14.537  -7.384  27.880  0.00  0.00    +0.167 HD
ENDROOT
BRANCH  13   8
ATOM      1  N   UNL     1      17.405  -4.839  25.351  0.00  0.00    -0.299 NA
ATOM      8  C   UNL     1      16.873  -5.952  27.345  0.00  0.00    +0.070 C 
ATOM      9  C   UNL     1      17.156  -4.559  26.767  0.00  0.00    +0.096 C 
ATOM     11  C   UNL     1      16.373  -5.805  24.972  0.00  0.00    +0.085 C 
ATOM     12  C   UNL     1      16.370  -6.776  26.146  0.00  0.00    +0.028 C 
BRANCH   1   5
ATOM      5  C   UNL     1      17.291  -3.615  24.549  0.00  0.00    +0.057 C 
ATOM      6  C   UNL     1      15.854  -3.063  24.648  0.00  0.00    +0.019 C 
ATOM      7  C   UNL     1      16.968  -3.983  23.086  0.00  0.00    +0.019 C 
ATOM     10  C   UNL     1      15.908  -2.862  23.120  0.00  0.00    +0.003 C 
ENDBRANCH   1   5
ENDBRANCH  13   8
BRANCH  18  20
ATOM      4  N   UNL     1      10.517  -7.394  32.735  0.00  0.00    -0.191 NA
ATOM     20  C   UNL     1      11.476  -6.990  32.222  0.00  0.00    +0.099 C 
ENDBRANCH  18  20
TORSDOF 3
ENDMDL
MODEL 2
REMARK VINA RESULT:      -3.2      4.184      5.970
REMARK  Name = 45784315
REMARK  3 active torsions:
REMARK  status: ('A' for Active; 'I' for Inactive)
REMARK    1  A    between atoms: N_1  and  C_5
REMARK    2  A    between atoms: C_8  and  C_13
REMARK    3  A    between atoms: C_18  and  C_20
REMARK                            x       y       z     vdW  Elec       q    Type
REMARK                         _______ _______ _______ _____ _____    ______ ____
ROOT
ATOM      2  N   UNL     1      11.999  -7.078  32.275  0.00  0.00    -0.342 N 
ATOM      3  N   UNL     1      12.940  -8.999  31.672  0.00  0.00    -0.232 NA
ATOM     13  C   UNL     1      13.150  -7.726  31.924  0.00  0.00    +0.113 A 
ATOM     14  C   UNL     1      10.978  -7.992  32.248  0.00  0.00    +0.067 A 
ATOM     15  C   UNL     1      11.591  -9.183  31.868  0.00  0.00    +0.089 A 
ATOM     16  C   UNL     1       9.613  -7.883  32.514  0.00  0.00    +0.046 A 
ATOM     17  C   UNL     1      10.811 -10.345  31.742  0.00  0.00    +0.031 A 
ATOM     18  C   UNL     1       8.851  -9.050  32.383  0.00  0.00    +0.054 A 
ATOM     19  C   UNL     1       9.438 -10.259  32.005  0.00  0.00    +0.021 A 
ATOM     21  H   UNL     1      11.913  -6.098  32.514  0.00  0.00    +0.167 HD
ENDROOT
BRANCH  13   8
ATOM      1  N   UNL     1      15.425  -4.861  31.693  0.00  0.00    -0.299 NA
ATOM      8  C   UNL     1      14.472  -6.997  31.856  0.00  0.00    +0.070 C 
ATOM      9  C   UNL     1      14.411  -5.588  32.461  0.00  0.00    +0.096 C 
ATOM     11  C   UNL     1      15.218  -5.282  30.306  0.00  0.00    +0.085 C 
ATOM     12  C   UNL     1      15.023  -6.788  30.435  0.00  0.00    +0.028 C 
BRANCH   1   5
ATOM      5  C   UNL     1      15.242  -3.411  31.829  0.00  0.00    +0.057 C 
ATOM      6  C   UNL     1      16.074  -2.681  30.754  0.00  0.00    +0.019 C 
ATOM      7  C   UNL     1      16.240  -2.859  32.867  0.00  0.00    +0.019 C 
ATOM     10  C   UNL     1      16.528  -1.718  31.869  0.00  0.00    +0.003 C 
ENDBRANCH   1   5
ENDBRANCH  13   8
BRANCH  18  20
ATOM      4  N   UNL     1       6.305  -8.957  32.854  0.00  0.00    -0.191 NA
ATOM     20  C   UNL     1       7.446  -8.999  32.643  0.00  0.00    +0.099 C 
ENDBRANCH  18  20
TORSDOF 3
ENDMDL
MODEL 3
REMARK VINA RESULT:      -3.1     16.471     17.562
REMARK  Name = 45784315
REMARK  3 active torsions:
REMARK  status: ('A' for Active; 'I' for Inactive)
REMARK    1  A    between atoms: N_1  and  C_5
REMARK    2  A    between atoms: C_8  and  C_13
REMARK    3  A    between atoms: C_18  and  C_20
REMARK                            x       y       z     vdW  Elec       q    Type
REMARK                         _______ _______ _______ _____ _____    ______ ____
ROOT
ATOM      2  N   UNL     1      -1.661   0.651  23.939  0.00  0.00    -0.342 N 
ATOM      3  N   UNL     1       0.071   1.931  24.487  0.00  0.00    -0.232 NA
ATOM     13  C   UNL     1      -0.302   0.786  23.959  0.00  0.00    +0.113 A 
ATOM     14  C   UNL     1      -2.204   1.783  24.491  0.00  0.00    +0.067 A 
ATOM     15  C   UNL     1      -1.102   2.567  24.825  0.00  0.00    +0.089 A 
ATOM     16  C   UNL     1      -3.522   2.178  24.719  0.00  0.00    +0.046 A 
ATOM     17  C   UNL     1      -1.309   3.821  25.423  0.00  0.00    +0.031 A 
ATOM     18  C   UNL     1      -3.710   3.430  25.316  0.00  0.00    +0.054 A 
ATOM     19  C   UNL     1      -2.625   4.237  25.661  0.00  0.00    +0.021 A 
ATOM     21  H   UNL     1      -2.179  -0.141  23.581  0.00  0.00    +0.167 HD
ENDROOT
BRANCH  13   8
ATOM      1  N   UNL     1       2.774  -0.699  22.629  0.00  0.00    -0.299 NA
ATOM      8  C   UNL     1       0.603  -0.296  23.419  0.00  0.00    +0.070 C 
ATOM      9  C   UNL     1       2.083  -0.062  23.752  0.00  0.00    +0.096 C 
ATOM     11  C   UNL     1       2.018  -0.291  21.444  0.00  0.00    +0.085 C 
ATOM     12  C   UNL     1       0.571  -0.463  21.889  0.00  0.00    +0.028 C 
BRANCH   1   5
ATOM      5  C   UNL     1       4.165  -0.237  22.542  0.00  0.00    +0.057 C 
ATOM      6  C   UNL     1       4.963  -0.766  23.752  0.00  0.00    +0.019 C 
ATOM      7  C   UNL     1       4.284   1.165  23.174  0.00  0.00    +0.019 C 
ATOM     10  C   UNL     1       5.553   0.652  23.886  0.00  0.00    +0.003 C 
ENDBRANCH   1   5
ENDBRANCH  13   8
BRANCH  18  20
ATOM      4  N   UNL     1      -6.119   4.259  25.784  0.00  0.00    -0.191 NA
ATOM     20  C   UNL     1      -5.040   3.888  25.575  0.00  0.00    +0.099 C 
ENDBRANCH  18  20
TORSDOF 3
ENDMDL
MODEL 4
REMARK VINA RESULT:      -1.9     17.353     19.373
REMARK  Name = 45784315
REMARK  3 active torsions:
REMARK  status: ('A' for Active; 'I' for Inactive)
REMARK    1  A    between atoms: N_1  and  C_5
REMARK    2  A    between atoms: C_8  and  C_13
REMARK    3  A    between atoms: C_18  and  C_20
REMARK                            x       y       z     vdW  Elec       q    Type
REMARK                         _______ _______ _______ _____ _____    ______ ____
ROOT
ATOM      2  N   UNL     1       0.570   2.466  24.924  0.00  0.00    -0.342 N 
ATOM      3  N   UNL     1      -1.026   1.170  24.081  0.00  0.00    -0.232 NA
ATOM     13  C   UNL     1      -0.766   2.181  24.880  0.00  0.00    +0.113 A 
ATOM     14  C   UNL     1       1.215   1.581  24.099  0.00  0.00    +0.067 A 
ATOM     15  C   UNL     1       0.197   0.783  23.585  0.00  0.00    +0.089 A 
ATOM     16  C   UNL     1       2.560   1.415  23.769  0.00  0.00    +0.046 A 
ATOM     17  C   UNL     1       0.521  -0.247  22.685  0.00  0.00    +0.031 A 
ATOM     18  C   UNL     1       2.866   0.385  22.872  0.00  0.00    +0.054 A 
ATOM     19  C   UNL     1       1.866  -0.431  22.339  0.00  0.00    +0.021 A 
ATOM     21  H   UNL     1       1.008   3.199  25.467  0.00  0.00    +0.167 HD
ENDROOT
BRANCH  13   8
ATOM      1  N   UNL     1      -4.036   3.553  25.805  0.00  0.00    -0.299 NA
ATOM      8  C   UNL     1      -1.766   2.978  25.684  0.00  0.00    +0.070 C 
ATOM      9  C   UNL     1      -3.178   2.376  25.650  0.00  0.00    +0.096 C 
ATOM     11  C   UNL     1      -3.443   4.568  24.932  0.00  0.00    +0.085 C 
ATOM     12  C   UNL     1      -1.953   4.435  25.223  0.00  0.00    +0.028 C 
BRANCH   1   5
ATOM      5  C   UNL     1      -5.412   3.253  25.392  0.00  0.00    +0.057 C 
ATOM      6  C   UNL     1      -6.021   2.201  26.342  0.00  0.00    +0.019 C 
ATOM      7  C   UNL     1      -5.399   2.155  24.308  0.00  0.00    +0.019 C 
ATOM     10  C   UNL     1      -6.551   1.483  25.085  0.00  0.00    +0.003 C 
ENDBRANCH   1   5
ENDBRANCH  13   8
BRANCH  18  20
ATOM      4  N   UNL     1       5.334  -0.009  22.192  0.00  0.00    -0.191 NA
ATOM     20  C   UNL     1       4.228   0.167  22.496  0.00  0.00    +0.099 C 
ENDBRANCH  18  20
TORSDOF 3
ENDMDL
MODEL 5
REMARK VINA RESULT:      -1.8     16.556     17.821
REMARK  Name = 45784315
REMARK  3 active torsions:
REMARK  status: ('A' for Active; 'I' for Inactive)
REMARK    1  A    between atoms: N_1  and  C_5
REMARK    2  A    between atoms: C_8  and  C_13
REMARK    3  A    between atoms: C_18  and  C_20
REMARK                            x       y       z     vdW  Elec       q    Type
REMARK                         _______ _______ _______ _____ _____    ______ ____
ROOT
ATOM      2  N   UNL     1      -1.201   1.075  23.825  0.00  0.00    -0.342 N 
ATOM      3  N   UNL     1      -2.092  -0.925  24.208  0.00  0.00    -0.232 NA
ATOM     13  C   UNL     1      -1.032  -0.280  23.771  0.00  0.00    +0.113 A 
ATOM     14  C   UNL     1      -2.452   1.323  24.330  0.00  0.00    +0.067 A 
ATOM     15  C   UNL     1      -2.987   0.058  24.561  0.00  0.00    +0.089 A 
ATOM     16  C   UNL     1      -3.139   2.507  24.596  0.00  0.00    +0.046 A 
ATOM     17  C   UNL     1      -4.284  -0.050  25.090  0.00  0.00    +0.031 A 
ATOM     18  C   UNL     1      -4.430   2.380  25.122  0.00  0.00    +0.054 A 
ATOM     19  C   UNL     1      -4.993   1.126  25.365  0.00  0.00    +0.021 A 
ATOM     21  H   UNL     1      -0.525   1.774  23.544  0.00  0.00    +0.167 HD
ENDROOT
BRANCH  13   8
ATOM      1  N   UNL     1       2.573  -0.584  23.186  0.00  0.00    -0.299 NA
ATOM      8  C   UNL     1       0.250  -0.892  23.257  0.00  0.00    +0.070 C 
ATOM      9  C   UNL     1       1.463  -0.572  24.141  0.00  0.00    +0.096 C 
ATOM     11  C   UNL     1       2.068   0.134  22.014  0.00  0.00    +0.085 C 
ATOM     12  C   UNL     1       0.665  -0.436  21.847  0.00  0.00    +0.028 C 
BRANCH   1   5
ATOM      5  C   UNL     1       3.749   0.095  23.744  0.00  0.00    +0.057 C 
ATOM      6  C   UNL     1       4.595   0.690  22.599  0.00  0.00    +0.019 C 
ATOM      7  C   UNL     1       4.886  -0.926  23.951  0.00  0.00    +0.019 C 
ATOM     10  C   UNL     1       5.833   0.116  23.318  0.00  0.00    +0.003 C 
ENDBRANCH   1   5
ENDBRANCH  13   8
BRANCH  18  20
ATOM      4  N   UNL     1      -5.795   4.517  25.654  0.00  0.00    -0.191 NA
ATOM     20  C   UNL     1      -5.183   3.560  25.416  0.00  0.00    +0.099 C 
ENDBRANCH  18  20
TORSDOF 3
ENDMDL
MODEL 6
REMARK VINA RESULT:      -1.1     16.714     18.796
REMARK  Name = 45784315
REMARK  3 active torsions:
REMARK  status: ('A' for Active; 'I' for Inactive)
REMARK    1  A    between atoms: N_1  and  C_5
REMARK    2  A    between atoms: C_8  and  C_13
REMARK    3  A    between atoms: C_18  and  C_20
REMARK                            x       y       z     vdW  Elec       q    Type
REMARK                         _______ _______ _______ _____ _____    ______ ____
ROOT
ATOM      2  N   UNL     1       0.027  -1.018  23.810  0.00  0.00    -0.342 N 
ATOM      3  N   UNL     1      -0.598   1.111  23.686  0.00  0.00    -0.232 NA
ATOM     13  C   UNL     1      -1.007  -0.126  23.864  0.00  0.00    +0.113 A 
ATOM     14  C   UNL     1       1.180  -0.312  23.582  0.00  0.00    +0.067 A 
ATOM     15  C   UNL     1       0.763   1.015  23.508  0.00  0.00    +0.089 A 
ATOM     16  C   UNL     1       2.510  -0.706  23.439  0.00  0.00    +0.046 A 
ATOM     17  C   UNL     1       1.717   2.021  23.279  0.00  0.00    +0.031 A 
ATOM     18  C   UNL     1       3.446   0.308  23.210  0.00  0.00    +0.054 A 
ATOM     19  C   UNL     1       3.058   1.647  23.132  0.00  0.00    +0.021 A 
ATOM     21  H   UNL     1      -0.043  -2.022  23.919  0.00  0.00    +0.167 HD
ENDROOT
BRANCH  13   8
ATOM      1  N   UNL     1      -4.585   0.195  24.594  0.00  0.00    -0.299 NA
ATOM      8  C   UNL     1      -2.427  -0.582  24.104  0.00  0.00    +0.070 C 
ATOM      9  C   UNL     1      -3.471   0.460  23.680  0.00  0.00    +0.096 C 
ATOM     11  C   UNL     1      -3.957  -0.006  25.901  0.00  0.00    +0.085 C 
ATOM     12  C   UNL     1      -2.766  -0.898  25.572  0.00  0.00    +0.028 C 
BRANCH   1   5
ATOM      5  C   UNL     1      -5.511   1.334  24.632  0.00  0.00    +0.057 C 
ATOM      6  C   UNL     1      -4.728   2.646  24.418  0.00  0.00    +0.019 C 
ATOM      7  C   UNL     1      -5.716   1.784  26.093  0.00  0.00    +0.019 C 
ATOM     10  C   UNL     1      -5.541   3.233  25.589  0.00  0.00    +0.003 C 
ENDBRANCH   1   5
ENDBRANCH  13   8
BRANCH  18  20
ATOM      4  N   UNL     1       5.945  -0.315  22.930  0.00  0.00    -0.191 NA
ATOM     20  C   UNL     1       4.825  -0.036  23.055  0.00  0.00    +0.099 C 
ENDBRANCH  18  20
TORSDOF 3
ENDMDL
MODEL 7
REMARK VINA RESULT:      -0.9      4.183      5.004
REMARK  Name = 45784315
REMARK  3 active torsions:
REMARK  status: ('A' for Active; 'I' for Inactive)
REMARK    1  A    between atoms: N_1  and  C_5
REMARK    2  A    between atoms: C_8  and  C_13
REMARK    3  A    between atoms: C_18  and  C_20
REMARK                            x       y       z     vdW  Elec       q    Type
REMARK                         _______ _______ _______ _____ _____    ______ ____
ROOT
ATOM      2  N   UNL     1      13.683  -5.968  32.416  0.00  0.00    -0.342 N 
ATOM      3  N   UNL     1      14.815  -7.825  32.870  0.00  0.00    -0.232 NA
ATOM     13  C   UNL     1      14.904  -6.529  32.663  0.00  0.00    +0.113 A 
ATOM     14  C   UNL     1      12.744  -6.965  32.465  0.00  0.00    +0.067 A 
ATOM     15  C   UNL     1      13.476  -8.115  32.750  0.00  0.00    +0.089 A 
ATOM     16  C   UNL     1      11.360  -6.962  32.291  0.00  0.00    +0.046 A 
ATOM     17  C   UNL     1      12.804  -9.343  32.873  0.00  0.00    +0.031 A 
ATOM     18  C   UNL     1      10.706  -8.193  32.416  0.00  0.00    +0.054 A 
ATOM     19  C   UNL     1      11.413  -9.362  32.702  0.00  0.00    +0.021 A 
ATOM     21  H   UNL     1      13.501  -4.990  32.229  0.00  0.00    +0.167 HD
ENDROOT
BRANCH  13   8
ATOM      1  N   UNL     1      17.090  -3.690  31.895  0.00  0.00    -0.299 NA
ATOM      8  C   UNL     1      16.163  -5.695  32.681  0.00  0.00    +0.070 C 
ATOM      9  C   UNL     1      15.887  -4.190  32.563  0.00  0.00    +0.096 C 
ATOM     11  C   UNL     1      17.365  -4.665  30.838  0.00  0.00    +0.085 C 
ATOM     12  C   UNL     1      17.156  -5.998  31.544  0.00  0.00    +0.028 C 
BRANCH   1   5
ATOM      5  C   UNL     1      16.855  -2.358  31.326  0.00  0.00    +0.057 C 
ATOM      6  C   UNL     1      15.442  -2.300  30.710  0.00  0.00    +0.019 C 
ATOM      7  C   UNL     1      17.402  -2.308  29.884  0.00  0.00    +0.019 C 
ATOM     10  C   UNL     1      16.084  -1.608  29.491  0.00  0.00    +0.003 C 
ENDBRANCH   1   5
ENDBRANCH  13   8
BRANCH  18  20
ATOM      4  N   UNL     1       8.136  -8.298  32.113  0.00  0.00    -0.191 NA
ATOM     20  C   UNL     1       9.287  -8.251  32.248  0.00  0.00    +0.099 C 
ENDBRANCH  18  20
TORSDOF 3
ENDMDL
