MODEL 1
REMARK VINA RESULT:      -6.1      0.000      0.000
REMARK  Name = 40777961
REMARK  10 active torsions:
REMARK  status: ('A' for Active; 'I' for Inactive)
REMARK    1  A    between atoms: O_2  and  C_8
REMARK    2  A    between atoms: O_3  and  C_10
REMARK    3  A    between atoms: N_6  and  C_13
REMARK    4  A    between atoms: N_7  and  C_15
REMARK    5  A    between atoms: N_7  and  C_17
REMARK    6  A    between atoms: C_9  and  C_12
REMARK    7  A    between atoms: C_11  and  C_13
REMARK    8  A    between atoms: C_12  and  C_14
REMARK    9  A    between atoms: C_15  and  C_18
REMARK   10  A    between atoms: C_16  and  C_19
REMARK                            x       y       z     vdW  Elec       q    Type
REMARK                         _______ _______ _______ _____ _____    ______ ____
ROOT
ATOM      1  O   UNL     1      -1.632   3.222  23.219  0.00  0.00    -0.366 OA
ATOM      8  C   UNL     1      -2.363   3.527  25.440  0.00  0.00    +0.175 C 
ATOM      9  C   UNL     1      -2.751   3.707  23.983  0.00  0.00    +0.159 C 
ATOM     10  C   UNL     1      -0.875   3.814  25.395  0.00  0.00    +0.176 C 
ATOM     11  C   UNL     1      -0.468   3.171  24.074  0.00  0.00    +0.167 C 
ENDROOT
BRANCH   8   2
ATOM      2  O   UNL     1      -3.075   4.400  26.289  0.00  0.00    -0.387 OA
ATOM     25  H   UNL     1      -2.449   4.737  26.953  0.00  0.00    +0.210 HD
ENDBRANCH   8   2
BRANCH  10   3
ATOM      3  O   UNL     1      -0.646   5.220  25.292  0.00  0.00    -0.387 OA
ATOM     26  H   UNL     1      -1.514   5.654  25.247  0.00  0.00    +0.210 HD
ENDBRANCH  10   3
BRANCH   9  12
ATOM     12  C   UNL     1      -4.004   2.942  23.595  0.00  0.00    +0.130 C 
BRANCH  12  14
ATOM      4  O   UNL     1      -3.130   0.761  23.121  0.00  0.00    -0.276 OA
ATOM      7  N   UNL     1      -4.641   0.912  24.874  0.00  0.00    -0.300 N 
ATOM     14  C   UNL     1      -3.876   1.442  23.830  0.00  0.00    +0.218 C 
ATOM     17  C   UNL     1      -5.516   1.736  25.699  0.00  0.00    +0.132 C 
BRANCH   7  15
ATOM     15  C   UNL     1      -4.621  -0.508  25.217  0.00  0.00    +0.142 C 
BRANCH  15  18
ATOM     18  C   UNL     1      -3.229  -1.070  25.199  0.00  0.00    -0.030 A 
ATOM     20  C   UNL     1      -2.238  -0.504  26.001  0.00  0.00    +0.005 A 
ATOM     21  C   UNL     1      -2.927  -2.159  24.380  0.00  0.00    +0.005 A 
ATOM     22  C   UNL     1      -0.944  -1.027  25.984  0.00  0.00    +0.000 A 
ATOM     23  C   UNL     1      -1.633  -2.680  24.364  0.00  0.00    +0.000 A 
ATOM     24  C   UNL     1      -0.642  -2.114  25.166  0.00  0.00    +0.000 A 
ENDBRANCH  15  18
ENDBRANCH   7  15
ENDBRANCH  12  14
ENDBRANCH   9  12
BRANCH  11  13
ATOM     13  C   UNL     1      -0.064   1.710  24.223  0.00  0.00    +0.138 C 
BRANCH  13   6
ATOM      5  O   UNL     1       0.995  -0.389  22.520  0.00  0.00    -0.276 OA
ATOM      6  N   UNL     1       1.301   1.508  23.837  0.00  0.00    -0.313 N 
ATOM     16  C   UNL     1       1.722   0.470  23.013  0.00  0.00    +0.210 C 
ATOM     19  C   UNL     1       3.203   0.505  22.747  0.00  0.00    +0.109 C 
ATOM     27  H   UNL     1       1.990   2.175  24.176  0.00  0.00    +0.149 HD
ENDBRANCH  13   6
ENDBRANCH  11  13
TORSDOF 8
ENDMDL
MODEL 2
REMARK VINA RESULT:      -6.0      2.036      5.196
REMARK  Name = 40777961
REMARK  10 active torsions:
REMARK  status: ('A' for Active; 'I' for Inactive)
REMARK    1  A    between atoms: O_2  and  C_8
REMARK    2  A    between atoms: O_3  and  C_10
REMARK    3  A    between atoms: N_6  and  C_13
REMARK    4  A    between atoms: N_7  and  C_15
REMARK    5  A    between atoms: N_7  and  C_17
REMARK    6  A    between atoms: C_9  and  C_12
REMARK    7  A    between atoms: C_11  and  C_13
REMARK    8  A    between atoms: C_12  and  C_14
REMARK    9  A    between atoms: C_15  and  C_18
REMARK   10  A    between atoms: C_16  and  C_19
REMARK                            x       y       z     vdW  Elec       q    Type
REMARK                         _______ _______ _______ _____ _____    ______ ____
ROOT
ATOM      1  O   UNL     1      -0.584   1.010  23.797  0.00  0.00    -0.366 OA
ATOM      8  C   UNL     1       1.767   0.845  23.732  0.00  0.00    +0.175 C 
ATOM      9  C   UNL     1       0.603   1.820  23.729  0.00  0.00    +0.159 C 
ATOM     10  C   UNL     1       1.197  -0.311  22.935  0.00  0.00    +0.176 C 
ATOM     11  C   UNL     1      -0.250  -0.344  23.414  0.00  0.00    +0.167 C 
ENDROOT
BRANCH   8   2
ATOM      2  O   UNL     1       2.928   1.403  23.155  0.00  0.00    -0.387 OA
ATOM     25  H   UNL     1       2.711   2.313  22.887  0.00  0.00    +0.210 HD
ENDBRANCH   8   2
BRANCH  10   3
ATOM      3  O   UNL     1       1.194   0.003  21.542  0.00  0.00    -0.387 OA
ATOM     26  H   UNL     1       1.260  -0.835  21.055  0.00  0.00    +0.210 HD
ENDBRANCH  10   3
BRANCH   9  12
ATOM     12  C   UNL     1       0.627   2.789  24.898  0.00  0.00    +0.130 C 
BRANCH  12  14
ATOM      4  O   UNL     1      -1.100   1.909  26.306  0.00  0.00    -0.276 OA
ATOM      7  N   UNL     1      -1.427   4.054  25.486  0.00  0.00    -0.300 N 
ATOM     14  C   UNL     1      -0.706   2.863  25.630  0.00  0.00    +0.218 C 
ATOM     17  C   UNL     1      -0.942   5.169  24.682  0.00  0.00    +0.132 C 
BRANCH   7  15
ATOM     15  C   UNL     1      -2.721   4.269  26.130  0.00  0.00    +0.142 C 
BRANCH  15  18
ATOM     18  C   UNL     1      -3.785   3.375  25.564  0.00  0.00    -0.030 A 
ATOM     20  C   UNL     1      -4.913   3.065  26.324  0.00  0.00    +0.005 A 
ATOM     21  C   UNL     1      -3.646   2.852  24.278  0.00  0.00    +0.005 A 
ATOM     22  C   UNL     1      -5.902   2.233  25.799  0.00  0.00    +0.000 A 
ATOM     23  C   UNL     1      -4.635   2.020  23.754  0.00  0.00    +0.000 A 
ATOM     24  C   UNL     1      -5.763   1.711  24.514  0.00  0.00    +0.000 A 
ENDBRANCH  15  18
ENDBRANCH   7  15
ENDBRANCH  12  14
ENDBRANCH   9  12
BRANCH  11  13
ATOM     13  C   UNL     1      -0.453  -1.235  24.632  0.00  0.00    +0.138 C 
BRANCH  13   6
ATOM      5  O   UNL     1      -3.221  -0.720  25.344  0.00  0.00    -0.276 OA
ATOM      6  N   UNL     1      -1.576  -2.109  24.453  0.00  0.00    -0.313 N 
ATOM     16  C   UNL     1      -2.874  -1.779  24.825  0.00  0.00    +0.210 C 
ATOM     19  C   UNL     1      -3.864  -2.865  24.503  0.00  0.00    +0.109 C 
ATOM     27  H   UNL     1      -1.406  -3.010  24.015  0.00  0.00    +0.149 HD
ENDBRANCH  13   6
ENDBRANCH  11  13
TORSDOF 8
ENDMDL
MODEL 3
REMARK VINA RESULT:      -5.6      1.854      5.736
REMARK  Name = 40777961
REMARK  10 active torsions:
REMARK  status: ('A' for Active; 'I' for Inactive)
REMARK    1  A    between atoms: O_2  and  C_8
REMARK    2  A    between atoms: O_3  and  C_10
REMARK    3  A    between atoms: N_6  and  C_13
REMARK    4  A    between atoms: N_7  and  C_15
REMARK    5  A    between atoms: N_7  and  C_17
REMARK    6  A    between atoms: C_9  and  C_12
REMARK    7  A    between atoms: C_11  and  C_13
REMARK    8  A    between atoms: C_12  and  C_14
REMARK    9  A    between atoms: C_15  and  C_18
REMARK   10  A    between atoms: C_16  and  C_19
REMARK                            x       y       z     vdW  Elec       q    Type
REMARK                         _______ _______ _______ _____ _____    ______ ____
ROOT
ATOM      1  O   UNL     1      -2.578   1.247  23.743  0.00  0.00    -0.366 OA
ATOM      8  C   UNL     1      -3.188   0.059  25.687  0.00  0.00    +0.175 C 
ATOM      9  C   UNL     1      -2.081   0.261  24.667  0.00  0.00    +0.159 C 
ATOM     10  C   UNL     1      -4.426   0.211  24.826  0.00  0.00    +0.176 C 
ATOM     11  C   UNL     1      -4.015   1.330  23.875  0.00  0.00    +0.167 C 
ENDROOT
BRANCH   8   2
ATOM      2  O   UNL     1      -3.100  -1.197  26.322  0.00  0.00    -0.387 OA
ATOM     25  H   UNL     1      -2.292  -1.195  26.864  0.00  0.00    +0.210 HD
ENDBRANCH   8   2
BRANCH  10   3
ATOM      3  O   UNL     1      -4.639  -0.970  24.053  0.00  0.00    -0.387 OA
ATOM     26  H   UNL     1      -3.850  -1.101  23.499  0.00  0.00    +0.210 HD
ENDBRANCH  10   3
BRANCH   9  12
ATOM     12  C   UNL     1      -0.779   0.746  25.279  0.00  0.00    +0.130 C 
BRANCH  12  14
ATOM      4  O   UNL     1       0.821   2.131  24.155  0.00  0.00    -0.276 OA
ATOM      7  N   UNL     1       0.642  -0.058  23.409  0.00  0.00    -0.300 N 
ATOM     14  C   UNL     1       0.299   1.016  24.237  0.00  0.00    +0.218 C 
ATOM     17  C   UNL     1       0.011  -1.367  23.525  0.00  0.00    +0.132 C 
BRANCH   7  15
ATOM     15  C   UNL     1       1.659   0.052  22.365  0.00  0.00    +0.142 C 
BRANCH  15  18
ATOM     18  C   UNL     1       3.047  -0.098  22.915  0.00  0.00    -0.030 A 
ATOM     20  C   UNL     1       3.943   0.968  22.847  0.00  0.00    +0.005 A 
ATOM     21  C   UNL     1       3.441  -1.305  23.494  0.00  0.00    +0.005 A 
ATOM     22  C   UNL     1       5.234   0.829  23.359  0.00  0.00    +0.000 A 
ATOM     23  C   UNL     1       4.732  -1.444  24.005  0.00  0.00    +0.000 A 
ATOM     24  C   UNL     1       5.628  -0.377  23.937  0.00  0.00    +0.000 A 
ENDBRANCH  15  18
ENDBRANCH   7  15
ENDBRANCH  12  14
ENDBRANCH   9  12
BRANCH  11  13
ATOM     13  C   UNL     1      -4.355   2.717  24.405  0.00  0.00    +0.138 C 
BRANCH  13   6
ATOM      5  O   UNL     1      -2.899   3.896  26.623  0.00  0.00    -0.276 OA
ATOM      6  N   UNL     1      -3.220   3.590  24.336  0.00  0.00    -0.313 N 
ATOM     16  C   UNL     1      -2.581   4.111  25.456  0.00  0.00    +0.210 C 
ATOM     19  C   UNL     1      -1.403   4.978  25.101  0.00  0.00    +0.109 C 
ATOM     27  H   UNL     1      -2.859   3.821  23.414  0.00  0.00    +0.149 HD
ENDBRANCH  13   6
ENDBRANCH  11  13
TORSDOF 8
ENDMDL
MODEL 4
REMARK VINA RESULT:      -5.6      1.541      1.917
REMARK  Name = 40777961
REMARK  10 active torsions:
REMARK  status: ('A' for Active; 'I' for Inactive)
REMARK    1  A    between atoms: O_2  and  C_8
REMARK    2  A    between atoms: O_3  and  C_10
REMARK    3  A    between atoms: N_6  and  C_13
REMARK    4  A    between atoms: N_7  and  C_15
REMARK    5  A    between atoms: N_7  and  C_17
REMARK    6  A    between atoms: C_9  and  C_12
REMARK    7  A    between atoms: C_11  and  C_13
REMARK    8  A    between atoms: C_12  and  C_14
REMARK    9  A    between atoms: C_15  and  C_18
REMARK   10  A    between atoms: C_16  and  C_19
REMARK                            x       y       z     vdW  Elec       q    Type
REMARK                         _______ _______ _______ _____ _____    ______ ____
ROOT
ATOM      1  O   UNL     1      -0.233   3.068  23.728  0.00  0.00    -0.366 OA
ATOM      8  C   UNL     1      -1.261   2.362  25.729  0.00  0.00    +0.175 C 
ATOM      9  C   UNL     1      -1.176   3.499  24.726  0.00  0.00    +0.159 C 
ATOM     10  C   UNL     1       0.166   1.855  25.735  0.00  0.00    +0.176 C 
ATOM     11  C   UNL     1       0.554   1.981  24.266  0.00  0.00    +0.167 C 
ENDROOT
BRANCH   8   2
ATOM      2  O   UNL     1      -1.703   2.805  26.994  0.00  0.00    -0.387 OA
ATOM     25  H   UNL     1      -2.582   2.418  27.148  0.00  0.00    +0.210 HD
ENDBRANCH   8   2
BRANCH  10   3
ATOM      3  O   UNL     1       1.001   2.735  26.489  0.00  0.00    -0.387 OA
ATOM     26  H   UNL     1       0.710   2.688  27.416  0.00  0.00    +0.210 HD
ENDBRANCH  10   3
BRANCH   9  12
ATOM     12  C   UNL     1      -2.505   3.821  24.066  0.00  0.00    +0.130 C 
BRANCH  12  14
ATOM      4  O   UNL     1      -3.017   1.857  22.793  0.00  0.00    -0.276 OA
ATOM      7  N   UNL     1      -4.410   2.318  24.590  0.00  0.00    -0.300 N 
ATOM     14  C   UNL     1      -3.323   2.577  23.748  0.00  0.00    +0.218 C 
ATOM     17  C   UNL     1      -4.752   3.183  25.713  0.00  0.00    +0.132 C 
BRANCH   7  15
ATOM     15  C   UNL     1      -5.284   1.161  24.408  0.00  0.00    +0.142 C 
BRANCH  15  18
ATOM     18  C   UNL     1      -4.564  -0.131  24.657  0.00  0.00    -0.030 A 
ATOM     20  C   UNL     1      -3.850  -0.315  25.842  0.00  0.00    +0.005 A 
ATOM     21  C   UNL     1      -4.608  -1.150  23.705  0.00  0.00    +0.005 A 
ATOM     22  C   UNL     1      -3.180  -1.517  26.074  0.00  0.00    +0.000 A 
ATOM     23  C   UNL     1      -3.938  -2.351  23.937  0.00  0.00    +0.000 A 
ATOM     24  C   UNL     1      -3.224  -2.534  25.122  0.00  0.00    +0.000 A 
ENDBRANCH  15  18
ENDBRANCH   7  15
ENDBRANCH  12  14
ENDBRANCH   9  12
BRANCH  11  13
ATOM     13  C   UNL     1       0.236   0.731  23.457  0.00  0.00    +0.138 C 
BRANCH  13   6
ATOM      5  O   UNL     1       2.993   1.313  22.758  0.00  0.00    -0.276 OA
ATOM      6  N   UNL     1       1.343  -0.179  23.451  0.00  0.00    -0.313 N 
ATOM     16  C   UNL     1       2.638   0.188  23.101  0.00  0.00    +0.210 C 
ATOM     19  C   UNL     1       3.613  -0.954  23.205  0.00  0.00    +0.109 C 
ATOM     27  H   UNL     1       1.166  -1.138  23.737  0.00  0.00    +0.149 HD
ENDBRANCH  13   6
ENDBRANCH  11  13
TORSDOF 8
ENDMDL
MODEL 5
REMARK VINA RESULT:      -5.5      1.754      2.662
REMARK  Name = 40777961
REMARK  10 active torsions:
REMARK  status: ('A' for Active; 'I' for Inactive)
REMARK    1  A    between atoms: O_2  and  C_8
REMARK    2  A    between atoms: O_3  and  C_10
REMARK    3  A    between atoms: N_6  and  C_13
REMARK    4  A    between atoms: N_7  and  C_15
REMARK    5  A    between atoms: N_7  and  C_17
REMARK    6  A    between atoms: C_9  and  C_12
REMARK    7  A    between atoms: C_11  and  C_13
REMARK    8  A    between atoms: C_12  and  C_14
REMARK    9  A    between atoms: C_15  and  C_18
REMARK   10  A    between atoms: C_16  and  C_19
REMARK                            x       y       z     vdW  Elec       q    Type
REMARK                         _______ _______ _______ _____ _____    ______ ____
ROOT
ATOM      1  O   UNL     1      -0.359   3.401  24.055  0.00  0.00    -0.366 OA
ATOM      8  C   UNL     1      -1.374   2.856  26.113  0.00  0.00    +0.175 C 
ATOM      9  C   UNL     1      -1.249   3.936  25.052  0.00  0.00    +0.159 C 
ATOM     10  C   UNL     1       0.022   2.267  26.111  0.00  0.00    +0.176 C 
ATOM     11  C   UNL     1       0.378   2.297  24.629  0.00  0.00    +0.167 C 
ENDROOT
BRANCH   8   2
ATOM      2  O   UNL     1      -1.756   3.386  27.364  0.00  0.00    -0.387 OA
ATOM     25  H   UNL     1      -2.446   4.051  27.201  0.00  0.00    +0.210 HD
ENDBRANCH   8   2
BRANCH  10   3
ATOM      3  O   UNL     1       0.925   3.131  26.801  0.00  0.00    -0.387 OA
ATOM     26  H   UNL     1       1.726   2.617  26.997  0.00  0.00    +0.210 HD
ENDBRANCH  10   3
BRANCH   9  12
ATOM     12  C   UNL     1      -2.574   4.303  24.408  0.00  0.00    +0.130 C 
BRANCH  12  14
ATOM      4  O   UNL     1      -4.388   3.667  25.838  0.00  0.00    -0.276 OA
ATOM      7  N   UNL     1      -3.934   2.257  24.053  0.00  0.00    -0.300 N 
ATOM     14  C   UNL     1      -3.714   3.391  24.842  0.00  0.00    +0.218 C 
ATOM     17  C   UNL     1      -3.125   1.952  22.880  0.00  0.00    +0.132 C 
BRANCH   7  15
ATOM     15  C   UNL     1      -4.992   1.292  24.347  0.00  0.00    +0.142 C 
BRANCH  15  18
ATOM     18  C   UNL     1      -4.439  -0.067  24.663  0.00  0.00    -0.030 A 
ATOM     20  C   UNL     1      -4.574  -1.107  23.743  0.00  0.00    +0.005 A 
ATOM     21  C   UNL     1      -3.792  -0.291  25.879  0.00  0.00    +0.005 A 
ATOM     22  C   UNL     1      -4.060  -2.370  24.037  0.00  0.00    +0.000 A 
ATOM     23  C   UNL     1      -3.280  -1.555  26.173  0.00  0.00    +0.000 A 
ATOM     24  C   UNL     1      -3.414  -2.594  25.252  0.00  0.00    +0.000 A 
ENDBRANCH  15  18
ENDBRANCH   7  15
ENDBRANCH  12  14
ENDBRANCH   9  12
BRANCH  11  13
ATOM     13  C   UNL     1      -0.034   1.030  23.892  0.00  0.00    +0.138 C 
BRANCH  13   6
ATOM      5  O   UNL     1      -0.797  -1.704  23.277  0.00  0.00    -0.276 OA
ATOM      6  N   UNL     1       0.140  -0.129  24.717  0.00  0.00    -0.313 N 
ATOM     16  C   UNL     1      -0.257  -1.407  24.341  0.00  0.00    +0.210 C 
ATOM     19  C   UNL     1       0.065  -2.445  25.382  0.00  0.00    +0.109 C 
ATOM     27  H   UNL     1       0.595  -0.002  25.617  0.00  0.00    +0.149 HD
ENDBRANCH  13   6
ENDBRANCH  11  13
TORSDOF 8
ENDMDL
MODEL 6
REMARK VINA RESULT:      -5.4      1.729      4.629
REMARK  Name = 40777961
REMARK  10 active torsions:
REMARK  status: ('A' for Active; 'I' for Inactive)
REMARK    1  A    between atoms: O_2  and  C_8
REMARK    2  A    between atoms: O_3  and  C_10
REMARK    3  A    between atoms: N_6  and  C_13
REMARK    4  A    between atoms: N_7  and  C_15
REMARK    5  A    between atoms: N_7  and  C_17
REMARK    6  A    between atoms: C_9  and  C_12
REMARK    7  A    between atoms: C_11  and  C_13
REMARK    8  A    between atoms: C_12  and  C_14
REMARK    9  A    between atoms: C_15  and  C_18
REMARK   10  A    between atoms: C_16  and  C_19
REMARK                            x       y       z     vdW  Elec       q    Type
REMARK                         _______ _______ _______ _____ _____    ______ ____
ROOT
ATOM      1  O   UNL     1      -2.257  -0.100  25.347  0.00  0.00    -0.366 OA
ATOM      8  C   UNL     1      -2.931  -1.915  24.002  0.00  0.00    +0.175 C 
ATOM      9  C   UNL     1      -3.380  -0.965  25.098  0.00  0.00    +0.159 C 
ATOM     10  C   UNL     1      -1.469  -2.110  24.349  0.00  0.00    +0.176 C 
ATOM     11  C   UNL     1      -1.064  -0.715  24.811  0.00  0.00    +0.167 C 
ENDROOT
BRANCH   8   2
ATOM      2  O   UNL     1      -3.672  -3.116  24.006  0.00  0.00    -0.387 OA
ATOM     25  H   UNL     1      -3.547  -3.533  24.876  0.00  0.00    +0.210 HD
ENDBRANCH   8   2
BRANCH  10   3
ATOM      3  O   UNL     1      -1.338  -2.999  25.459  0.00  0.00    -0.387 OA
ATOM     26  H   UNL     1      -1.770  -2.577  26.221  0.00  0.00    +0.210 HD
ENDBRANCH  10   3
BRANCH   9  12
ATOM     12  C   UNL     1      -4.590  -0.132  24.715  0.00  0.00    +0.130 C 
BRANCH  12  14
ATOM      4  O   UNL     1      -3.519   1.571  23.414  0.00  0.00    -0.276 OA
ATOM      7  N   UNL     1      -4.758   2.289  25.239  0.00  0.00    -0.300 N 
ATOM     14  C   UNL     1      -4.233   1.312  24.386  0.00  0.00    +0.218 C 
ATOM     17  C   UNL     1      -5.600   1.958  26.383  0.00  0.00    +0.132 C 
BRANCH   7  15
ATOM     15  C   UNL     1      -4.501   3.715  25.049  0.00  0.00    +0.142 C 
BRANCH  15  18
ATOM     18  C   UNL     1      -3.035   4.033  25.099  0.00  0.00    -0.030 A 
ATOM     20  C   UNL     1      -2.570   5.260  24.626  0.00  0.00    +0.005 A 
ATOM     21  C   UNL     1      -2.137   3.101  25.619  0.00  0.00    +0.005 A 
ATOM     22  C   UNL     1      -1.208   5.555  24.673  0.00  0.00    +0.000 A 
ATOM     23  C   UNL     1      -0.774   3.397  25.665  0.00  0.00    +0.000 A 
ATOM     24  C   UNL     1      -0.310   4.624  25.192  0.00  0.00    +0.000 A 
ENDBRANCH  15  18
ENDBRANCH   7  15
ENDBRANCH  12  14
ENDBRANCH   9  12
BRANCH  11  13
ATOM     13  C   UNL     1      -0.557   0.165  23.675  0.00  0.00    +0.138 C 
BRANCH  13   6
ATOM      5  O   UNL     1       1.316  -0.372  21.522  0.00  0.00    -0.276 OA
ATOM      6  N   UNL     1       0.871   0.287  23.712  0.00  0.00    -0.313 N 
ATOM     16  C   UNL     1       1.695   0.007  22.628  0.00  0.00    +0.210 C 
ATOM     19  C   UNL     1       3.150   0.243  22.930  0.00  0.00    +0.109 C 
ATOM     27  H   UNL     1       1.293   0.613  24.577  0.00  0.00    +0.149 HD
ENDBRANCH  13   6
ENDBRANCH  11  13
TORSDOF 8
ENDMDL
MODEL 7
REMARK VINA RESULT:      -4.3      2.032      6.308
REMARK  Name = 40777961
REMARK  10 active torsions:
REMARK  status: ('A' for Active; 'I' for Inactive)
REMARK    1  A    between atoms: O_2  and  C_8
REMARK    2  A    between atoms: O_3  and  C_10
REMARK    3  A    between atoms: N_6  and  C_13
REMARK    4  A    between atoms: N_7  and  C_15
REMARK    5  A    between atoms: N_7  and  C_17
REMARK    6  A    between atoms: C_9  and  C_12
REMARK    7  A    between atoms: C_11  and  C_13
REMARK    8  A    between atoms: C_12  and  C_14
REMARK    9  A    between atoms: C_15  and  C_18
REMARK   10  A    between atoms: C_16  and  C_19
REMARK                            x       y       z     vdW  Elec       q    Type
REMARK                         _______ _______ _______ _____ _____    ______ ____
ROOT
ATOM      1  O   UNL     1      -2.406  -0.714  23.297  0.00  0.00    -0.366 OA
ATOM      8  C   UNL     1      -3.114  -1.920  25.196  0.00  0.00    +0.175 C 
ATOM      9  C   UNL     1      -2.036  -1.827  24.130  0.00  0.00    +0.159 C 
ATOM     10  C   UNL     1      -4.348  -1.514  24.415  0.00  0.00    +0.176 C 
ATOM     11  C   UNL     1      -3.804  -0.412  23.513  0.00  0.00    +0.167 C 
ENDROOT
BRANCH   8   2
ATOM      2  O   UNL     1      -3.203  -3.215  25.748  0.00  0.00    -0.387 OA
ATOM     25  H   UNL     1      -3.993  -3.639  25.372  0.00  0.00    +0.210 HD
ENDBRANCH   8   2
BRANCH  10   3
ATOM      3  O   UNL     1      -4.784  -2.590  23.586  0.00  0.00    -0.387 OA
ATOM     26  H   UNL     1      -4.153  -3.320  23.700  0.00  0.00    +0.210 HD
ENDBRANCH  10   3
BRANCH   9  12
ATOM     12  C   UNL     1      -0.646  -1.600  24.698  0.00  0.00    +0.130 C 
BRANCH  12  14
ATOM      4  O   UNL     1       0.625  -0.317  23.123  0.00  0.00    -0.276 OA
ATOM      7  N   UNL     1      -0.170   0.820  24.983  0.00  0.00    -0.300 N 
ATOM     14  C   UNL     1      -0.002  -0.318  24.186  0.00  0.00    +0.218 C 
ATOM     17  C   UNL     1      -0.915   0.795  26.235  0.00  0.00    +0.132 C 
BRANCH   7  15
ATOM     15  C   UNL     1       0.391   2.120  24.620  0.00  0.00    +0.142 C 
BRANCH  15  18
ATOM     18  C   UNL     1      -0.549   3.245  24.938  0.00  0.00    -0.030 A 
ATOM     20  C   UNL     1      -0.303   4.523  24.436  0.00  0.00    +0.005 A 
ATOM     21  C   UNL     1      -1.669   3.014  25.737  0.00  0.00    +0.005 A 
ATOM     22  C   UNL     1      -1.177   5.570  24.732  0.00  0.00    +0.000 A 
ATOM     23  C   UNL     1      -2.542   4.061  26.034  0.00  0.00    +0.000 A 
ATOM     24  C   UNL     1      -2.296   5.338  25.531  0.00  0.00    +0.000 A 
ENDBRANCH  15  18
ENDBRANCH   7  15
ENDBRANCH  12  14
ENDBRANCH   9  12
BRANCH  11  13
ATOM     13  C   UNL     1      -3.889   0.971  24.144  0.00  0.00    +0.138 C 
BRANCH  13   6
ATOM      5  O   UNL     1      -5.468   3.235  25.044  0.00  0.00    -0.276 OA
ATOM      6  N   UNL     1      -4.847   0.996  25.210  0.00  0.00    -0.313 N 
ATOM     16  C   UNL     1      -5.562   2.131  25.576  0.00  0.00    +0.210 C 
ATOM     19  C   UNL     1      -6.517   1.875  26.709  0.00  0.00    +0.109 C 
ATOM     27  H   UNL     1      -5.018   0.127  25.710  0.00  0.00    +0.149 HD
ENDBRANCH  13   6
ENDBRANCH  11  13
TORSDOF 8
ENDMDL
MODEL 8
REMARK VINA RESULT:      -3.8      2.288      3.282
REMARK  Name = 40777961
REMARK  10 active torsions:
REMARK  status: ('A' for Active; 'I' for Inactive)
REMARK    1  A    between atoms: O_2  and  C_8
REMARK    2  A    between atoms: O_3  and  C_10
REMARK    3  A    between atoms: N_6  and  C_13
REMARK    4  A    between atoms: N_7  and  C_15
REMARK    5  A    between atoms: N_7  and  C_17
REMARK    6  A    between atoms: C_9  and  C_12
REMARK    7  A    between atoms: C_11  and  C_13
REMARK    8  A    between atoms: C_12  and  C_14
REMARK    9  A    between atoms: C_15  and  C_18
REMARK   10  A    between atoms: C_16  and  C_19
REMARK                            x       y       z     vdW  Elec       q    Type
REMARK                         _______ _______ _______ _____ _____    ______ ____
ROOT
ATOM      1  O   UNL     1      -1.982   2.547  25.085  0.00  0.00    -0.366 OA
ATOM      8  C   UNL     1      -1.403   4.823  25.295  0.00  0.00    +0.175 C 
ATOM      9  C   UNL     1      -2.469   3.868  24.788  0.00  0.00    +0.159 C 
ATOM     10  C   UNL     1      -0.135   4.045  25.004  0.00  0.00    +0.176 C 
ATOM     11  C   UNL     1      -0.559   2.616  25.329  0.00  0.00    +0.167 C 
ENDROOT
BRANCH   8   2
ATOM      2  O   UNL     1      -1.455   6.071  24.640  0.00  0.00    -0.387 OA
ATOM     25  H   UNL     1      -0.538   6.355  24.480  0.00  0.00    +0.210 HD
ENDBRANCH   8   2
BRANCH  10   3
ATOM      3  O   UNL     1       0.175   4.108  23.612  0.00  0.00    -0.387 OA
ATOM     26  H   UNL     1       0.700   3.319  23.395  0.00  0.00    +0.210 HD
ENDBRANCH  10   3
BRANCH   9  12
ATOM     12  C   UNL     1      -3.822   4.073  25.446  0.00  0.00    +0.130 C 
BRANCH  12  14
ATOM      4  O   UNL     1      -5.293   2.539  26.553  0.00  0.00    -0.276 OA
ATOM      7  N   UNL     1      -4.577   1.938  24.430  0.00  0.00    -0.300 N 
ATOM     14  C   UNL     1      -4.633   2.787  25.540  0.00  0.00    +0.218 C 
ATOM     17  C   UNL     1      -3.791   2.252  23.244  0.00  0.00    +0.132 C 
BRANCH   7  15
ATOM     15  C   UNL     1      -5.304   0.670  24.376  0.00  0.00    +0.142 C 
BRANCH  15  18
ATOM     18  C   UNL     1      -4.398  -0.505  24.601  0.00  0.00    -0.030 A 
ATOM     20  C   UNL     1      -4.490  -1.625  23.774  0.00  0.00    +0.005 A 
ATOM     21  C   UNL     1      -3.465  -0.479  25.639  0.00  0.00    +0.005 A 
ATOM     22  C   UNL     1      -3.648  -2.718  23.984  0.00  0.00    +0.000 A 
ATOM     23  C   UNL     1      -2.625  -1.572  25.848  0.00  0.00    +0.000 A 
ATOM     24  C   UNL     1      -2.716  -2.692  25.020  0.00  0.00    +0.000 A 
ENDBRANCH  15  18
ENDBRANCH   7  15
ENDBRANCH  12  14
ENDBRANCH   9  12
BRANCH  11  13
ATOM     13  C   UNL     1      -0.317   2.240  26.785  0.00  0.00    +0.138 C 
BRANCH  13   6
ATOM      5  O   UNL     1       0.730   2.320  29.492  0.00  0.00    -0.276 OA
ATOM      6  N   UNL     1       1.014   2.581  27.194  0.00  0.00    -0.313 N 
ATOM     16  C   UNL     1       1.431   2.593  28.520  0.00  0.00    +0.210 C 
ATOM     19  C   UNL     1       2.883   2.961  28.668  0.00  0.00    +0.109 C 
ATOM     27  H   UNL     1       1.686   2.807  26.466  0.00  0.00    +0.149 HD
ENDBRANCH  13   6
ENDBRANCH  11  13
TORSDOF 8
ENDMDL
MODEL 9
REMARK VINA RESULT:      -3.8      2.063      6.191
REMARK  Name = 40777961
REMARK  10 active torsions:
REMARK  status: ('A' for Active; 'I' for Inactive)
REMARK    1  A    between atoms: O_2  and  C_8
REMARK    2  A    between atoms: O_3  and  C_10
REMARK    3  A    between atoms: N_6  and  C_13
REMARK    4  A    between atoms: N_7  and  C_15
REMARK    5  A    between atoms: N_7  and  C_17
REMARK    6  A    between atoms: C_9  and  C_12
REMARK    7  A    between atoms: C_11  and  C_13
REMARK    8  A    between atoms: C_12  and  C_14
REMARK    9  A    between atoms: C_15  and  C_18
REMARK   10  A    between atoms: C_16  and  C_19
REMARK                            x       y       z     vdW  Elec       q    Type
REMARK                         _______ _______ _______ _____ _____    ______ ____
ROOT
ATOM      1  O   UNL     1      -2.348  -0.963  23.610  0.00  0.00    -0.366 OA
ATOM      8  C   UNL     1      -1.841  -0.671  25.895  0.00  0.00    +0.175 C 
ATOM      9  C   UNL     1      -1.256  -1.047  24.544  0.00  0.00    +0.159 C 
ATOM     10  C   UNL     1      -3.233  -1.263  25.798  0.00  0.00    +0.176 C 
ATOM     11  C   UNL     1      -3.594  -0.988  24.343  0.00  0.00    +0.167 C 
ENDROOT
BRANCH   8   2
ATOM      2  O   UNL     1      -1.084  -1.195  26.964  0.00  0.00    -0.387 OA
ATOM     25  H   UNL     1      -1.133  -2.165  26.908  0.00  0.00    +0.210 HD
ENDBRANCH   8   2
BRANCH  10   3
ATOM      3  O   UNL     1      -3.182  -2.678  25.981  0.00  0.00    -0.387 OA
ATOM     26  H   UNL     1      -3.628  -3.086  25.219  0.00  0.00    +0.210 HD
ENDBRANCH  10   3
BRANCH   9  12
ATOM     12  C   UNL     1      -0.132  -0.129  24.099  0.00  0.00    +0.130 C 
BRANCH  12  14
ATOM      4  O   UNL     1      -1.228   1.443  22.661  0.00  0.00    -0.276 OA
ATOM      7  N   UNL     1      -0.340   2.286  24.631  0.00  0.00    -0.300 N 
ATOM     14  C   UNL     1      -0.620   1.263  23.720  0.00  0.00    +0.218 C 
ATOM     17  C   UNL     1       0.380   2.049  25.877  0.00  0.00    +0.132 C 
BRANCH   7  15
ATOM     15  C   UNL     1      -0.747   3.672  24.403  0.00  0.00    +0.142 C 
BRANCH  15  18
ATOM     18  C   UNL     1      -2.170   3.913  24.812  0.00  0.00    -0.030 A 
ATOM     20  C   UNL     1      -3.175   3.962  23.845  0.00  0.00    +0.005 A 
ATOM     21  C   UNL     1      -2.489   4.090  26.158  0.00  0.00    +0.005 A 
ATOM     22  C   UNL     1      -4.499   4.187  24.226  0.00  0.00    +0.000 A 
ATOM     23  C   UNL     1      -3.812   4.315  26.538  0.00  0.00    +0.000 A 
ATOM     24  C   UNL     1      -4.817   4.363  25.571  0.00  0.00    +0.000 A 
ENDBRANCH  15  18
ENDBRANCH   7  15
ENDBRANCH  12  14
ENDBRANCH   9  12
BRANCH  11  13
ATOM     13  C   UNL     1      -4.278   0.358  24.144  0.00  0.00    +0.138 C 
BRANCH  13   6
ATOM      5  O   UNL     1      -6.867   1.636  24.453  0.00  0.00    -0.276 OA
ATOM      6  N   UNL     1      -4.884   0.817  25.360  0.00  0.00    -0.313 N 
ATOM     16  C   UNL     1      -6.134   1.421  25.416  0.00  0.00    +0.210 C 
ATOM     19  C   UNL     1      -6.541   1.783  26.819  0.00  0.00    +0.109 C 
ATOM     27  H   UNL     1      -4.370   0.672  26.225  0.00  0.00    +0.149 HD
ENDBRANCH  13   6
ENDBRANCH  11  13
TORSDOF 8
ENDMDL
MODEL 10
REMARK VINA RESULT:      -3.7     18.406     20.193
REMARK  Name = 40777961
REMARK  10 active torsions:
REMARK  status: ('A' for Active; 'I' for Inactive)
REMARK    1  A    between atoms: O_2  and  C_8
REMARK    2  A    between atoms: O_3  and  C_10
REMARK    3  A    between atoms: N_6  and  C_13
REMARK    4  A    between atoms: N_7  and  C_15
REMARK    5  A    between atoms: N_7  and  C_17
REMARK    6  A    between atoms: C_9  and  C_12
REMARK    7  A    between atoms: C_11  and  C_13
REMARK    8  A    between atoms: C_12  and  C_14
REMARK    9  A    between atoms: C_15  and  C_18
REMARK   10  A    between atoms: C_16  and  C_19
REMARK                            x       y       z     vdW  Elec       q    Type
REMARK                         _______ _______ _______ _____ _____    ______ ____
ROOT
ATOM      1  O   UNL     1      14.294  -6.682  29.703  0.00  0.00    -0.366 OA
ATOM      8  C   UNL     1      13.571  -7.619  31.742  0.00  0.00    +0.175 C 
ATOM      9  C   UNL     1      13.659  -7.854  30.244  0.00  0.00    +0.159 C 
ATOM     10  C   UNL     1      13.321  -6.126  31.802  0.00  0.00    +0.176 C 
ATOM     11  C   UNL     1      14.204  -5.611  30.671  0.00  0.00    +0.167 C 
ENDROOT
BRANCH   8   2
ATOM      2  O   UNL     1      12.545  -8.382  32.339  0.00  0.00    -0.387 OA
ATOM     25  H   UNL     1      12.895  -9.277  32.488  0.00  0.00    +0.210 HD
ENDBRANCH   8   2
BRANCH  10   3
ATOM      3  O   UNL     1      11.963  -5.838  31.468  0.00  0.00    -0.387 OA
ATOM     26  H   UNL     1      11.711  -5.031  31.947  0.00  0.00    +0.210 HD
ENDBRANCH  10   3
BRANCH   9  12
ATOM     12  C   UNL     1      14.463  -9.087  29.874  0.00  0.00    +0.130 C 
BRANCH  12  14
ATOM      4  O   UNL     1      16.714  -8.320  30.164  0.00  0.00    -0.276 OA
ATOM      7  N   UNL     1      16.108  -8.965  28.020  0.00  0.00    -0.300 N 
ATOM     14  C   UNL     1      15.864  -8.752  29.381  0.00  0.00    +0.218 C 
ATOM     17  C   UNL     1      15.089  -9.478  27.113  0.00  0.00    +0.132 C 
BRANCH   7  15
ATOM     15  C   UNL     1      17.405  -8.689  27.405  0.00  0.00    +0.142 C 
BRANCH  15  18
ATOM     18  C   UNL     1      17.367  -7.462  26.541  0.00  0.00    -0.030 A 
ATOM     20  C   UNL     1      17.363  -7.586  25.152  0.00  0.00    +0.005 A 
ATOM     21  C   UNL     1      17.337  -6.197  27.128  0.00  0.00    +0.005 A 
ATOM     22  C   UNL     1      17.328  -6.445  24.349  0.00  0.00    +0.000 A 
ATOM     23  C   UNL     1      17.303  -5.057  26.325  0.00  0.00    +0.000 A 
ATOM     24  C   UNL     1      17.298  -5.181  24.936  0.00  0.00    +0.000 A 
ENDBRANCH  15  18
ENDBRANCH   7  15
ENDBRANCH  12  14
ENDBRANCH   9  12
BRANCH  11  13
ATOM     13  C   UNL     1      15.619  -5.276  31.126  0.00  0.00    +0.138 C 
BRANCH  13   6
ATOM      5  O   UNL     1      15.854  -2.390  31.342  0.00  0.00    -0.276 OA
ATOM      6  N   UNL     1      16.261  -4.383  30.206  0.00  0.00    -0.313 N 
ATOM     16  C   UNL     1      16.326  -3.006  30.389  0.00  0.00    +0.210 C 
ATOM     19  C   UNL     1      17.078  -2.309  29.288  0.00  0.00    +0.109 C 
ATOM     27  H   UNL     1      16.704  -4.790  29.387  0.00  0.00    +0.149 HD
ENDBRANCH  13   6
ENDBRANCH  11  13
TORSDOF 8
ENDMDL
