MODEL 1
REMARK VINA RESULT:      -6.8      0.000      0.000
REMARK  Name = 75367757
REMARK  3 active torsions:
REMARK  status: ('A' for Active; 'I' for Inactive)
REMARK    1  A    between atoms: O_3  and  C_6
REMARK    2  A    between atoms: N_4  and  C_8
REMARK    3  A    between atoms: C_8  and  C_11
REMARK                            x       y       z     vdW  Elec       q    Type
REMARK                         _______ _______ _______ _____ _____    ______ ____
ROOT
ATOM      2  O   UNL     1      -0.681   4.586  25.012  0.00  0.00    -0.376 OA
ATOM      4  N   UNL     1      -2.931   2.428  24.957  0.00  0.00    -0.293 NA
ATOM      5  C   UNL     1      -1.764   1.539  24.979  0.00  0.00    +0.118 C 
ATOM      6  C   UNL     1      -0.373   2.186  25.069  0.00  0.00    +0.154 C 
ATOM      7  C   UNL     1      -2.806   3.610  25.811  0.00  0.00    +0.113 C 
ATOM      9  C   UNL     1      -0.221   3.467  24.261  0.00  0.00    +0.192 C 
ATOM     10  C   UNL     1      -2.094   4.730  25.051  0.00  0.00    +0.175 C 
ENDROOT
BRANCH   6   3
ATOM      3  O   UNL     1       0.586   1.243  24.587  0.00  0.00    -0.388 OA
ATOM     17  H   UNL     1       1.412   1.727  24.418  0.00  0.00    +0.210 HD
ENDBRANCH   6   3
BRANCH   4   8
ATOM      8  C   UNL     1      -4.145   1.671  25.265  0.00  0.00    +0.119 C 
BRANCH   8  11
ATOM      1  F   UNL     1      -3.460  -3.850  24.372  0.00  0.00    -0.205 F 
ATOM     11  C   UNL     1      -3.962   0.197  25.026  0.00  0.00    -0.033 A 
ATOM     12  C   UNL     1      -3.480  -0.621  26.048  0.00  0.00    +0.008 A 
ATOM     13  C   UNL     1      -4.275  -0.353  23.784  0.00  0.00    +0.008 A 
ATOM     14  C   UNL     1      -3.310  -1.988  25.828  0.00  0.00    +0.038 A 
ATOM     15  C   UNL     1      -4.105  -1.720  23.563  0.00  0.00    +0.038 A 
ATOM     16  C   UNL     1      -3.623  -2.538  24.585  0.00  0.00    +0.123 A 
ENDBRANCH   8  11
ENDBRANCH   4   8
TORSDOF 3
ENDMDL
MODEL 2
REMARK VINA RESULT:      -6.7      3.440      5.702
REMARK  Name = 75367757
REMARK  3 active torsions:
REMARK  status: ('A' for Active; 'I' for Inactive)
REMARK    1  A    between atoms: O_3  and  C_6
REMARK    2  A    between atoms: N_4  and  C_8
REMARK    3  A    between atoms: C_8  and  C_11
REMARK                            x       y       z     vdW  Elec       q    Type
REMARK                         _______ _______ _______ _____ _____    ______ ____
ROOT
ATOM      2  O   UNL     1      -1.132  -2.325  25.249  0.00  0.00    -0.376 OA
ATOM      4  N   UNL     1      -3.007   0.075  24.583  0.00  0.00    -0.293 NA
ATOM      5  C   UNL     1      -3.944  -1.024  24.326  0.00  0.00    +0.118 C 
ATOM      6  C   UNL     1      -3.456  -2.457  24.588  0.00  0.00    +0.154 C 
ATOM      7  C   UNL     1      -2.144  -0.127  25.747  0.00  0.00    +0.113 C 
ATOM      9  C   UNL     1      -2.007  -2.710  24.195  0.00  0.00    +0.192 C 
ATOM     10  C   UNL     1      -0.904  -0.926  25.346  0.00  0.00    +0.175 C 
ENDROOT
BRANCH   6   3
ATOM      3  O   UNL     1      -4.280  -3.350  23.836  0.00  0.00    -0.388 OA
ATOM     17  H   UNL     1      -3.851  -4.223  23.846  0.00  0.00    +0.210 HD
ENDBRANCH   6   3
BRANCH   4   8
ATOM      8  C   UNL     1      -3.732   1.344  24.667  0.00  0.00    +0.119 C 
BRANCH   8  11
ATOM      1  F   UNL     1      -0.226   5.746  24.963  0.00  0.00    -0.205 F 
ATOM     11  C   UNL     1      -2.795   2.520  24.746  0.00  0.00    -0.033 A 
ATOM     12  C   UNL     1      -3.110   3.610  25.558  0.00  0.00    +0.008 A 
ATOM     13  C   UNL     1      -1.612   2.520  24.008  0.00  0.00    +0.008 A 
ATOM     14  C   UNL     1      -2.243   4.700  25.631  0.00  0.00    +0.038 A 
ATOM     15  C   UNL     1      -0.744   3.610  24.081  0.00  0.00    +0.038 A 
ATOM     16  C   UNL     1      -1.059   4.699  24.893  0.00  0.00    +0.123 A 
ENDBRANCH   8  11
ENDBRANCH   4   8
TORSDOF 3
ENDMDL
MODEL 3
REMARK VINA RESULT:      -6.6      1.868      2.728
REMARK  Name = 75367757
REMARK  3 active torsions:
REMARK  status: ('A' for Active; 'I' for Inactive)
REMARK    1  A    between atoms: O_3  and  C_6
REMARK    2  A    between atoms: N_4  and  C_8
REMARK    3  A    between atoms: C_8  and  C_11
REMARK                            x       y       z     vdW  Elec       q    Type
REMARK                         _______ _______ _______ _____ _____    ______ ____
ROOT
ATOM      2  O   UNL     1      -2.468   4.949  25.987  0.00  0.00    -0.376 OA
ATOM      4  N   UNL     1      -2.671   2.297  24.360  0.00  0.00    -0.293 NA
ATOM      5  C   UNL     1      -4.102   2.556  24.551  0.00  0.00    +0.118 C 
ATOM      6  C   UNL     1      -4.504   3.846  25.285  0.00  0.00    +0.154 C 
ATOM      7  C   UNL     1      -1.873   3.492  24.082  0.00  0.00    +0.113 C 
ATOM      9  C   UNL     1      -3.597   4.216  26.450  0.00  0.00    +0.192 C 
ATOM     10  C   UNL     1      -1.451   4.153  25.394  0.00  0.00    +0.175 C 
ENDROOT
BRANCH   6   3
ATOM      3  O   UNL     1      -5.828   3.671  25.795  0.00  0.00    -0.388 OA
ATOM     17  H   UNL     1      -5.752   3.467  26.742  0.00  0.00    +0.210 HD
ENDBRANCH   6   3
BRANCH   4   8
ATOM      8  C   UNL     1      -2.479   1.274  23.331  0.00  0.00    +0.119 C 
BRANCH   8  11
ATOM      1  F   UNL     1      -3.596  -3.895  25.278  0.00  0.00    -0.205 F 
ATOM     11  C   UNL     1      -2.777  -0.106  23.850  0.00  0.00    -0.033 A 
ATOM     12  C   UNL     1      -1.838  -0.775  24.636  0.00  0.00    +0.008 A 
ATOM     13  C   UNL     1      -3.994  -0.718  23.548  0.00  0.00    +0.008 A 
ATOM     14  C   UNL     1      -2.113  -2.054  25.118  0.00  0.00    +0.038 A 
ATOM     15  C   UNL     1      -4.269  -1.998  24.030  0.00  0.00    +0.038 A 
ATOM     16  C   UNL     1      -3.330  -2.666  24.815  0.00  0.00    +0.123 A 
ENDBRANCH   8  11
ENDBRANCH   4   8
TORSDOF 3
ENDMDL
MODEL 4
REMARK VINA RESULT:      -6.5      0.809      2.352
REMARK  Name = 75367757
REMARK  3 active torsions:
REMARK  status: ('A' for Active; 'I' for Inactive)
REMARK    1  A    between atoms: O_3  and  C_6
REMARK    2  A    between atoms: N_4  and  C_8
REMARK    3  A    between atoms: C_8  and  C_11
REMARK                            x       y       z     vdW  Elec       q    Type
REMARK                         _______ _______ _______ _____ _____    ______ ____
ROOT
ATOM      2  O   UNL     1       0.294   2.820  24.278  0.00  0.00    -0.376 OA
ATOM      4  N   UNL     1      -2.637   2.041  25.004  0.00  0.00    -0.293 NA
ATOM      5  C   UNL     1      -2.760   3.500  25.094  0.00  0.00    +0.118 C 
ATOM      6  C   UNL     1      -1.525   4.346  24.748  0.00  0.00    +0.154 C 
ATOM      7  C   UNL     1      -1.805   1.573  23.895  0.00  0.00    +0.113 C 
ATOM      9  C   UNL     1      -0.205   3.757  25.227  0.00  0.00    +0.192 C 
ATOM     10  C   UNL     1      -0.336   1.546  24.320  0.00  0.00    +0.175 C 
ENDROOT
BRANCH   6   3
ATOM      3  O   UNL     1      -1.681   5.629  25.356  0.00  0.00    -0.388 OA
ATOM     17  H   UNL     1      -2.602   5.909  25.218  0.00  0.00    +0.210 HD
ENDBRANCH   6   3
BRANCH   4   8
ATOM      8  C   UNL     1      -3.964   1.426  24.975  0.00  0.00    +0.119 C 
BRANCH   8  11
ATOM      1  F   UNL     1      -3.665  -4.185  24.538  0.00  0.00    -0.205 F 
ATOM     11  C   UNL     1      -3.885  -0.073  24.858  0.00  0.00    -0.033 A 
ATOM     12  C   UNL     1      -4.401  -0.714  23.732  0.00  0.00    +0.008 A 
ATOM     13  C   UNL     1      -3.293  -0.822  25.876  0.00  0.00    +0.008 A 
ATOM     14  C   UNL     1      -4.327  -2.103  23.623  0.00  0.00    +0.038 A 
ATOM     15  C   UNL     1      -3.220  -2.210  25.767  0.00  0.00    +0.038 A 
ATOM     16  C   UNL     1      -3.736  -2.851  24.641  0.00  0.00    +0.123 A 
ENDBRANCH   8  11
ENDBRANCH   4   8
TORSDOF 3
ENDMDL
MODEL 5
REMARK VINA RESULT:      -6.3      3.121      5.368
REMARK  Name = 75367757
REMARK  3 active torsions:
REMARK  status: ('A' for Active; 'I' for Inactive)
REMARK    1  A    between atoms: O_3  and  C_6
REMARK    2  A    between atoms: N_4  and  C_8
REMARK    3  A    between atoms: C_8  and  C_11
REMARK                            x       y       z     vdW  Elec       q    Type
REMARK                         _______ _______ _______ _____ _____    ______ ____
ROOT
ATOM      2  O   UNL     1      -2.368  -2.993  24.251  0.00  0.00    -0.376 OA
ATOM      4  N   UNL     1      -3.577  -0.176  24.821  0.00  0.00    -0.293 NA
ATOM      5  C   UNL     1      -2.156   0.187  24.799  0.00  0.00    +0.118 C 
ATOM      6  C   UNL     1      -1.139  -0.921  24.482  0.00  0.00    +0.154 C 
ATOM      7  C   UNL     1      -3.965  -1.159  23.810  0.00  0.00    +0.113 C 
ATOM      9  C   UNL     1      -1.473  -2.274  25.094  0.00  0.00    +0.192 C 
ATOM     10  C   UNL     1      -3.723  -2.574  24.338  0.00  0.00    +0.175 C 
ENDROOT
BRANCH   6   3
ATOM      3  O   UNL     1       0.134  -0.511  24.986  0.00  0.00    -0.388 OA
ATOM     17  H   UNL     1       0.642  -1.315  25.185  0.00  0.00    +0.210 HD
ENDBRANCH   6   3
BRANCH   4   8
ATOM      8  C   UNL     1      -4.405   1.029  24.741  0.00  0.00    +0.119 C 
BRANCH   8  11
ATOM      1  F   UNL     1      -1.345   5.719  25.371  0.00  0.00    -0.205 F 
ATOM     11  C   UNL     1      -3.588   2.282  24.909  0.00  0.00    -0.033 A 
ATOM     12  C   UNL     1      -3.833   3.136  25.985  0.00  0.00    +0.008 A 
ATOM     13  C   UNL     1      -2.584   2.589  23.991  0.00  0.00    +0.008 A 
ATOM     14  C   UNL     1      -3.076   4.297  26.141  0.00  0.00    +0.038 A 
ATOM     15  C   UNL     1      -1.828   3.750  24.147  0.00  0.00    +0.038 A 
ATOM     16  C   UNL     1      -2.073   4.605  25.221  0.00  0.00    +0.123 A 
ENDBRANCH   8  11
ENDBRANCH   4   8
TORSDOF 3
ENDMDL
MODEL 6
REMARK VINA RESULT:      -5.9      3.388      5.303
REMARK  Name = 75367757
REMARK  3 active torsions:
REMARK  status: ('A' for Active; 'I' for Inactive)
REMARK    1  A    between atoms: O_3  and  C_6
REMARK    2  A    between atoms: N_4  and  C_8
REMARK    3  A    between atoms: C_8  and  C_11
REMARK                            x       y       z     vdW  Elec       q    Type
REMARK                         _______ _______ _______ _____ _____    ______ ____
ROOT
ATOM      2  O   UNL     1      -1.308  -2.557  25.313  0.00  0.00    -0.376 OA
ATOM      4  N   UNL     1      -1.436   0.325  24.129  0.00  0.00    -0.293 NA
ATOM      5  C   UNL     1      -2.854  -0.032  24.014  0.00  0.00    +0.118 C 
ATOM      6  C   UNL     1      -3.294  -1.403  24.550  0.00  0.00    +0.154 C 
ATOM      7  C   UNL     1      -0.795  -0.140  25.360  0.00  0.00    +0.113 C 
ATOM      9  C   UNL     1      -2.300  -2.527  24.293  0.00  0.00    +0.192 C 
ATOM     10  C   UNL     1      -0.292  -1.573  25.177  0.00  0.00    +0.175 C 
ENDROOT
BRANCH   6   3
ATOM      3  O   UNL     1      -4.527  -1.751  23.918  0.00  0.00    -0.388 OA
ATOM     17  H   UNL     1      -4.342  -2.471  23.292  0.00  0.00    +0.210 HD
ENDBRANCH   6   3
BRANCH   4   8
ATOM      8  C   UNL     1      -1.264   1.767  23.948  0.00  0.00    +0.119 C 
BRANCH   8  11
ATOM      1  F   UNL     1      -5.768   4.656  25.714  0.00  0.00    -0.205 F 
ATOM     11  C   UNL     1      -2.467   2.538  24.420  0.00  0.00    -0.033 A 
ATOM     12  C   UNL     1      -2.418   3.240  25.625  0.00  0.00    +0.008 A 
ATOM     13  C   UNL     1      -3.632   2.553  23.652  0.00  0.00    +0.008 A 
ATOM     14  C   UNL     1      -3.533   3.956  26.062  0.00  0.00    +0.038 A 
ATOM     15  C   UNL     1      -4.746   3.268  24.090  0.00  0.00    +0.038 A 
ATOM     16  C   UNL     1      -4.698   3.969  25.294  0.00  0.00    +0.123 A 
ENDBRANCH   8  11
ENDBRANCH   4   8
TORSDOF 3
ENDMDL
MODEL 7
REMARK VINA RESULT:      -5.9      2.309      3.293
REMARK  Name = 75367757
REMARK  3 active torsions:
REMARK  status: ('A' for Active; 'I' for Inactive)
REMARK    1  A    between atoms: O_3  and  C_6
REMARK    2  A    between atoms: N_4  and  C_8
REMARK    3  A    between atoms: C_8  and  C_11
REMARK                            x       y       z     vdW  Elec       q    Type
REMARK                         _______ _______ _______ _____ _____    ______ ____
ROOT
ATOM      2  O   UNL     1      -2.666   4.657  25.960  0.00  0.00    -0.376 OA
ATOM      4  N   UNL     1      -3.465   1.966  24.603  0.00  0.00    -0.293 NA
ATOM      5  C   UNL     1      -4.804   2.543  24.769  0.00  0.00    +0.118 C 
ATOM      6  C   UNL     1      -4.906   3.953  25.372  0.00  0.00    +0.154 C 
ATOM      7  C   UNL     1      -2.437   2.929  24.208  0.00  0.00    +0.113 C 
ATOM      9  C   UNL     1      -3.915   4.230  26.494  0.00  0.00    +0.192 C 
ATOM     10  C   UNL     1      -1.855   3.608  25.448  0.00  0.00    +0.175 C 
ENDROOT
BRANCH   6   3
ATOM      3  O   UNL     1      -6.224   4.116  25.898  0.00  0.00    -0.388 OA
ATOM     17  H   UNL     1      -6.260   4.983  26.335  0.00  0.00    +0.210 HD
ENDBRANCH   6   3
BRANCH   4   8
ATOM      8  C   UNL     1      -3.519   0.831  23.679  0.00  0.00    +0.119 C 
BRANCH   8  11
ATOM      1  F   UNL     1      -0.375  -3.486  25.476  0.00  0.00    -0.205 F 
ATOM     11  C   UNL     1      -2.679  -0.322  24.159  0.00  0.00    -0.033 A 
ATOM     12  C   UNL     1      -3.249  -1.587  24.306  0.00  0.00    +0.008 A 
ATOM     13  C   UNL     1      -1.330  -0.127  24.457  0.00  0.00    +0.008 A 
ATOM     14  C   UNL     1      -2.471  -2.656  24.751  0.00  0.00    +0.038 A 
ATOM     15  C   UNL     1      -0.553  -1.196  24.901  0.00  0.00    +0.038 A 
ATOM     16  C   UNL     1      -1.122  -2.460  25.049  0.00  0.00    +0.123 A 
ENDBRANCH   8  11
ENDBRANCH   4   8
TORSDOF 3
ENDMDL
MODEL 8
REMARK VINA RESULT:      -5.9      3.488      5.940
REMARK  Name = 75367757
REMARK  3 active torsions:
REMARK  status: ('A' for Active; 'I' for Inactive)
REMARK    1  A    between atoms: O_3  and  C_6
REMARK    2  A    between atoms: N_4  and  C_8
REMARK    3  A    between atoms: C_8  and  C_11
REMARK                            x       y       z     vdW  Elec       q    Type
REMARK                         _______ _______ _______ _____ _____    ______ ____
ROOT
ATOM      2  O   UNL     1      -3.502  -2.592  24.570  0.00  0.00    -0.376 OA
ATOM      4  N   UNL     1      -1.460  -0.238  24.453  0.00  0.00    -0.293 NA
ATOM      5  C   UNL     1      -2.674   0.528  24.757  0.00  0.00    +0.118 C 
ATOM      6  C   UNL     1      -3.980  -0.254  24.970  0.00  0.00    +0.154 C 
ATOM      7  C   UNL     1      -1.358  -1.514  25.162  0.00  0.00    +0.113 C 
ATOM      9  C   UNL     1      -4.158  -1.446  24.040  0.00  0.00    +0.192 C 
ATOM     10  C   UNL     1      -2.093  -2.605  24.382  0.00  0.00    +0.175 C 
ENDROOT
BRANCH   6   3
ATOM      3  O   UNL     1      -5.072   0.641  24.755  0.00  0.00    -0.388 OA
ATOM     17  H   UNL     1      -4.852   1.192  23.985  0.00  0.00    +0.210 HD
ENDBRANCH   6   3
BRANCH   4   8
ATOM      8  C   UNL     1      -0.275   0.591  24.671  0.00  0.00    +0.119 C 
BRANCH   8  11
ATOM      1  F   UNL     1      -1.602   6.037  25.256  0.00  0.00    -0.205 F 
ATOM     11  C   UNL     1      -0.629   2.046  24.827  0.00  0.00    -0.033 A 
ATOM     12  C   UNL     1      -1.412   2.462  25.905  0.00  0.00    +0.008 A 
ATOM     13  C   UNL     1      -0.175   2.979  23.896  0.00  0.00    +0.008 A 
ATOM     14  C   UNL     1      -1.741   3.809  26.050  0.00  0.00    +0.038 A 
ATOM     15  C   UNL     1      -0.504   4.327  24.041  0.00  0.00    +0.038 A 
ATOM     16  C   UNL     1      -1.287   4.742  25.117  0.00  0.00    +0.123 A 
ENDBRANCH   8  11
ENDBRANCH   4   8
TORSDOF 3
ENDMDL
MODEL 9
REMARK VINA RESULT:      -5.9      1.476      2.115
REMARK  Name = 75367757
REMARK  3 active torsions:
REMARK  status: ('A' for Active; 'I' for Inactive)
REMARK    1  A    between atoms: O_3  and  C_6
REMARK    2  A    between atoms: N_4  and  C_8
REMARK    3  A    between atoms: C_8  and  C_11
REMARK                            x       y       z     vdW  Elec       q    Type
REMARK                         _______ _______ _______ _____ _____    ______ ____
ROOT
ATOM      2  O   UNL     1      -3.369   4.289  26.276  0.00  0.00    -0.376 OA
ATOM      4  N   UNL     1      -2.871   2.363  23.875  0.00  0.00    -0.293 NA
ATOM      5  C   UNL     1      -1.496   2.459  24.379  0.00  0.00    +0.118 C 
ATOM      6  C   UNL     1      -1.254   3.294  25.646  0.00  0.00    +0.154 C 
ATOM      7  C   UNL     1      -3.893   2.291  24.919  0.00  0.00    +0.113 C 
ATOM      9  C   UNL     1      -2.086   4.568  25.727  0.00  0.00    +0.192 C 
ATOM     10  C   UNL     1      -4.286   3.701  25.363  0.00  0.00    +0.175 C 
ENDROOT
BRANCH   6   3
ATOM      3  O   UNL     1       0.125   3.665  25.675  0.00  0.00    -0.388 OA
ATOM     17  H   UNL     1       0.505   3.314  26.498  0.00  0.00    +0.210 HD
ENDBRANCH   6   3
BRANCH   4   8
ATOM      8  C   UNL     1      -2.985   1.246  22.936  0.00  0.00    +0.119 C 
BRANCH   8  11
ATOM      1  F   UNL     1      -3.363  -3.705  25.599  0.00  0.00    -0.205 F 
ATOM     11  C   UNL     1      -3.086  -0.076  23.648  0.00  0.00    -0.033 A 
ATOM     12  C   UNL     1      -4.240  -0.849  23.523  0.00  0.00    +0.008 A 
ATOM     13  C   UNL     1      -2.025  -0.530  24.431  0.00  0.00    +0.008 A 
ATOM     14  C   UNL     1      -4.334  -2.075  24.182  0.00  0.00    +0.038 A 
ATOM     15  C   UNL     1      -2.119  -1.755  25.090  0.00  0.00    +0.038 A 
ATOM     16  C   UNL     1      -3.273  -2.528  24.966  0.00  0.00    +0.123 A 
ENDBRANCH   8  11
ENDBRANCH   4   8
TORSDOF 3
ENDMDL
MODEL 10
REMARK VINA RESULT:      -5.6      3.578      5.767
REMARK  Name = 75367757
REMARK  3 active torsions:
REMARK  status: ('A' for Active; 'I' for Inactive)
REMARK    1  A    between atoms: O_3  and  C_6
REMARK    2  A    between atoms: N_4  and  C_8
REMARK    3  A    between atoms: C_8  and  C_11
REMARK                            x       y       z     vdW  Elec       q    Type
REMARK                         _______ _______ _______ _____ _____    ______ ____
ROOT
ATOM      2  O   UNL     1      -4.475  -0.853  24.084  0.00  0.00    -0.376 OA
ATOM      4  N   UNL     1      -1.808   0.241  25.271  0.00  0.00    -0.293 NA
ATOM      5  C   UNL     1      -1.371  -1.122  24.948  0.00  0.00    +0.118 C 
ATOM      6  C   UNL     1      -2.381  -2.053  24.260  0.00  0.00    +0.154 C 
ATOM      7  C   UNL     1      -2.690   0.845  24.272  0.00  0.00    +0.113 C 
ATOM      9  C   UNL     1      -3.811  -1.912  24.764  0.00  0.00    +0.192 C 
ATOM     10  C   UNL     1      -4.140   0.448  24.549  0.00  0.00    +0.175 C 
ENDROOT
BRANCH   6   3
ATOM      3  O   UNL     1      -1.965  -3.402  24.485  0.00  0.00    -0.388 OA
ATOM     17  H   UNL     1      -2.515  -3.762  25.201  0.00  0.00    +0.210 HD
ENDBRANCH   6   3
BRANCH   4   8
ATOM      8  C   UNL     1      -0.646   1.089  25.542  0.00  0.00    +0.119 C 
BRANCH   8  11
ATOM      1  F   UNL     1      -1.879   6.563  25.018  0.00  0.00    -0.205 F 
ATOM     11  C   UNL     1      -0.976   2.552  25.402  0.00  0.00    -0.033 A 
ATOM     12  C   UNL     1      -2.054   3.094  26.101  0.00  0.00    +0.008 A 
ATOM     13  C   UNL     1      -0.202   3.365  24.575  0.00  0.00    +0.008 A 
ATOM     14  C   UNL     1      -2.360   4.449  25.971  0.00  0.00    +0.038 A 
ATOM     15  C   UNL     1      -0.507   4.720  24.445  0.00  0.00    +0.038 A 
ATOM     16  C   UNL     1      -1.586   5.262  25.143  0.00  0.00    +0.123 A 
ENDBRANCH   8  11
ENDBRANCH   4   8
TORSDOF 3
ENDMDL
