MODEL 1
REMARK VINA RESULT:      -6.2      0.000      0.000
REMARK  Name = 26744100
REMARK  7 active torsions:
REMARK  status: ('A' for Active; 'I' for Inactive)
REMARK    1  A    between atoms: O_1  and  C_9
REMARK    2  A    between atoms: O_3  and  C_15
REMARK    3  A    between atoms: N_4  and  C_11
REMARK    4  A    between atoms: C_7  and  C_12
REMARK    5  A    between atoms: C_11  and  C_13
REMARK    6  A    between atoms: C_14  and  C_17
REMARK    7  A    between atoms: C_17  and  C_21
REMARK                            x       y       z     vdW  Elec       q    Type
REMARK                         _______ _______ _______ _____ _____    ______ ____
ROOT
ATOM      4  N   UNL     1      -3.201   1.973  24.926  0.00  0.00    -0.284 NA
ATOM      7  C   UNL     1      -2.221   2.793  24.186  0.00  0.00    +0.149 C 
ATOM      8  C   UNL     1      -2.050   4.065  25.036  0.00  0.00    +0.061 C 
ATOM      9  C   UNL     1      -3.007   3.888  26.209  0.00  0.00    +0.130 C 
ATOM     10  C   UNL     1      -4.035   2.904  25.682  0.00  0.00    +0.116 C 
ENDROOT
BRANCH   7  12
ATOM      2  O   UNL     1       0.126   2.412  24.751  0.00  0.00    -0.336 OA
ATOM      5  N   UNL     1      -0.627   1.141  23.067  0.00  0.00    -0.194 NA
ATOM      6  N   UNL     1       1.208   1.621  24.346  0.00  0.00    -0.061 NA
ATOM     12  C   UNL     1      -0.914   2.067  23.948  0.00  0.00    +0.245 A 
ATOM     14  C   UNL     1       0.686   0.899  23.350  0.00  0.00    +0.176 A 
BRANCH  14  17
ATOM     17  C   UNL     1       1.477  -0.090  22.609  0.00  0.00    +0.114 C 
BRANCH  17  21
ATOM     21  C   UNL     1       2.942  -0.177  23.022  0.00  0.00    -0.040 A 
ATOM     22  C   UNL     1       3.788   0.915  22.824  0.00  0.00    +0.004 A 
ATOM     23  C   UNL     1       3.436  -1.347  23.598  0.00  0.00    +0.004 A 
ATOM     24  C   UNL     1       5.129   0.836  23.202  0.00  0.00    +0.000 A 
ATOM     25  C   UNL     1       4.777  -1.426  23.976  0.00  0.00    +0.000 A 
ATOM     26  C   UNL     1       5.623  -0.335  23.778  0.00  0.00    +0.000 A 
ENDBRANCH  17  21
ENDBRANCH  14  17
ENDBRANCH   7  12
BRANCH   9   1
ATOM      1  O   UNL     1      -3.595   5.122  26.568  0.00  0.00    -0.390 OA
ATOM     27  H   UNL     1      -4.194   4.954  27.316  0.00  0.00    +0.210 HD
ENDBRANCH   9   1
BRANCH   4  11
ATOM     11  C   UNL     1      -3.991   1.103  24.064  0.00  0.00    +0.124 C 
BRANCH  11  13
ATOM     13  C   UNL     1      -3.711  -0.352  24.326  0.00  0.00    +0.008 A 
ATOM     15  C   UNL     1      -2.675  -0.736  25.178  0.00  0.00    +0.121 A 
ATOM     16  C   UNL     1      -4.499  -1.321  23.706  0.00  0.00    +0.008 A 
ATOM     18  C   UNL     1      -2.427  -2.089  25.409  0.00  0.00    +0.046 A 
ATOM     19  C   UNL     1      -4.252  -2.675  23.937  0.00  0.00    +0.001 A 
ATOM     20  C   UNL     1      -3.216  -3.058  24.789  0.00  0.00    +0.004 A 
BRANCH  15   3
ATOM      3  O   UNL     1      -1.894   0.197  25.791  0.00  0.00    -0.506 OA
ATOM     28  H   UNL     1      -1.389  -0.230  26.505  0.00  0.00    +0.292 HD
ENDBRANCH  15   3
ENDBRANCH  11  13
ENDBRANCH   4  11
TORSDOF 7
ENDMDL
MODEL 2
REMARK VINA RESULT:      -6.0      2.098      6.282
REMARK  Name = 26744100
REMARK  7 active torsions:
REMARK  status: ('A' for Active; 'I' for Inactive)
REMARK    1  A    between atoms: O_1  and  C_9
REMARK    2  A    between atoms: O_3  and  C_15
REMARK    3  A    between atoms: N_4  and  C_11
REMARK    4  A    between atoms: C_7  and  C_12
REMARK    5  A    between atoms: C_11  and  C_13
REMARK    6  A    between atoms: C_14  and  C_17
REMARK    7  A    between atoms: C_17  and  C_21
REMARK                            x       y       z     vdW  Elec       q    Type
REMARK                         _______ _______ _______ _____ _____    ______ ____
ROOT
ATOM      4  N   UNL     1      -0.198   0.201  24.190  0.00  0.00    -0.284 NA
ATOM      7  C   UNL     1       0.513   1.387  24.706  0.00  0.00    +0.149 C 
ATOM      8  C   UNL     1       1.609   1.674  23.663  0.00  0.00    +0.061 C 
ATOM      9  C   UNL     1       1.463   0.570  22.623  0.00  0.00    +0.130 C 
ATOM     10  C   UNL     1       0.766  -0.543  23.383  0.00  0.00    +0.116 C 
ENDROOT
BRANCH   7  12
ATOM      2  O   UNL     1       0.117   3.799  24.688  0.00  0.00    -0.336 OA
ATOM      5  N   UNL     1      -1.654   2.585  25.329  0.00  0.00    -0.194 NA
ATOM      6  N   UNL     1      -0.906   4.716  24.961  0.00  0.00    -0.061 NA
ATOM     12  C   UNL     1      -0.407   2.569  24.929  0.00  0.00    +0.245 A 
ATOM     14  C   UNL     1      -1.917   3.924  25.332  0.00  0.00    +0.176 A 
BRANCH  14  17
ATOM     17  C   UNL     1      -3.225   4.464  25.722  0.00  0.00    +0.114 C 
BRANCH  17  21
ATOM     21  C   UNL     1      -4.392   3.499  25.549  0.00  0.00    -0.040 A 
ATOM     22  C   UNL     1      -4.693   2.987  24.286  0.00  0.00    +0.004 A 
ATOM     23  C   UNL     1      -5.159   3.126  26.653  0.00  0.00    +0.004 A 
ATOM     24  C   UNL     1      -5.761   2.104  24.127  0.00  0.00    +0.000 A 
ATOM     25  C   UNL     1      -6.227   2.243  26.494  0.00  0.00    +0.000 A 
ATOM     26  C   UNL     1      -6.528   1.732  25.232  0.00  0.00    +0.000 A 
ENDBRANCH  17  21
ENDBRANCH  14  17
ENDBRANCH   7  12
BRANCH   9   1
ATOM      1  O   UNL     1       2.728   0.165  22.139  0.00  0.00    -0.390 OA
ATOM     27  H   UNL     1       3.293   0.956  22.101  0.00  0.00    +0.210 HD
ENDBRANCH   9   1
BRANCH   4  11
ATOM     11  C   UNL     1      -0.784  -0.620  25.241  0.00  0.00    +0.124 C 
BRANCH  11  13
ATOM     13  C   UNL     1      -2.049  -1.298  24.784  0.00  0.00    +0.008 A 
ATOM     15  C   UNL     1      -3.017  -0.593  24.071  0.00  0.00    +0.121 A 
ATOM     16  C   UNL     1      -2.245  -2.647  25.082  0.00  0.00    +0.008 A 
ATOM     18  C   UNL     1      -4.184  -1.235  23.656  0.00  0.00    +0.046 A 
ATOM     19  C   UNL     1      -3.412  -3.290  24.667  0.00  0.00    +0.001 A 
ATOM     20  C   UNL     1      -4.381  -2.584  23.954  0.00  0.00    +0.004 A 
BRANCH  15   3
ATOM      3  O   UNL     1      -2.842   0.725  23.772  0.00  0.00    -0.506 OA
ATOM     28  H   UNL     1      -2.183   0.804  23.060  0.00  0.00    +0.292 HD
ENDBRANCH  15   3
ENDBRANCH  11  13
ENDBRANCH   4  11
TORSDOF 7
ENDMDL
MODEL 3
REMARK VINA RESULT:      -6.0      2.040      6.223
REMARK  Name = 26744100
REMARK  7 active torsions:
REMARK  status: ('A' for Active; 'I' for Inactive)
REMARK    1  A    between atoms: O_1  and  C_9
REMARK    2  A    between atoms: O_3  and  C_15
REMARK    3  A    between atoms: N_4  and  C_11
REMARK    4  A    between atoms: C_7  and  C_12
REMARK    5  A    between atoms: C_11  and  C_13
REMARK    6  A    between atoms: C_14  and  C_17
REMARK    7  A    between atoms: C_17  and  C_21
REMARK                            x       y       z     vdW  Elec       q    Type
REMARK                         _______ _______ _______ _____ _____    ______ ____
ROOT
ATOM      4  N   UNL     1       0.630  -0.411  23.614  0.00  0.00    -0.284 NA
ATOM      7  C   UNL     1       1.270   0.803  24.159  0.00  0.00    +0.149 C 
ATOM      8  C   UNL     1       2.153   1.330  23.013  0.00  0.00    +0.061 C 
ATOM      9  C   UNL     1       1.977   0.322  21.883  0.00  0.00    +0.130 C 
ATOM     10  C   UNL     1       1.540  -0.941  22.601  0.00  0.00    +0.116 C 
ENDROOT
BRANCH   7  12
ATOM      2  O   UNL     1       0.454   2.318  25.894  0.00  0.00    -0.336 OA
ATOM      5  N   UNL     1      -0.783   2.315  24.026  0.00  0.00    -0.194 NA
ATOM      6  N   UNL     1      -0.586   3.230  26.114  0.00  0.00    -0.061 NA
ATOM     12  C   UNL     1       0.264   1.826  24.642  0.00  0.00    +0.245 A 
ATOM     14  C   UNL     1      -1.272   3.173  24.968  0.00  0.00    +0.176 A 
BRANCH  14  17
ATOM     17  C   UNL     1      -2.476   3.981  24.741  0.00  0.00    +0.114 C 
BRANCH  17  21
ATOM     21  C   UNL     1      -3.791   3.223  24.889  0.00  0.00    -0.040 A 
ATOM     22  C   UNL     1      -3.985   2.023  24.204  0.00  0.00    +0.004 A 
ATOM     23  C   UNL     1      -4.800   3.730  25.709  0.00  0.00    +0.004 A 
ATOM     24  C   UNL     1      -5.188   1.330  24.339  0.00  0.00    +0.000 A 
ATOM     25  C   UNL     1      -6.003   3.037  25.844  0.00  0.00    +0.000 A 
ATOM     26  C   UNL     1      -6.197   1.837  25.159  0.00  0.00    +0.000 A 
ENDBRANCH  17  21
ENDBRANCH  14  17
ENDBRANCH   7  12
BRANCH   9   1
ATOM      1  O   UNL     1       3.192   0.136  21.184  0.00  0.00    -0.390 OA
ATOM     27  H   UNL     1       3.741   0.923  21.337  0.00  0.00    +0.210 HD
ENDBRANCH   9   1
BRANCH   4  11
ATOM     11  C   UNL     1       0.311  -1.401  24.636  0.00  0.00    +0.124 C 
BRANCH  11  13
ATOM     13  C   UNL     1      -1.174  -1.556  24.822  0.00  0.00    +0.008 A 
ATOM     15  C   UNL     1      -1.859  -0.785  25.762  0.00  0.00    +0.121 A 
ATOM     16  C   UNL     1      -1.866  -2.484  24.044  0.00  0.00    +0.008 A 
ATOM     18  C   UNL     1      -3.236  -0.942  25.923  0.00  0.00    +0.046 A 
ATOM     19  C   UNL     1      -3.243  -2.641  24.205  0.00  0.00    +0.001 A 
ATOM     20  C   UNL     1      -3.927  -1.870  25.144  0.00  0.00    +0.004 A 
BRANCH  15   3
ATOM      3  O   UNL     1      -1.199   0.125  26.532  0.00  0.00    -0.506 OA
ATOM     28  H   UNL     1      -1.562   1.011  26.357  0.00  0.00    +0.292 HD
ENDBRANCH  15   3
ENDBRANCH  11  13
ENDBRANCH   4  11
TORSDOF 7
ENDMDL
MODEL 4
REMARK VINA RESULT:      -5.8      1.414      3.571
REMARK  Name = 26744100
REMARK  7 active torsions:
REMARK  status: ('A' for Active; 'I' for Inactive)
REMARK    1  A    between atoms: O_1  and  C_9
REMARK    2  A    between atoms: O_3  and  C_15
REMARK    3  A    between atoms: N_4  and  C_11
REMARK    4  A    between atoms: C_7  and  C_12
REMARK    5  A    between atoms: C_11  and  C_13
REMARK    6  A    between atoms: C_14  and  C_17
REMARK    7  A    between atoms: C_17  and  C_21
REMARK                            x       y       z     vdW  Elec       q    Type
REMARK                         _______ _______ _______ _____ _____    ______ ____
ROOT
ATOM      4  N   UNL     1      -2.925  -0.075  23.527  0.00  0.00    -0.284 NA
ATOM      7  C   UNL     1      -1.923   0.122  24.594  0.00  0.00    +0.149 C 
ATOM      8  C   UNL     1      -1.949  -1.189  25.404  0.00  0.00    +0.061 C 
ATOM      9  C   UNL     1      -3.026  -2.040  24.743  0.00  0.00    +0.130 C 
ATOM     10  C   UNL     1      -3.909  -1.019  24.051  0.00  0.00    +0.116 C 
ENDROOT
BRANCH   7  12
ATOM      2  O   UNL     1       0.042   1.573  24.532  0.00  0.00    -0.336 OA
ATOM      5  N   UNL     1       0.171  -0.201  23.170  0.00  0.00    -0.194 NA
ATOM      6  N   UNL     1       1.283   1.664  23.891  0.00  0.00    -0.061 NA
ATOM     12  C   UNL     1      -0.548   0.448  24.052  0.00  0.00    +0.245 A 
ATOM     14  C   UNL     1       1.286   0.583  23.105  0.00  0.00    +0.176 A 
BRANCH  14  17
ATOM     17  C   UNL     1       2.417   0.263  22.227  0.00  0.00    +0.114 C 
BRANCH  17  21
ATOM     21  C   UNL     1       3.716  -0.072  22.952  0.00  0.00    -0.040 A 
ATOM     22  C   UNL     1       4.704   0.902  23.099  0.00  0.00    +0.004 A 
ATOM     23  C   UNL     1       3.916  -1.352  23.470  0.00  0.00    +0.004 A 
ATOM     24  C   UNL     1       5.892   0.596  23.763  0.00  0.00    +0.000 A 
ATOM     25  C   UNL     1       5.104  -1.658  24.133  0.00  0.00    +0.000 A 
ATOM     26  C   UNL     1       6.092  -0.684  24.280  0.00  0.00    +0.000 A 
ENDBRANCH  17  21
ENDBRANCH  14  17
ENDBRANCH   7  12
BRANCH   9   1
ATOM      1  O   UNL     1      -3.740  -2.784  25.710  0.00  0.00    -0.390 OA
ATOM     27  H   UNL     1      -3.105  -3.067  26.389  0.00  0.00    +0.210 HD
ENDBRANCH   9   1
BRANCH   4  11
ATOM     11  C   UNL     1      -3.540   1.168  23.081  0.00  0.00    +0.124 C 
BRANCH  11  13
ATOM     13  C   UNL     1      -4.133   1.944  24.227  0.00  0.00    +0.008 A 
ATOM     15  C   UNL     1      -3.466   3.047  24.760  0.00  0.00    +0.121 A 
ATOM     16  C   UNL     1      -5.361   1.549  24.755  0.00  0.00    +0.008 A 
ATOM     18  C   UNL     1      -4.028   3.756  25.823  0.00  0.00    +0.046 A 
ATOM     19  C   UNL     1      -5.924   2.257  25.818  0.00  0.00    +0.001 A 
ATOM     20  C   UNL     1      -5.257   3.360  26.351  0.00  0.00    +0.004 A 
BRANCH  15   3
ATOM      3  O   UNL     1      -2.264   3.446  24.257  0.00  0.00    -0.506 OA
ATOM     28  H   UNL     1      -2.365   3.635  23.307  0.00  0.00    +0.292 HD
ENDBRANCH  15   3
ENDBRANCH  11  13
ENDBRANCH   4  11
TORSDOF 7
ENDMDL
MODEL 5
REMARK VINA RESULT:      -5.8      2.172      6.298
REMARK  Name = 26744100
REMARK  7 active torsions:
REMARK  status: ('A' for Active; 'I' for Inactive)
REMARK    1  A    between atoms: O_1  and  C_9
REMARK    2  A    between atoms: O_3  and  C_15
REMARK    3  A    between atoms: N_4  and  C_11
REMARK    4  A    between atoms: C_7  and  C_12
REMARK    5  A    between atoms: C_11  and  C_13
REMARK    6  A    between atoms: C_14  and  C_17
REMARK    7  A    between atoms: C_17  and  C_21
REMARK                            x       y       z     vdW  Elec       q    Type
REMARK                         _______ _______ _______ _____ _____    ______ ____
ROOT
ATOM      4  N   UNL     1      -0.205   0.304  24.219  0.00  0.00    -0.284 NA
ATOM      7  C   UNL     1       0.497   1.505  24.711  0.00  0.00    +0.149 C 
ATOM      8  C   UNL     1       1.609   1.762  23.677  0.00  0.00    +0.061 C 
ATOM      9  C   UNL     1       1.480   0.627  22.668  0.00  0.00    +0.130 C 
ATOM     10  C   UNL     1       0.772  -0.463  23.450  0.00  0.00    +0.116 C 
ENDROOT
BRANCH   7  12
ATOM      2  O   UNL     1       0.134   3.922  24.749  0.00  0.00    -0.336 OA
ATOM      5  N   UNL     1      -1.709   2.713  25.152  0.00  0.00    -0.194 NA
ATOM      6  N   UNL     1      -0.901   4.844  24.951  0.00  0.00    -0.061 NA
ATOM     12  C   UNL     1      -0.427   2.692  24.884  0.00  0.00    +0.245 A 
ATOM     14  C   UNL     1      -1.954   4.055  25.182  0.00  0.00    +0.176 A 
BRANCH  14  17
ATOM     17  C   UNL     1      -3.289   4.600  25.454  0.00  0.00    +0.114 C 
BRANCH  17  21
ATOM     21  C   UNL     1      -4.423   3.583  25.382  0.00  0.00    -0.040 A 
ATOM     22  C   UNL     1      -5.174   3.294  26.521  0.00  0.00    +0.004 A 
ATOM     23  C   UNL     1      -4.708   2.941  24.176  0.00  0.00    +0.004 A 
ATOM     24  C   UNL     1      -6.211   2.363  26.455  0.00  0.00    +0.000 A 
ATOM     25  C   UNL     1      -5.745   2.010  24.110  0.00  0.00    +0.000 A 
ATOM     26  C   UNL     1      -6.497   1.721  25.250  0.00  0.00    +0.000 A 
ENDBRANCH  17  21
ENDBRANCH  14  17
ENDBRANCH   7  12
BRANCH   9   1
ATOM      1  O   UNL     1       2.752   0.210  22.216  0.00  0.00    -0.390 OA
ATOM     27  H   UNL     1       3.397   0.880  22.498  0.00  0.00    +0.210 HD
ENDBRANCH   9   1
BRANCH   4  11
ATOM     11  C   UNL     1      -0.807  -0.487  25.286  0.00  0.00    +0.124 C 
BRANCH  11  13
ATOM     13  C   UNL     1      -2.066  -1.176  24.832  0.00  0.00    +0.008 A 
ATOM     15  C   UNL     1      -2.113  -2.564  24.706  0.00  0.00    +0.121 A 
ATOM     16  C   UNL     1      -3.193  -0.409  24.534  0.00  0.00    +0.008 A 
ATOM     18  C   UNL     1      -3.288  -3.187  24.284  0.00  0.00    +0.046 A 
ATOM     19  C   UNL     1      -4.368  -1.032  24.112  0.00  0.00    +0.001 A 
ATOM     20  C   UNL     1      -4.415  -2.421  23.987  0.00  0.00    +0.004 A 
BRANCH  15   3
ATOM      3  O   UNL     1      -1.021  -3.327  24.992  0.00  0.00    -0.506 OA
ATOM     28  H   UNL     1      -0.605  -3.609  24.158  0.00  0.00    +0.292 HD
ENDBRANCH  15   3
ENDBRANCH  11  13
ENDBRANCH   4  11
TORSDOF 7
ENDMDL
MODEL 6
REMARK VINA RESULT:      -5.0      2.863      5.791
REMARK  Name = 26744100
REMARK  7 active torsions:
REMARK  status: ('A' for Active; 'I' for Inactive)
REMARK    1  A    between atoms: O_1  and  C_9
REMARK    2  A    between atoms: O_3  and  C_15
REMARK    3  A    between atoms: N_4  and  C_11
REMARK    4  A    between atoms: C_7  and  C_12
REMARK    5  A    between atoms: C_11  and  C_13
REMARK    6  A    between atoms: C_14  and  C_17
REMARK    7  A    between atoms: C_17  and  C_21
REMARK                            x       y       z     vdW  Elec       q    Type
REMARK                         _______ _______ _______ _____ _____    ______ ____
ROOT
ATOM      4  N   UNL     1      -3.930  -0.932  24.528  0.00  0.00    -0.284 NA
ATOM      7  C   UNL     1      -2.670  -1.422  25.122  0.00  0.00    +0.149 C 
ATOM      8  C   UNL     1      -2.460  -2.817  24.504  0.00  0.00    +0.061 C 
ATOM      9  C   UNL     1      -3.674  -3.041  23.612  0.00  0.00    +0.130 C 
ATOM     10  C   UNL     1      -4.722  -2.116  24.201  0.00  0.00    +0.116 C 
ENDROOT
BRANCH   7  12
ATOM      2  O   UNL     1      -0.500  -0.968  24.095  0.00  0.00    -0.336 OA
ATOM      5  N   UNL     1      -1.315   0.735  25.301  0.00  0.00    -0.194 NA
ATOM      6  N   UNL     1       0.449   0.059  24.010  0.00  0.00    -0.061 NA
ATOM     12  C   UNL     1      -1.505  -0.488  24.872  0.00  0.00    +0.245 A 
ATOM     14  C   UNL     1      -0.103   1.028  24.746  0.00  0.00    +0.176 A 
BRANCH  14  17
ATOM     17  C   UNL     1       0.555   2.324  24.945  0.00  0.00    +0.114 C 
BRANCH  17  21
ATOM     21  C   UNL     1      -0.394   3.501  25.142  0.00  0.00    -0.040 A 
ATOM     22  C   UNL     1      -1.428   3.414  26.075  0.00  0.00    +0.004 A 
ATOM     23  C   UNL     1      -0.230   4.663  24.389  0.00  0.00    +0.004 A 
ATOM     24  C   UNL     1      -2.297   4.490  26.255  0.00  0.00    +0.000 A 
ATOM     25  C   UNL     1      -1.099   5.739  24.569  0.00  0.00    +0.000 A 
ATOM     26  C   UNL     1      -2.133   5.653  25.502  0.00  0.00    +0.000 A 
ENDBRANCH  17  21
ENDBRANCH  14  17
ENDBRANCH   7  12
BRANCH   9   1
ATOM      1  O   UNL     1      -4.084  -4.393  23.651  0.00  0.00    -0.390 OA
ATOM     27  H   UNL     1      -4.834  -4.490  23.040  0.00  0.00    +0.210 HD
ENDBRANCH   9   1
BRANCH   4  11
ATOM     11  C   UNL     1      -4.653  -0.009  25.393  0.00  0.00    +0.124 C 
BRANCH  11  13
ATOM     13  C   UNL     1      -4.610   1.402  24.870  0.00  0.00    +0.008 A 
ATOM     15  C   UNL     1      -5.348   2.412  25.486  0.00  0.00    +0.121 A 
ATOM     16  C   UNL     1      -3.823   1.692  23.756  0.00  0.00    +0.008 A 
ATOM     18  C   UNL     1      -5.298   3.715  24.988  0.00  0.00    +0.046 A 
ATOM     19  C   UNL     1      -3.773   2.994  23.258  0.00  0.00    +0.001 A 
ATOM     20  C   UNL     1      -4.510   4.005  23.874  0.00  0.00    +0.004 A 
BRANCH  15   3
ATOM      3  O   UNL     1      -6.123   2.146  26.575  0.00  0.00    -0.506 OA
ATOM     28  H   UNL     1      -6.097   2.909  27.178  0.00  0.00    +0.292 HD
ENDBRANCH  15   3
ENDBRANCH  11  13
ENDBRANCH   4  11
TORSDOF 7
ENDMDL
MODEL 7
REMARK VINA RESULT:      -4.8      1.502      4.066
REMARK  Name = 26744100
REMARK  7 active torsions:
REMARK  status: ('A' for Active; 'I' for Inactive)
REMARK    1  A    between atoms: O_1  and  C_9
REMARK    2  A    between atoms: O_3  and  C_15
REMARK    3  A    between atoms: N_4  and  C_11
REMARK    4  A    between atoms: C_7  and  C_12
REMARK    5  A    between atoms: C_11  and  C_13
REMARK    6  A    between atoms: C_14  and  C_17
REMARK    7  A    between atoms: C_17  and  C_21
REMARK                            x       y       z     vdW  Elec       q    Type
REMARK                         _______ _______ _______ _____ _____    ______ ____
ROOT
ATOM      4  N   UNL     1      -3.370  -0.004  24.321  0.00  0.00    -0.284 NA
ATOM      7  C   UNL     1      -2.197  -0.513  25.060  0.00  0.00    +0.149 C 
ATOM      8  C   UNL     1      -2.222  -2.037  24.837  0.00  0.00    +0.061 C 
ATOM      9  C   UNL     1      -3.469  -2.293  23.999  0.00  0.00    +0.130 C 
ATOM     10  C   UNL     1      -4.346  -1.091  24.294  0.00  0.00    +0.116 C 
ENDROOT
BRANCH   7  12
ATOM      2  O   UNL     1      -0.366   1.063  25.431  0.00  0.00    -0.336 OA
ATOM      5  N   UNL     1      -0.204  -0.095  23.520  0.00  0.00    -0.194 NA
ATOM      6  N   UNL     1       0.809   1.502  24.808  0.00  0.00    -0.061 NA
ATOM     12  C   UNL     1      -0.900   0.124  24.607  0.00  0.00    +0.245 A 
ATOM     14  C   UNL     1       0.836   0.773  23.688  0.00  0.00    +0.176 A 
BRANCH  14  17
ATOM     17  C   UNL     1       1.915   0.902  22.702  0.00  0.00    +0.114 C 
BRANCH  17  21
ATOM     21  C   UNL     1       3.244   0.285  23.125  0.00  0.00    -0.040 A 
ATOM     22  C   UNL     1       4.407   1.056  23.110  0.00  0.00    +0.004 A 
ATOM     23  C   UNL     1       3.298  -1.050  23.525  0.00  0.00    +0.004 A 
ATOM     24  C   UNL     1       5.623   0.492  23.497  0.00  0.00    +0.000 A 
ATOM     25  C   UNL     1       4.514  -1.614  23.912  0.00  0.00    +0.000 A 
ATOM     26  C   UNL     1       5.676  -0.843  23.897  0.00  0.00    +0.000 A 
ENDBRANCH  17  21
ENDBRANCH  14  17
ENDBRANCH   7  12
BRANCH   9   1
ATOM      1  O   UNL     1      -4.090  -3.504  24.381  0.00  0.00    -0.390 OA
ATOM     27  H   UNL     1      -3.509  -4.231  24.101  0.00  0.00    +0.210 HD
ENDBRANCH   9   1
BRANCH   4  11
ATOM     11  C   UNL     1      -3.923   1.217  24.892  0.00  0.00    +0.124 C 
BRANCH  11  13
ATOM     13  C   UNL     1      -2.972   2.377  24.764  0.00  0.00    +0.008 A 
ATOM     15  C   UNL     1      -2.368   2.671  23.541  0.00  0.00    +0.121 A 
ATOM     16  C   UNL     1      -2.699   3.162  25.884  0.00  0.00    +0.008 A 
ATOM     18  C   UNL     1      -1.489   3.750  23.440  0.00  0.00    +0.046 A 
ATOM     19  C   UNL     1      -1.819   4.240  25.782  0.00  0.00    +0.001 A 
ATOM     20  C   UNL     1      -1.215   4.534  24.560  0.00  0.00    +0.004 A 
BRANCH  15   3
ATOM      3  O   UNL     1      -2.624   1.915  22.437  0.00  0.00    -0.506 OA
ATOM     28  H   UNL     1      -3.499   1.500  22.532  0.00  0.00    +0.292 HD
ENDBRANCH  15   3
ENDBRANCH  11  13
ENDBRANCH   4  11
TORSDOF 7
ENDMDL
MODEL 8
REMARK VINA RESULT:      -3.8      2.477      5.610
REMARK  Name = 26744100
REMARK  7 active torsions:
REMARK  status: ('A' for Active; 'I' for Inactive)
REMARK    1  A    between atoms: O_1  and  C_9
REMARK    2  A    between atoms: O_3  and  C_15
REMARK    3  A    between atoms: N_4  and  C_11
REMARK    4  A    between atoms: C_7  and  C_12
REMARK    5  A    between atoms: C_11  and  C_13
REMARK    6  A    between atoms: C_14  and  C_17
REMARK    7  A    between atoms: C_17  and  C_21
REMARK                            x       y       z     vdW  Elec       q    Type
REMARK                         _______ _______ _______ _____ _____    ______ ____
ROOT
ATOM      4  N   UNL     1      -1.293   3.572  25.326  0.00  0.00    -0.284 NA
ATOM      7  C   UNL     1      -2.562   3.903  26.006  0.00  0.00    +0.149 C 
ATOM      8  C   UNL     1      -2.876   5.347  25.571  0.00  0.00    +0.061 C 
ATOM      9  C   UNL     1      -1.705   5.757  24.687  0.00  0.00    +0.130 C 
ATOM     10  C   UNL     1      -0.585   4.836  25.132  0.00  0.00    +0.116 C 
ENDROOT
BRANCH   7  12
ATOM      2  O   UNL     1      -4.890   3.191  26.217  0.00  0.00    -0.336 OA
ATOM      5  N   UNL     1      -3.642   1.864  24.912  0.00  0.00    -0.194 NA
ATOM      6  N   UNL     1      -5.741   2.174  25.767  0.00  0.00    -0.061 NA
ATOM     12  C   UNL     1      -3.674   2.934  25.667  0.00  0.00    +0.245 A 
ATOM     14  C   UNL     1      -4.933   1.432  25.004  0.00  0.00    +0.176 A 
BRANCH  14  17
ATOM     17  C   UNL     1      -5.406   0.228  24.311  0.00  0.00    +0.114 C 
BRANCH  17  21
ATOM     21  C   UNL     1      -4.567  -1.022  24.555  0.00  0.00    -0.040 A 
ATOM     22  C   UNL     1      -3.967  -1.227  25.798  0.00  0.00    +0.004 A 
ATOM     23  C   UNL     1      -4.399  -1.959  23.536  0.00  0.00    +0.004 A 
ATOM     24  C   UNL     1      -3.199  -2.370  26.022  0.00  0.00    +0.000 A 
ATOM     25  C   UNL     1      -3.631  -3.102  23.760  0.00  0.00    +0.000 A 
ATOM     26  C   UNL     1      -3.031  -3.307  25.003  0.00  0.00    +0.000 A 
ENDBRANCH  17  21
ENDBRANCH  14  17
ENDBRANCH   7  12
BRANCH   9   1
ATOM      1  O   UNL     1      -1.378   7.117  24.886  0.00  0.00    -0.390 OA
ATOM     27  H   UNL     1      -1.631   7.600  24.081  0.00  0.00    +0.210 HD
ENDBRANCH   9   1
BRANCH   4  11
ATOM     11  C   UNL     1      -0.489   2.599  26.053  0.00  0.00    +0.124 C 
BRANCH  11  13
ATOM     13  C   UNL     1      -0.270   1.342  25.252  0.00  0.00    +0.008 A 
ATOM     15  C   UNL     1       0.427   1.379  24.045  0.00  0.00    +0.121 A 
ATOM     16  C   UNL     1      -0.775   0.133  25.731  0.00  0.00    +0.008 A 
ATOM     18  C   UNL     1       0.621   0.206  23.315  0.00  0.00    +0.046 A 
ATOM     19  C   UNL     1      -0.581  -1.041  25.001  0.00  0.00    +0.001 A 
ATOM     20  C   UNL     1       0.116  -1.004  23.794  0.00  0.00    +0.004 A 
BRANCH  15   3
ATOM      3  O   UNL     1       0.926   2.552  23.563  0.00  0.00    -0.506 OA
ATOM     28  H   UNL     1       0.343   2.878  22.856  0.00  0.00    +0.292 HD
ENDBRANCH  15   3
ENDBRANCH  11  13
ENDBRANCH   4  11
TORSDOF 7
ENDMDL
MODEL 9
REMARK VINA RESULT:      -3.7      1.748      2.608
REMARK  Name = 26744100
REMARK  7 active torsions:
REMARK  status: ('A' for Active; 'I' for Inactive)
REMARK    1  A    between atoms: O_1  and  C_9
REMARK    2  A    between atoms: O_3  and  C_15
REMARK    3  A    between atoms: N_4  and  C_11
REMARK    4  A    between atoms: C_7  and  C_12
REMARK    5  A    between atoms: C_11  and  C_13
REMARK    6  A    between atoms: C_14  and  C_17
REMARK    7  A    between atoms: C_17  and  C_21
REMARK                            x       y       z     vdW  Elec       q    Type
REMARK                         _______ _______ _______ _____ _____    ______ ____
ROOT
ATOM      4  N   UNL     1      -4.383   1.653  24.965  0.00  0.00    -0.284 NA
ATOM      7  C   UNL     1      -3.643   2.830  24.467  0.00  0.00    +0.149 C 
ATOM      8  C   UNL     1      -4.354   4.039  25.103  0.00  0.00    +0.061 C 
ATOM      9  C   UNL     1      -5.505   3.444  25.904  0.00  0.00    +0.130 C 
ATOM     10  C   UNL     1      -5.746   2.103  25.236  0.00  0.00    +0.116 C 
ENDROOT
BRANCH   7  12
ATOM      2  O   UNL     1      -1.834   2.938  26.106  0.00  0.00    -0.336 OA
ATOM      5  N   UNL     1      -1.143   2.595  24.003  0.00  0.00    -0.194 NA
ATOM      6  N   UNL     1      -0.438   2.852  26.164  0.00  0.00    -0.061 NA
ATOM     12  C   UNL     1      -2.167   2.776  24.799  0.00  0.00    +0.245 A 
ATOM     14  C   UNL     1      -0.104   2.649  24.886  0.00  0.00    +0.176 A 
BRANCH  14  17
ATOM     17  C   UNL     1       1.292   2.498  24.461  0.00  0.00    +0.114 C 
BRANCH  17  21
ATOM     21  C   UNL     1       1.543   1.351  23.488  0.00  0.00    -0.040 A 
ATOM     22  C   UNL     1       2.806   1.184  22.918  0.00  0.00    +0.004 A 
ATOM     23  C   UNL     1       0.511   0.469  23.167  0.00  0.00    +0.004 A 
ATOM     24  C   UNL     1       3.036   0.136  22.027  0.00  0.00    +0.000 A 
ATOM     25  C   UNL     1       0.742  -0.580  22.277  0.00  0.00    +0.000 A 
ATOM     26  C   UNL     1       2.005  -0.747  21.707  0.00  0.00    +0.000 A 
ENDBRANCH  17  21
ENDBRANCH  14  17
ENDBRANCH   7  12
BRANCH   9   1
ATOM      1  O   UNL     1      -6.645   4.277  25.838  0.00  0.00    -0.390 OA
ATOM     27  H   UNL     1      -6.335   5.199  25.838  0.00  0.00    +0.210 HD
ENDBRANCH   9   1
BRANCH   4  11
ATOM     11  C   UNL     1      -4.351   0.523  24.046  0.00  0.00    +0.124 C 
BRANCH  11  13
ATOM     13  C   UNL     1      -3.389  -0.543  24.499  0.00  0.00    +0.008 A 
ATOM     15  C   UNL     1      -3.601  -1.881  24.169  0.00  0.00    +0.121 A 
ATOM     16  C   UNL     1      -2.276  -0.179  25.258  0.00  0.00    +0.008 A 
ATOM     18  C   UNL     1      -2.700  -2.857  24.597  0.00  0.00    +0.046 A 
ATOM     19  C   UNL     1      -1.376  -1.154  25.687  0.00  0.00    +0.001 A 
ATOM     20  C   UNL     1      -1.588  -2.493  25.356  0.00  0.00    +0.004 A 
BRANCH  15   3
ATOM      3  O   UNL     1      -4.683  -2.254  23.429  0.00  0.00    -0.506 OA
ATOM     28  H   UNL     1      -5.493  -2.062  23.933  0.00  0.00    +0.292 HD
ENDBRANCH  15   3
ENDBRANCH  11  13
ENDBRANCH   4  11
TORSDOF 7
ENDMDL
MODEL 10
REMARK VINA RESULT:      -2.5      1.820      5.833
REMARK  Name = 26744100
REMARK  7 active torsions:
REMARK  status: ('A' for Active; 'I' for Inactive)
REMARK    1  A    between atoms: O_1  and  C_9
REMARK    2  A    between atoms: O_3  and  C_15
REMARK    3  A    between atoms: N_4  and  C_11
REMARK    4  A    between atoms: C_7  and  C_12
REMARK    5  A    between atoms: C_11  and  C_13
REMARK    6  A    between atoms: C_14  and  C_17
REMARK    7  A    between atoms: C_17  and  C_21
REMARK                            x       y       z     vdW  Elec       q    Type
REMARK                         _______ _______ _______ _____ _____    ______ ____
ROOT
ATOM      4  N   UNL     1      -0.763   3.187  24.813  0.00  0.00    -0.284 NA
ATOM      7  C   UNL     1      -1.867   3.629  25.689  0.00  0.00    +0.149 C 
ATOM      8  C   UNL     1      -1.986   5.144  25.438  0.00  0.00    +0.061 C 
ATOM      9  C   UNL     1      -0.879   5.468  24.442  0.00  0.00    +0.130 C 
ATOM     10  C   UNL     1       0.118   4.341  24.641  0.00  0.00    +0.116 C 
ENDROOT
BRANCH   7  12
ATOM      2  O   UNL     1      -4.300   3.621  25.464  0.00  0.00    -0.336 OA
ATOM      5  N   UNL     1      -3.346   1.620  25.144  0.00  0.00    -0.194 NA
ATOM      6  N   UNL     1      -5.345   2.731  25.188  0.00  0.00    -0.061 NA
ATOM     12  C   UNL     1      -3.158   2.887  25.418  0.00  0.00    +0.245 A 
ATOM     14  C   UNL     1      -4.703   1.572  25.011  0.00  0.00    +0.176 A 
BRANCH  14  17
ATOM     17  C   UNL     1      -5.415   0.329  24.695  0.00  0.00    +0.114 C 
BRANCH  17  21
ATOM     21  C   UNL     1      -4.554  -0.929  24.737  0.00  0.00    -0.040 A 
ATOM     22  C   UNL     1      -3.839  -1.246  25.891  0.00  0.00    +0.004 A 
ATOM     23  C   UNL     1      -4.483  -1.763  23.620  0.00  0.00    +0.004 A 
ATOM     24  C   UNL     1      -3.051  -2.397  25.930  0.00  0.00    +0.000 A 
ATOM     25  C   UNL     1      -3.695  -2.913  23.659  0.00  0.00    +0.000 A 
ATOM     26  C   UNL     1      -2.979  -3.231  24.814  0.00  0.00    +0.000 A 
ENDBRANCH  17  21
ENDBRANCH  14  17
ENDBRANCH   7  12
BRANCH   9   1
ATOM      1  O   UNL     1      -0.308   6.730  24.719  0.00  0.00    -0.390 OA
ATOM     27  H   UNL     1       0.530   6.787  24.229  0.00  0.00    +0.210 HD
ENDBRANCH   9   1
BRANCH   4  11
ATOM     11  C   UNL     1      -0.050   2.025  25.328  0.00  0.00    +0.124 C 
BRANCH  11  13
ATOM     13  C   UNL     1       0.578   1.217  24.224  0.00  0.00    +0.008 A 
ATOM     15  C   UNL     1      -0.132   0.192  23.600  0.00  0.00    +0.121 A 
ATOM     16  C   UNL     1       1.884   1.503  23.828  0.00  0.00    +0.008 A 
ATOM     18  C   UNL     1       0.464  -0.549  22.579  0.00  0.00    +0.046 A 
ATOM     19  C   UNL     1       2.481   0.763  22.807  0.00  0.00    +0.001 A 
ATOM     20  C   UNL     1       1.771  -0.263  22.183  0.00  0.00    +0.004 A 
BRANCH  15   3
ATOM      3  O   UNL     1      -1.409  -0.101  23.975  0.00  0.00    -0.506 OA
ATOM     28  H   UNL     1      -2.026   0.439  23.451  0.00  0.00    +0.292 HD
ENDBRANCH  15   3
ENDBRANCH  11  13
ENDBRANCH   4  11
TORSDOF 7
ENDMDL
