MODEL 1
REMARK VINA RESULT:      -4.5      0.000      0.000
REMARK  Name = 45784230
REMARK  4 active torsions:
REMARK  status: ('A' for Active; 'I' for Inactive)
REMARK    1  A    between atoms: N_2  and  C_11
REMARK    2  A    between atoms: C_6  and  C_10
REMARK    3  A    between atoms: C_11  and  C_12
REMARK    4  A    between atoms: C_20  and  C_24
REMARK                            x       y       z     vdW  Elec       q    Type
REMARK                         _______ _______ _______ _____ _____    ______ ____
ROOT
ATOM      2  N   UNL     1      -5.490 -10.291  17.218  0.00  0.00    -0.297 NA
ATOM      6  C   UNL     1      -4.810 -10.781  15.027  0.00  0.00    +0.070 C 
ATOM      7  C   UNL     1      -3.580 -10.426  15.881  0.00  0.00    +0.028 C 
ATOM      8  C   UNL     1      -6.008 -10.285  15.848  0.00  0.00    +0.096 C 
ATOM      9  C   UNL     1      -4.143  -9.731  17.113  0.00  0.00    +0.085 C 
ENDROOT
BRANCH   6  10
ATOM      1  F   UNL     1      -6.307  -7.756   8.595  0.00  0.00    -0.205 F 
ATOM      3  N   UNL     1      -5.904  -9.666  13.063  0.00  0.00    -0.341 N 
ATOM      4  N   UNL     1      -3.764 -10.204  12.800  0.00  0.00    -0.232 NA
ATOM     10  C   UNL     1      -4.789 -10.225  13.622  0.00  0.00    +0.113 A 
ATOM     13  C   UNL     1      -5.578  -9.257  11.796  0.00  0.00    +0.069 A 
ATOM     14  C   UNL     1      -4.237  -9.604  11.655  0.00  0.00    +0.089 A 
ATOM     17  C   UNL     1      -6.317  -8.632  10.791  0.00  0.00    +0.066 A 
ATOM     18  C   UNL     1      -3.579  -9.317  10.448  0.00  0.00    +0.032 A 
ATOM     19  C   UNL     1      -5.646  -8.355   9.596  0.00  0.00    +0.125 A 
ATOM     21  C   UNL     1      -4.301  -8.691   9.425  0.00  0.00    +0.040 A 
ATOM     25  H   UNL     1      -6.811  -9.569  13.503  0.00  0.00    +0.167 HD
ENDBRANCH   6  10
BRANCH   2  11
ATOM     11  C   UNL     1      -6.334  -9.540  18.135  0.00  0.00    +0.119 C 
BRANCH  11  12
ATOM     12  C   UNL     1      -7.776  -9.544  17.701  0.00  0.00    -0.032 A 
ATOM     15  C   UNL     1      -8.337  -8.400  17.134  0.00  0.00    +0.023 A 
ATOM     16  C   UNL     1      -8.549 -10.692  17.867  0.00  0.00    +0.005 A 
ATOM     20  C   UNL     1      -9.673  -8.405  16.732  0.00  0.00    +0.052 A 
ATOM     22  C   UNL     1      -9.885 -10.698  17.464  0.00  0.00    +0.002 A 
ATOM     23  C   UNL     1     -10.446  -9.554  16.896  0.00  0.00    +0.019 A 
BRANCH  20  24
ATOM      5  N   UNL     1     -10.719  -6.285  15.677  0.00  0.00    -0.191 NA
ATOM     24  C   UNL     1     -10.250  -7.234  16.150  0.00  0.00    +0.099 C 
ENDBRANCH  20  24
ENDBRANCH  11  12
ENDBRANCH   2  11
TORSDOF 4
ENDMDL
MODEL 2
REMARK VINA RESULT:      -4.1      2.125      3.380
REMARK  Name = 45784230
REMARK  4 active torsions:
REMARK  status: ('A' for Active; 'I' for Inactive)
REMARK    1  A    between atoms: N_2  and  C_11
REMARK    2  A    between atoms: C_6  and  C_10
REMARK    3  A    between atoms: C_11  and  C_12
REMARK    4  A    between atoms: C_20  and  C_24
REMARK                            x       y       z     vdW  Elec       q    Type
REMARK                         _______ _______ _______ _____ _____    ______ ____
ROOT
ATOM      2  N   UNL     1      -2.860 -10.761  14.434  0.00  0.00    -0.297 NA
ATOM      6  C   UNL     1      -3.924 -10.781  12.344  0.00  0.00    +0.070 C 
ATOM      7  C   UNL     1      -2.434 -10.444  12.160  0.00  0.00    +0.028 C 
ATOM      8  C   UNL     1      -4.187 -10.575  13.843  0.00  0.00    +0.096 C 
ATOM      9  C   UNL     1      -1.947 -10.043  13.545  0.00  0.00    +0.085 C 
ENDROOT
BRANCH   6  10
ATOM      1  F   UNL     1      -9.631  -7.730   9.045  0.00  0.00    -0.205 F 
ATOM      3  N   UNL     1      -6.223 -10.078  11.623  0.00  0.00    -0.341 N 
ATOM      4  N   UNL     1      -4.536  -9.165  10.499  0.00  0.00    -0.232 NA
ATOM     10  C   UNL     1      -4.867  -9.990  11.467  0.00  0.00    +0.113 A 
ATOM     13  C   UNL     1      -6.805  -9.254  10.694  0.00  0.00    +0.069 A 
ATOM     14  C   UNL     1      -5.731  -8.696  10.005  0.00  0.00    +0.089 A 
ATOM     17  C   UNL     1      -8.137  -8.958  10.405  0.00  0.00    +0.066 A 
ATOM     18  C   UNL     1      -5.983  -7.787   8.964  0.00  0.00    +0.032 A 
ATOM     19  C   UNL     1      -8.370  -8.051   9.366  0.00  0.00    +0.125 A 
ATOM     21  C   UNL     1      -7.313  -7.475   8.657  0.00  0.00    +0.040 A 
ATOM     25  H   UNL     1      -6.713 -10.646  12.301  0.00  0.00    +0.167 HD
ENDBRANCH   6  10
BRANCH   2  11
ATOM     11  C   UNL     1      -2.791 -10.281  15.806  0.00  0.00    +0.119 C 
BRANCH  11  12
ATOM     12  C   UNL     1      -4.129 -10.348  16.492  0.00  0.00    -0.032 A 
ATOM     15  C   UNL     1      -5.293 -10.044  15.785  0.00  0.00    +0.023 A 
ATOM     16  C   UNL     1      -4.204 -10.716  17.835  0.00  0.00    +0.005 A 
ATOM     20  C   UNL     1      -6.532 -10.108  16.423  0.00  0.00    +0.052 A 
ATOM     22  C   UNL     1      -5.444 -10.781  18.472  0.00  0.00    +0.002 A 
ATOM     23  C   UNL     1      -6.608 -10.477  17.766  0.00  0.00    +0.019 A 
BRANCH  20  24
ATOM      5  N   UNL     1      -8.694  -9.546  15.113  0.00  0.00    -0.191 NA
ATOM     24  C   UNL     1      -7.725  -9.797  15.700  0.00  0.00    +0.099 C 
ENDBRANCH  20  24
ENDBRANCH  11  12
ENDBRANCH   2  11
TORSDOF 4
ENDMDL
MODEL 3
REMARK VINA RESULT:      -3.1     14.028     15.840
REMARK  Name = 45784230
REMARK  4 active torsions:
REMARK  status: ('A' for Active; 'I' for Inactive)
REMARK    1  A    between atoms: N_2  and  C_11
REMARK    2  A    between atoms: C_6  and  C_10
REMARK    3  A    between atoms: C_11  and  C_12
REMARK    4  A    between atoms: C_20  and  C_24
REMARK                            x       y       z     vdW  Elec       q    Type
REMARK                         _______ _______ _______ _____ _____    ______ ____
ROOT
ATOM      2  N   UNL     1      -3.162  -0.836  24.462  0.00  0.00    -0.297 NA
ATOM      6  C   UNL     1      -0.882  -1.379  24.372  0.00  0.00    +0.070 C 
ATOM      7  C   UNL     1      -1.285  -1.086  25.828  0.00  0.00    +0.028 C 
ATOM      8  C   UNL     1      -2.033  -0.812  23.530  0.00  0.00    +0.096 C 
ATOM      9  C   UNL     1      -2.616  -0.352  25.729  0.00  0.00    +0.085 C 
ENDROOT
BRANCH   6  10
ATOM      1  F   UNL     1       6.162  -0.215  23.034  0.00  0.00    -0.205 F 
ATOM      3  N   UNL     1       1.613  -1.553  24.172  0.00  0.00    -0.341 N 
ATOM      4  N   UNL     1       0.711   0.325  23.398  0.00  0.00    -0.232 NA
ATOM     10  C   UNL     1       0.468  -0.835  23.966  0.00  0.00    +0.113 A 
ATOM     13  C   UNL     1       2.665  -0.808  23.705  0.00  0.00    +0.069 A 
ATOM     14  C   UNL     1       2.076   0.360  23.228  0.00  0.00    +0.089 A 
ATOM     17  C   UNL     1       4.038  -1.046  23.661  0.00  0.00    +0.066 A 
ATOM     18  C   UNL     1       2.890   1.359  22.669  0.00  0.00    +0.032 A 
ATOM     19  C   UNL     1       4.834  -0.041  23.102  0.00  0.00    +0.125 A 
ATOM     21  C   UNL     1       4.272   1.142  22.614  0.00  0.00    +0.040 A 
ATOM     25  H   UNL     1       1.677  -2.471  24.592  0.00  0.00    +0.167 HD
ENDBRANCH   6  10
BRANCH   2  11
ATOM     11  C   UNL     1      -4.283  -0.033  23.998  0.00  0.00    +0.119 C 
BRANCH  11  12
ATOM     12  C   UNL     1      -4.310   1.324  24.651  0.00  0.00    -0.032 A 
ATOM     15  C   UNL     1      -3.191   2.154  24.583  0.00  0.00    +0.023 A 
ATOM     16  C   UNL     1      -5.455   1.750  25.323  0.00  0.00    +0.005 A 
ATOM     20  C   UNL     1      -3.218   3.411  25.188  0.00  0.00    +0.052 A 
ATOM     22  C   UNL     1      -5.483   3.008  25.927  0.00  0.00    +0.002 A 
ATOM     23  C   UNL     1      -4.364   3.838  25.859  0.00  0.00    +0.019 A 
BRANCH  20  24
ATOM      5  N   UNL     1      -1.143   4.955  25.062  0.00  0.00    -0.191 NA
ATOM     24  C   UNL     1      -2.072   4.263  25.119  0.00  0.00    +0.099 C 
ENDBRANCH  20  24
ENDBRANCH  11  12
ENDBRANCH   2  11
TORSDOF 4
ENDMDL
MODEL 4
REMARK VINA RESULT:      -2.7     25.830     26.890
REMARK  Name = 45784230
REMARK  4 active torsions:
REMARK  status: ('A' for Active; 'I' for Inactive)
REMARK    1  A    between atoms: N_2  and  C_11
REMARK    2  A    between atoms: C_6  and  C_10
REMARK    3  A    between atoms: C_11  and  C_12
REMARK    4  A    between atoms: C_20  and  C_24
REMARK                            x       y       z     vdW  Elec       q    Type
REMARK                         _______ _______ _______ _____ _____    ______ ____
ROOT
ATOM      2  N   UNL     1      16.128  -7.827  27.922  0.00  0.00    -0.297 NA
ATOM      6  C   UNL     1      16.016  -6.563  25.950  0.00  0.00    +0.070 C 
ATOM      7  C   UNL     1      17.133  -7.614  25.825  0.00  0.00    +0.028 C 
ATOM      8  C   UNL     1      15.700  -6.508  27.451  0.00  0.00    +0.096 C 
ATOM      9  C   UNL     1      17.405  -8.071  27.252  0.00  0.00    +0.085 C 
ENDROOT
BRANCH   6  10
ATOM      1  F   UNL     1      17.340   0.472  24.716  0.00  0.00    -0.205 F 
ATOM      3  N   UNL     1      16.336  -4.082  26.143  0.00  0.00    -0.341 N 
ATOM      4  N   UNL     1      16.678  -4.946  24.124  0.00  0.00    -0.232 NA
ATOM     10  C   UNL     1      16.350  -5.209  25.369  0.00  0.00    +0.113 A 
ATOM     13  C   UNL     1      16.679  -3.021  25.344  0.00  0.00    +0.069 A 
ATOM     14  C   UNL     1      16.886  -3.586  24.089  0.00  0.00    +0.089 A 
ATOM     17  C   UNL     1      16.820  -1.658  25.603  0.00  0.00    +0.066 A 
ATOM     18  C   UNL     1      17.258  -2.757  23.018  0.00  0.00    +0.032 A 
ATOM     19  C   UNL     1      17.190  -0.847  24.525  0.00  0.00    +0.125 A 
ATOM     21  C   UNL     1      17.405  -1.385  23.254  0.00  0.00    +0.040 A 
ATOM     25  H   UNL     1      16.115  -4.034  27.129  0.00  0.00    +0.167 HD
ENDBRANCH   6  10
BRANCH   2  11
ATOM     11  C   UNL     1      16.241  -7.890  29.371  0.00  0.00    +0.119 C 
BRANCH  11  12
ATOM     12  C   UNL     1      16.218  -6.520  29.996  0.00  0.00    -0.032 A 
ATOM     15  C   UNL     1      15.121  -6.117  30.757  0.00  0.00    +0.023 A 
ATOM     16  C   UNL     1      17.296  -5.654  29.812  0.00  0.00    +0.005 A 
ATOM     20  C   UNL     1      15.103  -4.848  31.336  0.00  0.00    +0.052 A 
ATOM     22  C   UNL     1      17.278  -4.385  30.392  0.00  0.00    +0.002 A 
ATOM     23  C   UNL     1      16.181  -3.982  31.154  0.00  0.00    +0.019 A 
BRANCH  20  24
ATOM      5  N   UNL     1      13.068  -4.099  32.752  0.00  0.00    -0.191 NA
ATOM     24  C   UNL     1      13.980  -4.434  32.118  0.00  0.00    +0.099 C 
ENDBRANCH  20  24
ENDBRANCH  11  12
ENDBRANCH   2  11
TORSDOF 4
ENDMDL
MODEL 5
REMARK VINA RESULT:      -1.8     14.356     16.711
REMARK  Name = 45784230
REMARK  4 active torsions:
REMARK  status: ('A' for Active; 'I' for Inactive)
REMARK    1  A    between atoms: N_2  and  C_11
REMARK    2  A    between atoms: C_6  and  C_10
REMARK    3  A    between atoms: C_11  and  C_12
REMARK    4  A    between atoms: C_20  and  C_24
REMARK                            x       y       z     vdW  Elec       q    Type
REMARK                         _______ _______ _______ _____ _____    ______ ____
ROOT
ATOM      2  N   UNL     1      -5.408   3.614  25.097  0.00  0.00    -0.297 NA
ATOM      6  C   UNL     1      -5.158   1.342  24.574  0.00  0.00    +0.070 C 
ATOM      7  C   UNL     1      -6.043   1.488  25.825  0.00  0.00    +0.028 C 
ATOM      8  C   UNL     1      -4.480   2.709  24.416  0.00  0.00    +0.096 C 
ATOM      9  C   UNL     1      -5.797   2.907  26.317  0.00  0.00    +0.085 C 
ENDROOT
BRANCH   6  10
ATOM      1  F   UNL     1       0.571  -3.020  25.530  0.00  0.00    -0.205 F 
ATOM      3  N   UNL     1      -2.923   0.360  25.156  0.00  0.00    -0.341 N 
ATOM      4  N   UNL     1      -4.366  -1.028  24.192  0.00  0.00    -0.232 NA
ATOM     10  C   UNL     1      -4.172   0.198  24.624  0.00  0.00    +0.113 A 
ATOM     13  C   UNL     1      -2.268  -0.841  25.061  0.00  0.00    +0.069 A 
ATOM     14  C   UNL     1      -3.190  -1.690  24.456  0.00  0.00    +0.089 A 
ATOM     17  C   UNL     1      -0.988  -1.244  25.441  0.00  0.00    +0.066 A 
ATOM     18  C   UNL     1      -2.830  -3.026  24.208  0.00  0.00    +0.032 A 
ATOM     19  C   UNL     1      -0.646  -2.576  25.186  0.00  0.00    +0.125 A 
ATOM     21  C   UNL     1      -1.550  -3.453  24.580  0.00  0.00    +0.040 A 
ATOM     25  H   UNL     1      -2.546   1.212  25.551  0.00  0.00    +0.167 HD
ENDBRANCH   6  10
BRANCH   2  11
ATOM     11  C   UNL     1      -4.816   4.914  25.374  0.00  0.00    +0.119 C 
BRANCH  11  12
ATOM     12  C   UNL     1      -3.316   4.886  25.244  0.00  0.00    -0.032 A 
ATOM     15  C   UNL     1      -2.587   3.832  25.795  0.00  0.00    +0.023 A 
ATOM     16  C   UNL     1      -2.657   5.914  24.572  0.00  0.00    +0.005 A 
ATOM     20  C   UNL     1      -1.197   3.808  25.673  0.00  0.00    +0.052 A 
ATOM     22  C   UNL     1      -1.267   5.889  24.449  0.00  0.00    +0.002 A 
ATOM     23  C   UNL     1      -0.538   4.836  25.000  0.00  0.00    +0.019 A 
BRANCH  20  24
ATOM      5  N   UNL     1       0.159   1.852  26.694  0.00  0.00    -0.191 NA
ATOM     24  C   UNL     1      -0.448   2.728  26.236  0.00  0.00    +0.099 C 
ENDBRANCH  20  24
ENDBRANCH  11  12
ENDBRANCH   2  11
TORSDOF 4
ENDMDL
MODEL 6
REMARK VINA RESULT:      -1.0     14.128     16.107
REMARK  Name = 45784230
REMARK  4 active torsions:
REMARK  status: ('A' for Active; 'I' for Inactive)
REMARK    1  A    between atoms: N_2  and  C_11
REMARK    2  A    between atoms: C_6  and  C_10
REMARK    3  A    between atoms: C_11  and  C_12
REMARK    4  A    between atoms: C_20  and  C_24
REMARK                            x       y       z     vdW  Elec       q    Type
REMARK                         _______ _______ _______ _____ _____    ______ ____
ROOT
ATOM      2  N   UNL     1      -0.143   3.701  25.397  0.00  0.00    -0.297 NA
ATOM      6  C   UNL     1      -0.170   1.357  25.338  0.00  0.00    +0.070 C 
ATOM      7  C   UNL     1       0.633   1.893  24.140  0.00  0.00    +0.028 C 
ATOM      8  C   UNL     1      -0.954   2.571  25.855  0.00  0.00    +0.096 C 
ATOM      9  C   UNL     1       0.242   3.360  24.028  0.00  0.00    +0.085 C 
ENDROOT
BRANCH   6  10
ATOM      1  F   UNL     1      -5.545  -3.158  23.470  0.00  0.00    -0.205 F 
ATOM      3  N   UNL     1      -2.338   0.342  24.587  0.00  0.00    -0.341 N 
ATOM      4  N   UNL     1      -0.737  -1.098  25.137  0.00  0.00    -0.232 NA
ATOM     10  C   UNL     1      -1.056   0.172  25.029  0.00  0.00    +0.113 A 
ATOM     13  C   UNL     1      -2.884  -0.902  24.395  0.00  0.00    +0.069 A 
ATOM     14  C   UNL     1      -1.864  -1.784  24.746  0.00  0.00    +0.089 A 
ATOM     17  C   UNL     1      -4.141  -1.320  23.959  0.00  0.00    +0.066 A 
ATOM     18  C   UNL     1      -2.096  -3.167  24.662  0.00  0.00    +0.032 A 
ATOM     19  C   UNL     1      -4.355  -2.700  23.882  0.00  0.00    +0.125 A 
ATOM     21  C   UNL     1      -3.351  -3.609  24.227  0.00  0.00    +0.040 A 
ATOM     25  H   UNL     1      -2.806   1.225  24.427  0.00  0.00    +0.167 HD
ENDBRANCH   6  10
BRANCH   2  11
ATOM     11  C   UNL     1      -0.858   4.966  25.474  0.00  0.00    +0.119 C 
BRANCH  11  12
ATOM     12  C   UNL     1      -2.294   4.826  25.044  0.00  0.00    -0.032 A 
ATOM     15  C   UNL     1      -3.147   3.959  25.727  0.00  0.00    +0.023 A 
ATOM     16  C   UNL     1      -2.770   5.565  23.962  0.00  0.00    +0.005 A 
ATOM     20  C   UNL     1      -4.477   3.832  25.328  0.00  0.00    +0.052 A 
ATOM     22  C   UNL     1      -4.102   5.438  23.562  0.00  0.00    +0.002 A 
ATOM     23  C   UNL     1      -4.955   4.572  24.246  0.00  0.00    +0.019 A 
BRANCH  20  24
ATOM      5  N   UNL     1      -6.065   2.226  26.595  0.00  0.00    -0.191 NA
ATOM     24  C   UNL     1      -5.353   2.945  26.028  0.00  0.00    +0.099 C 
ENDBRANCH  20  24
ENDBRANCH  11  12
ENDBRANCH   2  11
TORSDOF 4
ENDMDL
MODEL 7
REMARK VINA RESULT:      -0.7     14.316     16.151
REMARK  Name = 45784230
REMARK  4 active torsions:
REMARK  status: ('A' for Active; 'I' for Inactive)
REMARK    1  A    between atoms: N_2  and  C_11
REMARK    2  A    between atoms: C_6  and  C_10
REMARK    3  A    between atoms: C_11  and  C_12
REMARK    4  A    between atoms: C_20  and  C_24
REMARK                            x       y       z     vdW  Elec       q    Type
REMARK                         _______ _______ _______ _____ _____    ______ ____
ROOT
ATOM      2  N   UNL     1      -2.956   4.173  26.190  0.00  0.00    -0.297 NA
ATOM      6  C   UNL     1      -0.823   3.363  25.645  0.00  0.00    +0.070 C 
ATOM      7  C   UNL     1      -0.993   4.786  25.084  0.00  0.00    +0.028 C 
ATOM      8  C   UNL     1      -2.249   2.907  25.983  0.00  0.00    +0.096 C 
ATOM      9  C   UNL     1      -2.493   5.044  25.110  0.00  0.00    +0.085 C 
ENDROOT
BRANCH   6  10
ATOM      1  F   UNL     1       3.983  -0.318  21.632  0.00  0.00    -0.205 F 
ATOM      3  N   UNL     1       1.241   2.526  24.490  0.00  0.00    -0.341 N 
ATOM      4  N   UNL     1      -0.623   1.387  24.082  0.00  0.00    -0.232 NA
ATOM     10  C   UNL     1      -0.099   2.403  24.730  0.00  0.00    +0.113 A 
ATOM     13  C   UNL     1       1.607   1.521  23.631  0.00  0.00    +0.069 A 
ATOM     14  C   UNL     1       0.425   0.825  23.391  0.00  0.00    +0.089 A 
ATOM     17  C   UNL     1       2.830   1.172  23.060  0.00  0.00    +0.066 A 
ATOM     18  C   UNL     1       0.448  -0.288  22.534  0.00  0.00    +0.032 A 
ATOM     19  C   UNL     1       2.835   0.062  22.209  0.00  0.00    +0.125 A 
ATOM     21  C   UNL     1       1.666  -0.657  21.950  0.00  0.00    +0.040 A 
ATOM     25  H   UNL     1       1.857   3.229  24.876  0.00  0.00    +0.167 HD
ENDBRANCH   6  10
BRANCH   2  11
ATOM     11  C   UNL     1      -4.402   4.009  26.190  0.00  0.00    +0.119 C 
BRANCH  11  12
ATOM     12  C   UNL     1      -4.817   2.688  25.596  0.00  0.00    -0.032 A 
ATOM     15  C   UNL     1      -3.879   1.667  25.440  0.00  0.00    +0.023 A 
ATOM     16  C   UNL     1      -6.139   2.488  25.204  0.00  0.00    +0.005 A 
ATOM     20  C   UNL     1      -4.266   0.445  24.891  0.00  0.00    +0.052 A 
ATOM     22  C   UNL     1      -6.527   1.264  24.655  0.00  0.00    +0.002 A 
ATOM     23  C   UNL     1      -5.589   0.243  24.499  0.00  0.00    +0.019 A 
BRANCH  20  24
ATOM      5  N   UNL     1      -2.530  -1.454  24.600  0.00  0.00    -0.191 NA
ATOM     24  C   UNL     1      -3.307  -0.604  24.731  0.00  0.00    +0.099 C 
ENDBRANCH  20  24
ENDBRANCH  11  12
ENDBRANCH   2  11
TORSDOF 4
ENDMDL
