MODEL 1
REMARK VINA RESULT:      14.2      0.000      0.000
REMARK  Name = 11885880
REMARK  6 active torsions:
REMARK  status: ('A' for Active; 'I' for Inactive)
REMARK    1  A    between atoms: O_5  and  C_34
REMARK    2  A    between atoms: O_5  and  C_35
REMARK    3  A    between atoms: N_8  and  C_19
REMARK    4  A    between atoms: C_18  and  C_21
REMARK    5  A    between atoms: C_24  and  C_27
REMARK    6  A    between atoms: C_27  and  C_29
REMARK                            x       y       z     vdW  Elec       q    Type
REMARK                         _______ _______ _______ _____ _____    ______ ____
ROOT
ATOM      2  O   UNL     1      -2.036   1.620  21.897  0.00  0.00    -0.266 OA
ATOM      3  O   UNL     1      -2.405   5.304  25.511  0.00  0.00    -0.270 OA
ATOM      6  N   UNL     1      -4.031   3.687  25.976  0.00  0.00    -0.297 N 
ATOM      7  N   UNL     1      -3.460   1.505  23.745  0.00  0.00    -0.310 N 
ATOM      9  C   UNL     1      -5.470   3.065  24.043  0.00  0.00    +0.027 C 
ATOM     10  C   UNL     1      -4.952   1.390  25.772  0.00  0.00    +0.054 C 
ATOM     11  C   UNL     1      -6.058   1.920  24.860  0.00  0.00    +0.018 C 
ATOM     12  C   UNL     1      -4.971   4.186  24.974  0.00  0.00    +0.113 C 
ATOM     13  C   UNL     1      -4.350   2.513  23.153  0.00  0.00    +0.130 C 
ATOM     14  C   UNL     1      -4.492   2.508  26.728  0.00  0.00    +0.117 C 
ATOM     15  C   UNL     1      -3.770   0.891  24.963  0.00  0.00    +0.027 A 
ATOM     16  C   UNL     1      -3.004  -0.109  25.430  0.00  0.00    +0.024 A 
ATOM     17  C   UNL     1      -2.340   1.121  22.980  0.00  0.00    +0.273 A 
ATOM     18  C   UNL     1      -2.796   4.319  26.135  0.00  0.00    +0.247 C 
ATOM     19  C   UNL     1      -1.497   0.022  23.550  0.00  0.00    +0.099 A 
ATOM     20  C   UNL     1      -1.844  -0.549  24.707  0.00  0.00    +0.030 A 
ENDROOT
BRANCH  18  21
ATOM      1  F   UNL     1       0.770   2.199  29.883  0.00  0.00    -0.205 F 
ATOM     21  C   UNL     1      -1.860   3.763  27.119  0.00  0.00    +0.037 A 
ATOM     22  C   UNL     1      -2.117   3.910  28.480  0.00  0.00    +0.016 A 
ATOM     23  C   UNL     1      -0.720   3.090  26.687  0.00  0.00    +0.016 A 
ATOM     25  C   UNL     1      -1.227   3.381  29.414  0.00  0.00    +0.039 A 
ATOM     26  C   UNL     1       0.169   2.560  27.622  0.00  0.00    +0.039 A 
ATOM     28  C   UNL     1      -0.084   2.706  28.986  0.00  0.00    +0.123 A 
ENDBRANCH  18  21
BRANCH  19   8
ATOM      4  O   UNL     1       1.085   1.254  23.630  0.00  0.00    -0.275 OA
ATOM      8  N   UNL     1      -0.393  -0.366  22.848  0.00  0.00    -0.281 N 
ATOM     24  C   UNL     1       0.837   0.275  22.930  0.00  0.00    +0.222 C 
ATOM     36  H   UNL     1      -0.553  -1.006  22.073  0.00  0.00    +0.155 HD
BRANCH  24  27
ATOM     27  C   UNL     1       1.865  -0.388  22.032  0.00  0.00    +0.131 C 
BRANCH  27  29
ATOM     29  C   UNL     1       3.262  -0.351  22.594  0.00  0.00    -0.038 A 
ATOM     30  C   UNL     1       4.070   0.747  22.337  0.00  0.00    +0.007 A 
ATOM     31  C   UNL     1       3.718  -1.413  23.361  0.00  0.00    +0.007 A 
ATOM     32  C   UNL     1       5.364   0.782  22.857  0.00  0.00    +0.046 A 
ATOM     33  C   UNL     1       5.012  -1.378  23.881  0.00  0.00    +0.046 A 
ATOM     34  C   UNL     1       5.836  -0.280  23.629  0.00  0.00    +0.120 A 
BRANCH  34   5
ATOM      5  O   UNL     1       7.098  -0.246  24.136  0.00  0.00    -0.495 OA
ATOM     35  C   UNL     1       8.175  -0.278  23.202  0.00  0.00    +0.277 C 
ENDBRANCH  34   5
ENDBRANCH  27  29
ENDBRANCH  24  27
ENDBRANCH  19   8
TORSDOF 5
ENDMDL
MODEL 2
REMARK VINA RESULT:      14.4      2.707      4.366
REMARK  Name = 11885880
REMARK  6 active torsions:
REMARK  status: ('A' for Active; 'I' for Inactive)
REMARK    1  A    between atoms: O_5  and  C_34
REMARK    2  A    between atoms: O_5  and  C_35
REMARK    3  A    between atoms: N_8  and  C_19
REMARK    4  A    between atoms: C_18  and  C_21
REMARK    5  A    between atoms: C_24  and  C_27
REMARK    6  A    between atoms: C_27  and  C_29
REMARK                            x       y       z     vdW  Elec       q    Type
REMARK                         _______ _______ _______ _____ _____    ______ ____
ROOT
ATOM      2  O   UNL     1      -1.069   3.435  25.760  0.00  0.00    -0.266 OA
ATOM      3  O   UNL     1      -3.505  -0.835  27.372  0.00  0.00    -0.270 OA
ATOM      6  N   UNL     1      -4.843   0.172  25.738  0.00  0.00    -0.297 N 
ATOM      7  N   UNL     1      -3.047   2.620  24.821  0.00  0.00    -0.310 N 
ATOM      9  C   UNL     1      -5.274   2.598  26.088  0.00  0.00    +0.027 C 
ATOM     10  C   UNL     1      -5.156   1.694  23.800  0.00  0.00    +0.054 C 
ATOM     11  C   UNL     1      -5.901   2.678  24.701  0.00  0.00    +0.018 C 
ATOM     12  C   UNL     1      -5.399   1.170  26.651  0.00  0.00    +0.113 C 
ATOM     13  C   UNL     1      -3.813   3.057  25.997  0.00  0.00    +0.130 C 
ATOM     14  C   UNL     1      -5.325   0.263  24.349  0.00  0.00    +0.117 C 
ATOM     15  C   UNL     1      -3.681   2.038  23.719  0.00  0.00    +0.027 A 
ATOM     16  C   UNL     1      -2.980   1.754  22.608  0.00  0.00    +0.024 A 
ATOM     17  C   UNL     1      -1.668   2.910  24.821  0.00  0.00    +0.273 A 
ATOM     18  C   UNL     1      -3.911  -0.754  26.214  0.00  0.00    +0.247 C 
ATOM     19  C   UNL     1      -0.917   2.550  23.576  0.00  0.00    +0.099 A 
ATOM     20  C   UNL     1      -1.570   2.014  22.539  0.00  0.00    +0.030 A 
ENDROOT
BRANCH  18  21
ATOM      1  F   UNL     1      -1.741  -4.400  22.574  0.00  0.00    -0.205 F 
ATOM     21  C   UNL     1      -3.342  -1.710  25.259  0.00  0.00    +0.037 A 
ATOM     22  C   UNL     1      -4.184  -2.556  24.540  0.00  0.00    +0.016 A 
ATOM     23  C   UNL     1      -1.963  -1.768  25.075  0.00  0.00    +0.016 A 
ATOM     25  C   UNL     1      -3.642  -3.465  23.632  0.00  0.00    +0.039 A 
ATOM     26  C   UNL     1      -1.422  -2.678  24.167  0.00  0.00    +0.039 A 
ATOM     28  C   UNL     1      -2.261  -3.527  23.445  0.00  0.00    +0.123 A 
ENDBRANCH  18  21
BRANCH  19   8
ATOM      4  O   UNL     1       1.165   0.593  23.417  0.00  0.00    -0.275 OA
ATOM      8  N   UNL     1       0.424   2.797  23.544  0.00  0.00    -0.281 N 
ATOM     24  C   UNL     1       1.389   1.800  23.467  0.00  0.00    +0.222 C 
ATOM     36  H   UNL     1       0.717   3.732  23.816  0.00  0.00    +0.155 HD
BRANCH  24  27
ATOM     27  C   UNL     1       2.787   2.388  23.448  0.00  0.00    +0.131 C 
BRANCH  27  29
ATOM     29  C   UNL     1       3.868   1.355  23.257  0.00  0.00    -0.038 A 
ATOM     30  C   UNL     1       4.761   1.104  24.289  0.00  0.00    +0.007 A 
ATOM     31  C   UNL     1       3.952   0.671  22.053  0.00  0.00    +0.007 A 
ATOM     32  C   UNL     1       5.761   0.149  24.112  0.00  0.00    +0.046 A 
ATOM     33  C   UNL     1       4.953  -0.286  21.877  0.00  0.00    +0.046 A 
ATOM     34  C   UNL     1       5.857  -0.546  22.906  0.00  0.00    +0.120 A 
BRANCH  34   5
ATOM      5  O   UNL     1       6.833  -1.479  22.734  0.00  0.00    -0.495 OA
ATOM     35  C   UNL     1       8.177  -1.007  22.654  0.00  0.00    +0.277 C 
ENDBRANCH  34   5
ENDBRANCH  27  29
ENDBRANCH  24  27
ENDBRANCH  19   8
TORSDOF 5
ENDMDL
MODEL 3
REMARK VINA RESULT:      14.4      2.196      2.708
REMARK  Name = 11885880
REMARK  6 active torsions:
REMARK  status: ('A' for Active; 'I' for Inactive)
REMARK    1  A    between atoms: O_5  and  C_34
REMARK    2  A    between atoms: O_5  and  C_35
REMARK    3  A    between atoms: N_8  and  C_19
REMARK    4  A    between atoms: C_18  and  C_21
REMARK    5  A    between atoms: C_24  and  C_27
REMARK    6  A    between atoms: C_27  and  C_29
REMARK                            x       y       z     vdW  Elec       q    Type
REMARK                         _______ _______ _______ _____ _____    ______ ____
ROOT
ATOM      2  O   UNL     1      -2.635  -1.259  23.084  0.00  0.00    -0.266 OA
ATOM      3  O   UNL     1      -4.420   3.543  22.367  0.00  0.00    -0.270 OA
ATOM      6  N   UNL     1      -4.953   2.907  24.554  0.00  0.00    -0.297 N 
ATOM      7  N   UNL     1      -3.603   0.045  24.764  0.00  0.00    -0.310 N 
ATOM      9  C   UNL     1      -6.080   0.698  24.755  0.00  0.00    +0.027 C 
ATOM     10  C   UNL     1      -4.610   1.491  26.565  0.00  0.00    +0.054 C 
ATOM     11  C   UNL     1      -5.921   0.764  26.270  0.00  0.00    +0.018 C 
ATOM     12  C   UNL     1      -6.117   2.117  24.158  0.00  0.00    +0.113 C 
ATOM     13  C   UNL     1      -4.936  -0.143  24.175  0.00  0.00    +0.130 C 
ATOM     14  C   UNL     1      -4.676   2.924  26.000  0.00  0.00    +0.117 C 
ATOM     15  C   UNL     1      -3.430   0.756  25.956  0.00  0.00    +0.027 A 
ATOM     16  C   UNL     1      -2.221   0.818  26.538  0.00  0.00    +0.024 A 
ATOM     17  C   UNL     1      -2.530  -0.609  24.124  0.00  0.00    +0.273 A 
ATOM     18  C   UNL     1      -4.194   3.553  23.575  0.00  0.00    +0.247 C 
ATOM     19  C   UNL     1      -1.194  -0.491  24.790  0.00  0.00    +0.099 A 
ATOM     20  C   UNL     1      -1.081   0.182  25.940  0.00  0.00    +0.030 A 
ENDROOT
BRANCH  18  21
ATOM      1  F   UNL     1       0.329   6.399  25.219  0.00  0.00    -0.205 F 
ATOM     21  C   UNL     1      -3.008   4.300  24.006  0.00  0.00    +0.037 A 
ATOM     22  C   UNL     1      -1.801   3.632  24.201  0.00  0.00    +0.016 A 
ATOM     23  C   UNL     1      -3.093   5.673  24.220  0.00  0.00    +0.016 A 
ATOM     25  C   UNL     1      -0.673   4.342  24.611  0.00  0.00    +0.039 A 
ATOM     26  C   UNL     1      -1.964   6.384  24.629  0.00  0.00    +0.039 A 
ATOM     28  C   UNL     1      -0.754   5.718  24.825  0.00  0.00    +0.123 A 
ENDBRANCH  18  21
BRANCH  19   8
ATOM      4  O   UNL     1       0.682   0.747  23.018  0.00  0.00    -0.275 OA
ATOM      8  N   UNL     1      -0.126  -1.095  24.192  0.00  0.00    -0.281 N 
ATOM     24  C   UNL     1       0.751  -0.438  23.338  0.00  0.00    +0.222 C 
ATOM     36  H   UNL     1      -0.119  -2.112  24.201  0.00  0.00    +0.155 HD
BRANCH  24  27
ATOM     27  C   UNL     1       1.833  -1.374  22.834  0.00  0.00    +0.131 C 
BRANCH  27  29
ATOM     29  C   UNL     1       3.229  -0.871  23.096  0.00  0.00    -0.038 A 
ATOM     30  C   UNL     1       3.609   0.371  22.607  0.00  0.00    +0.007 A 
ATOM     31  C   UNL     1       4.112  -1.656  23.823  0.00  0.00    +0.007 A 
ATOM     32  C   UNL     1       4.901   0.836  22.849  0.00  0.00    +0.046 A 
ATOM     33  C   UNL     1       5.405  -1.190  24.065  0.00  0.00    +0.046 A 
ATOM     34  C   UNL     1       5.799   0.057  23.578  0.00  0.00    +0.120 A 
BRANCH  34   5
ATOM      5  O   UNL     1       7.060   0.511  23.815  0.00  0.00    -0.495 OA
ATOM     35  C   UNL     1       8.131  -0.181  23.176  0.00  0.00    +0.277 C 
ENDBRANCH  34   5
ENDBRANCH  27  29
ENDBRANCH  24  27
ENDBRANCH  19   8
TORSDOF 5
ENDMDL
MODEL 4
REMARK VINA RESULT:      15.0      2.465      3.623
REMARK  Name = 11885880
REMARK  6 active torsions:
REMARK  status: ('A' for Active; 'I' for Inactive)
REMARK    1  A    between atoms: O_5  and  C_34
REMARK    2  A    between atoms: O_5  and  C_35
REMARK    3  A    between atoms: N_8  and  C_19
REMARK    4  A    between atoms: C_18  and  C_21
REMARK    5  A    between atoms: C_24  and  C_27
REMARK    6  A    between atoms: C_27  and  C_29
REMARK                            x       y       z     vdW  Elec       q    Type
REMARK                         _______ _______ _______ _____ _____    ______ ____
ROOT
ATOM      2  O   UNL     1      -0.265  -0.890  22.325  0.00  0.00    -0.266 OA
ATOM      3  O   UNL     1      -4.983   1.139  22.944  0.00  0.00    -0.270 OA
ATOM      6  N   UNL     1      -4.540  -0.210  24.803  0.00  0.00    -0.297 N 
ATOM      7  N   UNL     1      -1.566  -1.159  24.246  0.00  0.00    -0.310 N 
ATOM      9  C   UNL     1      -3.746  -2.506  24.264  0.00  0.00    +0.027 C 
ATOM     10  C   UNL     1      -2.974  -1.395  26.322  0.00  0.00    +0.054 C 
ATOM     11  C   UNL     1      -3.427  -2.732  25.738  0.00  0.00    +0.018 C 
ATOM     12  C   UNL     1      -4.864  -1.458  24.113  0.00  0.00    +0.113 C 
ATOM     13  C   UNL     1      -2.460  -2.087  23.540  0.00  0.00    +0.130 C 
ATOM     14  C   UNL     1      -4.116  -0.367  26.204  0.00  0.00    +0.117 C 
ATOM     15  C   UNL     1      -1.743  -0.875  25.604  0.00  0.00    +0.027 A 
ATOM     16  C   UNL     1      -0.847  -0.116  26.258  0.00  0.00    +0.024 A 
ATOM     17  C   UNL     1      -0.471  -0.655  23.515  0.00  0.00    +0.273 A 
ATOM     18  C   UNL     1      -4.630   1.001  24.113  0.00  0.00    +0.247 C 
ATOM     19  C   UNL     1       0.487   0.210  24.274  0.00  0.00    +0.099 A 
ATOM     20  C   UNL     1       0.288   0.437  25.576  0.00  0.00    +0.030 A 
ENDROOT
BRANCH  18  21
ATOM      1  F   UNL     1      -3.200   5.676  26.826  0.00  0.00    -0.205 F 
ATOM     21  C   UNL     1      -4.255   2.227  24.825  0.00  0.00    +0.037 A 
ATOM     22  C   UNL     1      -5.241   3.020  25.407  0.00  0.00    +0.016 A 
ATOM     23  C   UNL     1      -2.914   2.593  24.916  0.00  0.00    +0.016 A 
ATOM     25  C   UNL     1      -4.884   4.186  26.084  0.00  0.00    +0.039 A 
ATOM     26  C   UNL     1      -2.557   3.759  25.594  0.00  0.00    +0.039 A 
ATOM     28  C   UNL     1      -3.542   4.556  26.177  0.00  0.00    +0.123 A 
ENDBRANCH  18  21
BRANCH  19   8
ATOM      4  O   UNL     1       2.753  -1.239  23.294  0.00  0.00    -0.275 OA
ATOM      8  N   UNL     1       1.550   0.732  23.598  0.00  0.00    -0.281 N 
ATOM     24  C   UNL     1       2.624  -0.026  23.146  0.00  0.00    +0.222 C 
ATOM     36  H   UNL     1       1.655   1.743  23.633  0.00  0.00    +0.155 HD
BRANCH  24  27
ATOM     27  C   UNL     1       3.646   0.838  22.431  0.00  0.00    +0.131 C 
BRANCH  27  29
ATOM     29  C   UNL     1       5.068   0.535  22.828  0.00  0.00    -0.038 A 
ATOM     30  C   UNL     1       5.635   1.209  23.900  0.00  0.00    +0.007 A 
ATOM     31  C   UNL     1       5.787  -0.414  22.115  0.00  0.00    +0.007 A 
ATOM     32  C   UNL     1       6.951   0.928  24.266  0.00  0.00    +0.046 A 
ATOM     33  C   UNL     1       7.103  -0.695  22.483  0.00  0.00    +0.046 A 
ATOM     34  C   UNL     1       7.686  -0.024  23.558  0.00  0.00    +0.120 A 
BRANCH  34   5
ATOM      5  O   UNL     1       8.970  -0.298  23.916  0.00  0.00    -0.495 OA
ATOM     35  C   UNL     1       9.994   0.062  22.991  0.00  0.00    +0.277 C 
ENDBRANCH  34   5
ENDBRANCH  27  29
ENDBRANCH  24  27
ENDBRANCH  19   8
TORSDOF 5
ENDMDL
MODEL 5
REMARK VINA RESULT:      16.1      2.640      4.022
REMARK  Name = 11885880
REMARK  6 active torsions:
REMARK  status: ('A' for Active; 'I' for Inactive)
REMARK    1  A    between atoms: O_5  and  C_34
REMARK    2  A    between atoms: O_5  and  C_35
REMARK    3  A    between atoms: N_8  and  C_19
REMARK    4  A    between atoms: C_18  and  C_21
REMARK    5  A    between atoms: C_24  and  C_27
REMARK    6  A    between atoms: C_27  and  C_29
REMARK                            x       y       z     vdW  Elec       q    Type
REMARK                         _______ _______ _______ _____ _____    ______ ____
ROOT
ATOM      2  O   UNL     1       0.707   2.605  25.667  0.00  0.00    -0.266 OA
ATOM      3  O   UNL     1      -4.114   3.075  27.484  0.00  0.00    -0.270 OA
ATOM      6  N   UNL     1      -3.996   4.258  25.469  0.00  0.00    -0.297 N 
ATOM      7  N   UNL     1      -1.033   3.654  24.513  0.00  0.00    -0.310 N 
ATOM      9  C   UNL     1      -2.090   5.850  25.302  0.00  0.00    +0.027 C 
ATOM     10  C   UNL     1      -2.939   4.740  23.274  0.00  0.00    +0.054 C 
ATOM     11  C   UNL     1      -2.408   6.062  23.826  0.00  0.00    +0.018 C 
ATOM     12  C   UNL     1      -3.358   5.430  26.068  0.00  0.00    +0.113 C 
ATOM     13  C   UNL     1      -0.972   4.808  25.422  0.00  0.00    +0.130 C 
ATOM     14  C   UNL     1      -4.232   4.353  24.019  0.00  0.00    +0.117 C 
ATOM     15  C   UNL     1      -1.912   3.634  23.426  0.00  0.00    +0.027 A 
ATOM     16  C   UNL     1      -1.870   2.623  22.541  0.00  0.00    +0.024 A 
ATOM     17  C   UNL     1      -0.097   2.624  24.734  0.00  0.00    +0.273 A 
ATOM     18  C   UNL     1      -4.309   3.159  26.273  0.00  0.00    +0.247 C 
ATOM     19  C   UNL     1      -0.103   1.502  23.742  0.00  0.00    +0.099 A 
ATOM     20  C   UNL     1      -0.948   1.536  22.707  0.00  0.00    +0.030 A 
ENDROOT
BRANCH  18  21
ATOM      1  F   UNL     1      -6.586  -1.318  23.819  0.00  0.00    -0.205 F 
ATOM     21  C   UNL     1      -4.906   1.985  25.629  0.00  0.00    +0.037 A 
ATOM     22  C   UNL     1      -6.257   1.993  25.289  0.00  0.00    +0.016 A 
ATOM     23  C   UNL     1      -4.120   0.867  25.360  0.00  0.00    +0.016 A 
ATOM     25  C   UNL     1      -6.824   0.876  24.677  0.00  0.00    +0.039 A 
ATOM     26  C   UNL     1      -4.688  -0.250  24.747  0.00  0.00    +0.039 A 
ATOM     28  C   UNL     1      -6.041  -0.246  24.406  0.00  0.00    +0.123 A 
ENDBRANCH  18  21
BRANCH  19   8
ATOM      4  O   UNL     1       0.902  -0.265  21.727  0.00  0.00    -0.275 OA
ATOM      8  N   UNL     1       0.776   0.476  23.932  0.00  0.00    -0.281 N 
ATOM     24  C   UNL     1       1.227  -0.350  22.909  0.00  0.00    +0.222 C 
ATOM     36  H   UNL     1       0.918   0.175  24.893  0.00  0.00    +0.155 HD
BRANCH  24  27
ATOM     27  C   UNL     1       2.194  -1.396  23.433  0.00  0.00    +0.131 C 
BRANCH  27  29
ATOM     29  C   UNL     1       3.621  -0.917  23.487  0.00  0.00    -0.038 A 
ATOM     30  C   UNL     1       3.924   0.372  23.070  0.00  0.00    +0.007 A 
ATOM     31  C   UNL     1       4.611  -1.770  23.952  0.00  0.00    +0.007 A 
ATOM     32  C   UNL     1       5.245   0.815  23.120  0.00  0.00    +0.046 A 
ATOM     33  C   UNL     1       5.933  -1.326  24.002  0.00  0.00    +0.046 A 
ATOM     34  C   UNL     1       6.250  -0.033  23.585  0.00  0.00    +0.120 A 
BRANCH  34   5
ATOM      5  O   UNL     1       7.539   0.400  23.634  0.00  0.00    -0.495 OA
ATOM     35  C   UNL     1       8.522  -0.410  22.992  0.00  0.00    +0.277 C 
ENDBRANCH  34   5
ENDBRANCH  27  29
ENDBRANCH  24  27
ENDBRANCH  19   8
TORSDOF 5
ENDMDL
MODEL 6
REMARK VINA RESULT:      17.0      2.805      4.448
REMARK  Name = 11885880
REMARK  6 active torsions:
REMARK  status: ('A' for Active; 'I' for Inactive)
REMARK    1  A    between atoms: O_5  and  C_34
REMARK    2  A    between atoms: O_5  and  C_35
REMARK    3  A    between atoms: N_8  and  C_19
REMARK    4  A    between atoms: C_18  and  C_21
REMARK    5  A    between atoms: C_24  and  C_27
REMARK    6  A    between atoms: C_27  and  C_29
REMARK                            x       y       z     vdW  Elec       q    Type
REMARK                         _______ _______ _______ _____ _____    ______ ____
ROOT
ATOM      2  O   UNL     1       0.716   1.850  25.739  0.00  0.00    -0.266 OA
ATOM      3  O   UNL     1      -4.241   0.993  26.945  0.00  0.00    -0.270 OA
ATOM      6  N   UNL     1      -4.197   2.231  24.961  0.00  0.00    -0.297 N 
ATOM      7  N   UNL     1      -1.087   2.448  24.379  0.00  0.00    -0.310 N 
ATOM      9  C   UNL     1      -2.769   4.268  25.031  0.00  0.00    +0.027 C 
ATOM     10  C   UNL     1      -3.048   3.042  22.914  0.00  0.00    +0.054 C 
ATOM     11  C   UNL     1      -2.952   4.438  23.527  0.00  0.00    +0.018 C 
ATOM     12  C   UNL     1      -3.965   3.508  25.634  0.00  0.00    +0.113 C 
ATOM     13  C   UNL     1      -1.439   3.548  25.288  0.00  0.00    +0.130 C 
ATOM     14  C   UNL     1      -4.274   2.308  23.492  0.00  0.00    +0.117 C 
ATOM     15  C   UNL     1      -1.793   2.236  23.191  0.00  0.00    +0.027 A 
ATOM     16  C   UNL     1      -1.383   1.300  22.318  0.00  0.00    +0.024 A 
ATOM     17  C   UNL     1       0.053   1.690  24.714  0.00  0.00    +0.273 A 
ATOM     18  C   UNL     1      -4.305   1.063  25.719  0.00  0.00    +0.247 C 
ATOM     19  C   UNL     1       0.459   0.638  23.729  0.00  0.00    +0.099 A 
ATOM     20  C   UNL     1      -0.235   0.485  22.596  0.00  0.00    +0.030 A 
ENDROOT
BRANCH  18  21
ATOM      1  F   UNL     1      -5.020  -3.770  23.001  0.00  0.00    -0.205 F 
ATOM     21  C   UNL     1      -4.492  -0.205  25.006  0.00  0.00    +0.037 A 
ATOM     22  C   UNL     1      -3.516  -1.195  25.085  0.00  0.00    +0.016 A 
ATOM     23  C   UNL     1      -5.646  -0.412  24.253  0.00  0.00    +0.016 A 
ATOM     25  C   UNL     1      -3.695  -2.401  24.406  0.00  0.00    +0.039 A 
ATOM     26  C   UNL     1      -5.824  -1.618  23.576  0.00  0.00    +0.039 A 
ATOM     28  C   UNL     1      -4.849  -2.613  23.652  0.00  0.00    +0.123 A 
ENDBRANCH  18  21
BRANCH  19   8
ATOM      4  O   UNL     1       2.704   0.145  22.024  0.00  0.00    -0.275 OA
ATOM      8  N   UNL     1       1.547  -0.131  24.026  0.00  0.00    -0.281 N 
ATOM     24  C   UNL     1       2.608  -0.333  23.152  0.00  0.00    +0.222 C 
ATOM     36  H   UNL     1       1.455  -0.752  24.826  0.00  0.00    +0.155 HD
BRANCH  24  27
ATOM     27  C   UNL     1       3.664  -1.233  23.767  0.00  0.00    +0.131 C 
BRANCH  27  29
ATOM     29  C   UNL     1       5.060  -0.677  23.659  0.00  0.00    -0.038 A 
ATOM     30  C   UNL     1       6.043  -1.423  23.025  0.00  0.00    +0.007 A 
ATOM     31  C   UNL     1       5.341   0.571  24.195  0.00  0.00    +0.007 A 
ATOM     32  C   UNL     1       7.336  -0.909  22.926  0.00  0.00    +0.046 A 
ATOM     33  C   UNL     1       6.634   1.086  24.095  0.00  0.00    +0.046 A 
ATOM     34  C   UNL     1       7.632   0.345  23.461  0.00  0.00    +0.120 A 
BRANCH  34   5
ATOM      5  O   UNL     1       8.894   0.846  23.363  0.00  0.00    -0.495 OA
ATOM     35  C   UNL     1       9.914  -0.044  22.916  0.00  0.00    +0.277 C 
ENDBRANCH  34   5
ENDBRANCH  27  29
ENDBRANCH  24  27
ENDBRANCH  19   8
TORSDOF 5
ENDMDL
