MODEL 1
REMARK VINA RESULT:      -4.9      0.000      0.000
REMARK  Name = 75367096
REMARK  7 active torsions:
REMARK  status: ('A' for Active; 'I' for Inactive)
REMARK    1  A    between atoms: S_1  and  N_7
REMARK    2  A    between atoms: S_1  and  C_19
REMARK    3  A    between atoms: O_3  and  C_10
REMARK    4  A    between atoms: N_6  and  C_8
REMARK    5  A    between atoms: N_6  and  C_9
REMARK    6  A    between atoms: N_7  and  C_18
REMARK    7  A    between atoms: C_11  and  C_18
REMARK                            x       y       z     vdW  Elec       q    Type
REMARK                         _______ _______ _______ _____ _____    ______ ____
ROOT
ATOM      2  O   UNL     1      -2.571   3.184  23.456  0.00  0.00    -0.371 OA
ATOM      8  C   UNL     1      -4.579   2.181  24.235  0.00  0.00    +0.111 C 
ATOM     10  C   UNL     1      -4.010   3.065  25.330  0.00  0.00    +0.164 C 
ATOM     11  C   UNL     1      -3.106   3.986  24.523  0.00  0.00    +0.164 C 
ATOM     14  C   UNL     1      -3.364   1.990  23.341  0.00  0.00    +0.181 C 
ENDROOT
BRANCH  10   3
ATOM      3  O   UNL     1      -5.010   3.784  26.025  0.00  0.00    -0.388 OA
ATOM     26  H   UNL     1      -4.636   4.638  26.302  0.00  0.00    +0.210 HD
ENDBRANCH  10   3
BRANCH   8   6
ATOM      6  N   UNL     1      -5.127   0.926  24.723  0.00  0.00    -0.306 NA
ATOM     25  H   UNL     1      -5.939   0.658  24.168  0.00  0.00    +0.123 HD
BRANCH   6   9
ATOM      9  C   UNL     1      -4.120  -0.132  24.673  0.00  0.00    +0.054 C 
ATOM     12  C   UNL     1      -3.777  -0.592  26.094  0.00  0.00    +0.019 C 
ATOM     13  C   UNL     1      -4.633  -1.299  23.822  0.00  0.00    +0.019 C 
ATOM     15  C   UNL     1      -2.783  -1.752  26.079  0.00  0.00    +0.002 C 
ATOM     16  C   UNL     1      -3.637  -2.458  23.809  0.00  0.00    +0.002 C 
ATOM     17  C   UNL     1      -3.284  -2.912  25.223  0.00  0.00    +0.000 C 
ENDBRANCH   6   9
ENDBRANCH   8   6
BRANCH  11  18
ATOM     18  C   UNL     1      -1.970   4.578  25.338  0.00  0.00    +0.140 C 
BRANCH  18   7
ATOM      7  N   UNL     1      -0.714   3.866  25.028  0.00  0.00    -0.187 NA
ATOM     27  H   UNL     1      -0.402   3.919  24.051  0.00  0.00    +0.148 HD
BRANCH   7   1
ATOM      1  S   UNL     1      -0.247   2.519  25.957  0.00  0.00    +0.058 S 
ATOM      4  O   UNL     1      -1.404   1.989  26.651  0.00  0.00    -0.153 OA
ATOM      5  O   UNL     1       0.958   2.850  26.693  0.00  0.00    -0.153 OA
BRANCH   1  19
ATOM     19  C   UNL     1       0.216   1.360  24.705  0.00  0.00    +0.105 A 
ATOM     20  C   UNL     1      -0.529   0.194  24.524  0.00  0.00    +0.028 A 
ATOM     21  C   UNL     1       1.327   1.609  23.900  0.00  0.00    +0.028 A 
ATOM     22  C   UNL     1      -0.163  -0.721  23.538  0.00  0.00    +0.002 A 
ATOM     23  C   UNL     1       1.694   0.693  22.915  0.00  0.00    +0.002 A 
ATOM     24  C   UNL     1       0.949  -0.472  22.733  0.00  0.00    +0.000 A 
ENDBRANCH   1  19
ENDBRANCH   7   1
ENDBRANCH  18   7
ENDBRANCH  11  18
TORSDOF 7
ENDMDL
MODEL 2
REMARK VINA RESULT:      -4.4      2.079      4.468
REMARK  Name = 75367096
REMARK  7 active torsions:
REMARK  status: ('A' for Active; 'I' for Inactive)
REMARK    1  A    between atoms: S_1  and  N_7
REMARK    2  A    between atoms: S_1  and  C_19
REMARK    3  A    between atoms: O_3  and  C_10
REMARK    4  A    between atoms: N_6  and  C_8
REMARK    5  A    between atoms: N_6  and  C_9
REMARK    6  A    between atoms: N_7  and  C_18
REMARK    7  A    between atoms: C_11  and  C_18
REMARK                            x       y       z     vdW  Elec       q    Type
REMARK                         _______ _______ _______ _____ _____    ______ ____
ROOT
ATOM      2  O   UNL     1       0.268   3.647  23.558  0.00  0.00    -0.371 OA
ATOM      8  C   UNL     1      -1.064   4.295  25.416  0.00  0.00    +0.111 C 
ATOM     10  C   UNL     1      -0.726   2.821  25.540  0.00  0.00    +0.164 C 
ATOM     11  C   UNL     1       0.497   2.724  24.637  0.00  0.00    +0.164 C 
ATOM     14  C   UNL     1      -0.790   4.543  23.941  0.00  0.00    +0.181 C 
ENDROOT
BRANCH  10   3
ATOM      3  O   UNL     1      -0.430   2.439  26.869  0.00  0.00    -0.388 OA
ATOM     26  H   UNL     1      -0.225   3.241  27.380  0.00  0.00    +0.210 HD
ENDBRANCH  10   3
BRANCH   8   6
ATOM      6  N   UNL     1      -2.429   4.614  25.799  0.00  0.00    -0.306 NA
ATOM     25  H   UNL     1      -2.756   5.432  25.286  0.00  0.00    +0.123 HD
BRANCH   6   9
ATOM      9  C   UNL     1      -3.316   3.481  25.544  0.00  0.00    +0.054 C 
ATOM     12  C   UNL     1      -4.541   3.560  26.463  0.00  0.00    +0.019 C 
ATOM     13  C   UNL     1      -3.734   3.467  24.069  0.00  0.00    +0.019 C 
ATOM     15  C   UNL     1      -5.529   2.433  26.172  0.00  0.00    +0.002 C 
ATOM     16  C   UNL     1      -4.724   2.339  23.781  0.00  0.00    +0.002 C 
ATOM     17  C   UNL     1      -5.938   2.409  24.702  0.00  0.00    +0.000 C 
ENDBRANCH   6   9
ENDBRANCH   8   6
BRANCH  11  18
ATOM     18  C   UNL     1       0.721   1.329  24.078  0.00  0.00    +0.140 C 
BRANCH  18   7
ATOM      7  N   UNL     1      -0.543   0.569  24.121  0.00  0.00    -0.187 NA
ATOM     27  H   UNL     1      -1.392   1.102  23.895  0.00  0.00    +0.148 HD
BRANCH   7   1
ATOM      1  S   UNL     1      -0.686  -0.791  25.134  0.00  0.00    +0.058 S 
ATOM      4  O   UNL     1      -0.815  -0.353  26.510  0.00  0.00    -0.153 OA
ATOM      5  O   UNL     1       0.330  -1.759  24.768  0.00  0.00    -0.153 OA
BRANCH   1  19
ATOM     19  C   UNL     1      -2.242  -1.458  24.626  0.00  0.00    +0.105 A 
ATOM     20  C   UNL     1      -2.401  -2.838  24.498  0.00  0.00    +0.028 A 
ATOM     21  C   UNL     1      -3.310  -0.604  24.349  0.00  0.00    +0.028 A 
ATOM     22  C   UNL     1      -3.628  -3.364  24.094  0.00  0.00    +0.002 A 
ATOM     23  C   UNL     1      -4.537  -1.130  23.945  0.00  0.00    +0.002 A 
ATOM     24  C   UNL     1      -4.696  -2.511  23.818  0.00  0.00    +0.000 A 
ENDBRANCH   1  19
ENDBRANCH   7   1
ENDBRANCH  18   7
ENDBRANCH  11  18
TORSDOF 7
ENDMDL
MODEL 3
REMARK VINA RESULT:      -4.3      2.188      5.747
REMARK  Name = 75367096
REMARK  7 active torsions:
REMARK  status: ('A' for Active; 'I' for Inactive)
REMARK    1  A    between atoms: S_1  and  N_7
REMARK    2  A    between atoms: S_1  and  C_19
REMARK    3  A    between atoms: O_3  and  C_10
REMARK    4  A    between atoms: N_6  and  C_8
REMARK    5  A    between atoms: N_6  and  C_9
REMARK    6  A    between atoms: N_7  and  C_18
REMARK    7  A    between atoms: C_11  and  C_18
REMARK                            x       y       z     vdW  Elec       q    Type
REMARK                         _______ _______ _______ _____ _____    ______ ____
ROOT
ATOM      2  O   UNL     1      -0.920   1.057  25.708  0.00  0.00    -0.371 OA
ATOM      8  C   UNL     1       0.686   1.043  23.957  0.00  0.00    +0.111 C 
ATOM     10  C   UNL     1      -0.160   2.298  23.842  0.00  0.00    +0.164 C 
ATOM     11  C   UNL     1      -0.715   2.407  25.256  0.00  0.00    +0.164 C 
ATOM     14  C   UNL     1      -0.189   0.171  24.843  0.00  0.00    +0.181 C 
ENDROOT
BRANCH  10   3
ATOM      3  O   UNL     1       0.598   3.437  23.485  0.00  0.00    -0.388 OA
ATOM     26  H   UNL     1       1.479   3.141  23.199  0.00  0.00    +0.210 HD
ENDBRANCH  10   3
BRANCH   8   6
ATOM      6  N   UNL     1       0.989   0.425  22.676  0.00  0.00    -0.306 NA
ATOM     25  H   UNL     1       0.770   1.068  21.916  0.00  0.00    +0.123 HD
BRANCH   6   9
ATOM      9  C   UNL     1       2.397   0.038  22.610  0.00  0.00    +0.054 C 
ATOM     12  C   UNL     1       3.286   1.259  22.870  0.00  0.00    +0.019 C 
ATOM     13  C   UNL     1       2.680  -1.077  23.623  0.00  0.00    +0.019 C 
ATOM     15  C   UNL     1       4.765   0.879  22.884  0.00  0.00    +0.002 C 
ATOM     16  C   UNL     1       4.160  -1.455  23.636  0.00  0.00    +0.002 C 
ATOM     17  C   UNL     1       5.049  -0.240  23.884  0.00  0.00    +0.000 C 
ENDBRANCH   6   9
ENDBRANCH   8   6
BRANCH  11  18
ATOM     18  C   UNL     1      -2.023   3.176  25.330  0.00  0.00    +0.140 C 
BRANCH  18   7
ATOM      7  N   UNL     1      -3.123   2.251  25.666  0.00  0.00    -0.187 NA
ATOM     27  H   UNL     1      -2.983   1.678  26.508  0.00  0.00    +0.148 HD
BRANCH   7   1
ATOM      1  S   UNL     1      -4.138   1.651  24.438  0.00  0.00    +0.058 S 
ATOM      4  O   UNL     1      -3.606   2.037  23.145  0.00  0.00    -0.153 OA
ATOM      5  O   UNL     1      -5.515   1.948  24.779  0.00  0.00    -0.153 OA
BRANCH   1  19
ATOM     19  C   UNL     1      -3.926  -0.095  24.615  0.00  0.00    +0.105 A 
ATOM     20  C   UNL     1      -3.471  -0.623  25.824  0.00  0.00    +0.028 A 
ATOM     21  C   UNL     1      -4.211  -0.944  23.546  0.00  0.00    +0.028 A 
ATOM     22  C   UNL     1      -3.302  -2.001  25.963  0.00  0.00    +0.002 A 
ATOM     23  C   UNL     1      -4.041  -2.321  23.684  0.00  0.00    +0.002 A 
ATOM     24  C   UNL     1      -3.587  -2.850  24.893  0.00  0.00    +0.000 A 
ENDBRANCH   1  19
ENDBRANCH   7   1
ENDBRANCH  18   7
ENDBRANCH  11  18
TORSDOF 7
ENDMDL
MODEL 4
REMARK VINA RESULT:      -3.6      1.975      5.038
REMARK  Name = 75367096
REMARK  7 active torsions:
REMARK  status: ('A' for Active; 'I' for Inactive)
REMARK    1  A    between atoms: S_1  and  N_7
REMARK    2  A    between atoms: S_1  and  C_19
REMARK    3  A    between atoms: O_3  and  C_10
REMARK    4  A    between atoms: N_6  and  C_8
REMARK    5  A    between atoms: N_6  and  C_9
REMARK    6  A    between atoms: N_7  and  C_18
REMARK    7  A    between atoms: C_11  and  C_18
REMARK                            x       y       z     vdW  Elec       q    Type
REMARK                         _______ _______ _______ _____ _____    ______ ____
ROOT
ATOM      2  O   UNL     1      -2.012   4.589  25.315  0.00  0.00    -0.371 OA
ATOM      8  C   UNL     1      -0.638   2.921  24.327  0.00  0.00    +0.111 C 
ATOM     10  C   UNL     1      -2.093   2.583  24.063  0.00  0.00    +0.164 C 
ATOM     11  C   UNL     1      -2.751   3.941  24.265  0.00  0.00    +0.164 C 
ATOM     14  C   UNL     1      -0.761   3.899  25.484  0.00  0.00    +0.181 C 
ENDROOT
BRANCH  10   3
ATOM      3  O   UNL     1      -2.310   2.082  22.758  0.00  0.00    -0.388 OA
ATOM     26  H   UNL     1      -1.908   2.699  22.123  0.00  0.00    +0.210 HD
ENDBRANCH  10   3
BRANCH   8   6
ATOM      6  N   UNL     1       0.181   1.764  24.648  0.00  0.00    -0.306 NA
ATOM     25  H   UNL     1      -0.407   0.998  24.975  0.00  0.00    +0.123 HD
BRANCH   6   9
ATOM      9  C   UNL     1       0.951   1.336  23.482  0.00  0.00    +0.054 C 
ATOM     12  C   UNL     1       2.451   1.449  23.778  0.00  0.00    +0.019 C 
ATOM     13  C   UNL     1       0.569  -0.099  23.103  0.00  0.00    +0.019 C 
ATOM     15  C   UNL     1       3.290   0.937  22.609  0.00  0.00    +0.002 C 
ATOM     16  C   UNL     1       1.411  -0.609  21.933  0.00  0.00    +0.002 C 
ATOM     17  C   UNL     1       2.905  -0.488  22.221  0.00  0.00    +0.000 C 
ENDBRANCH   6   9
ENDBRANCH   8   6
BRANCH  11  18
ATOM     18  C   UNL     1      -4.216   3.847  24.653  0.00  0.00    +0.140 C 
BRANCH  18   7
ATOM      7  N   UNL     1      -4.387   2.818  25.698  0.00  0.00    -0.187 NA
ATOM     27  H   UNL     1      -3.561   2.632  26.279  0.00  0.00    +0.148 HD
BRANCH   7   1
ATOM      1  S   UNL     1      -5.528   1.573  25.488  0.00  0.00    +0.058 S 
ATOM      4  O   UNL     1      -6.329   1.849  24.311  0.00  0.00    -0.153 OA
ATOM      5  O   UNL     1      -6.169   1.302  26.760  0.00  0.00    -0.153 OA
BRANCH   1  19
ATOM     19  C   UNL     1      -4.489   0.188  25.128  0.00  0.00    +0.105 A 
ATOM     20  C   UNL     1      -4.850  -0.712  24.125  0.00  0.00    +0.028 A 
ATOM     21  C   UNL     1      -3.312  -0.006  25.850  0.00  0.00    +0.028 A 
ATOM     22  C   UNL     1      -4.032  -1.806  23.843  0.00  0.00    +0.002 A 
ATOM     23  C   UNL     1      -2.494  -1.100  25.568  0.00  0.00    +0.002 A 
ATOM     24  C   UNL     1      -2.854  -2.000  24.565  0.00  0.00    +0.000 A 
ENDBRANCH   1  19
ENDBRANCH   7   1
ENDBRANCH  18   7
ENDBRANCH  11  18
TORSDOF 7
ENDMDL
MODEL 5
REMARK VINA RESULT:      -3.4      2.433      5.995
REMARK  Name = 75367096
REMARK  7 active torsions:
REMARK  status: ('A' for Active; 'I' for Inactive)
REMARK    1  A    between atoms: S_1  and  N_7
REMARK    2  A    between atoms: S_1  and  C_19
REMARK    3  A    between atoms: O_3  and  C_10
REMARK    4  A    between atoms: N_6  and  C_8
REMARK    5  A    between atoms: N_6  and  C_9
REMARK    6  A    between atoms: N_7  and  C_18
REMARK    7  A    between atoms: C_11  and  C_18
REMARK                            x       y       z     vdW  Elec       q    Type
REMARK                         _______ _______ _______ _____ _____    ______ ____
ROOT
ATOM      2  O   UNL     1      -1.523  -2.289  23.984  0.00  0.00    -0.371 OA
ATOM      8  C   UNL     1       0.283  -0.745  23.941  0.00  0.00    +0.111 C 
ATOM     10  C   UNL     1      -0.837  -0.173  24.790  0.00  0.00    +0.164 C 
ATOM     11  C   UNL     1      -1.616  -1.435  25.137  0.00  0.00    +0.164 C 
ATOM     14  C   UNL     1      -0.456  -1.810  23.147  0.00  0.00    +0.181 C 
ENDROOT
BRANCH  10   3
ATOM      3  O   UNL     1      -0.363   0.488  25.947  0.00  0.00    -0.388 OA
ATOM     26  H   UNL     1      -0.307   1.440  25.755  0.00  0.00    +0.210 HD
ENDBRANCH  10   3
BRANCH   8   6
ATOM      6  N   UNL     1       0.936   0.241  23.097  0.00  0.00    -0.306 NA
ATOM     25  H   UNL     1       0.885   1.162  23.529  0.00  0.00    +0.123 HD
BRANCH   6   9
ATOM      9  C   UNL     1       2.333  -0.122  22.864  0.00  0.00    +0.054 C 
ATOM     12  C   UNL     1       3.215   1.130  22.931  0.00  0.00    +0.019 C 
ATOM     13  C   UNL     1       2.778  -1.167  23.893  0.00  0.00    +0.019 C 
ATOM     15  C   UNL     1       4.692   0.780  22.769  0.00  0.00    +0.002 C 
ATOM     16  C   UNL     1       4.258  -1.515  23.729  0.00  0.00    +0.002 C 
ATOM     17  C   UNL     1       5.137  -0.269  23.785  0.00  0.00    +0.000 C 
ENDBRANCH   6   9
ENDBRANCH   8   6
BRANCH  11  18
ATOM     18  C   UNL     1      -3.076  -1.169  25.461  0.00  0.00    +0.140 C 
BRANCH  18   7
ATOM      7  N   UNL     1      -3.266   0.265  25.752  0.00  0.00    -0.187 NA
ATOM     27  H   UNL     1      -3.433   0.502  26.738  0.00  0.00    +0.148 HD
BRANCH   7   1
ATOM      1  S   UNL     1      -3.885   1.303  24.553  0.00  0.00    +0.058 S 
ATOM      4  O   UNL     1      -5.255   1.650  24.879  0.00  0.00    -0.153 OA
ATOM      5  O   UNL     1      -3.560   0.761  23.248  0.00  0.00    -0.153 OA
BRANCH   1  19
ATOM     19  C   UNL     1      -2.889   2.746  24.775  0.00  0.00    +0.105 A 
ATOM     20  C   UNL     1      -3.321   3.768  25.622  0.00  0.00    +0.028 A 
ATOM     21  C   UNL     1      -1.674   2.865  24.102  0.00  0.00    +0.028 A 
ATOM     22  C   UNL     1      -2.537   4.908  25.795  0.00  0.00    +0.002 A 
ATOM     23  C   UNL     1      -0.890   4.006  24.274  0.00  0.00    +0.002 A 
ATOM     24  C   UNL     1      -1.321   5.027  25.121  0.00  0.00    +0.000 A 
ENDBRANCH   1  19
ENDBRANCH   7   1
ENDBRANCH  18   7
ENDBRANCH  11  18
TORSDOF 7
ENDMDL
MODEL 6
REMARK VINA RESULT:      -3.4      2.397      2.989
REMARK  Name = 75367096
REMARK  7 active torsions:
REMARK  status: ('A' for Active; 'I' for Inactive)
REMARK    1  A    between atoms: S_1  and  N_7
REMARK    2  A    between atoms: S_1  and  C_19
REMARK    3  A    between atoms: O_3  and  C_10
REMARK    4  A    between atoms: N_6  and  C_8
REMARK    5  A    between atoms: N_6  and  C_9
REMARK    6  A    between atoms: N_7  and  C_18
REMARK    7  A    between atoms: C_11  and  C_18
REMARK                            x       y       z     vdW  Elec       q    Type
REMARK                         _______ _______ _______ _____ _____    ______ ____
ROOT
ATOM      2  O   UNL     1      -1.807   2.721  22.783  0.00  0.00    -0.371 OA
ATOM      8  C   UNL     1      -3.098   2.135  24.690  0.00  0.00    +0.111 C 
ATOM     10  C   UNL     1      -1.628   2.116  25.064  0.00  0.00    +0.164 C 
ATOM     11  C   UNL     1      -1.035   2.990  23.967  0.00  0.00    +0.164 C 
ATOM     14  C   UNL     1      -3.024   2.061  23.174  0.00  0.00    +0.181 C 
ENDROOT
BRANCH  10   3
ATOM      3  O   UNL     1      -1.384   2.650  26.351  0.00  0.00    -0.388 OA
ATOM     26  H   UNL     1      -0.988   3.532  26.247  0.00  0.00    +0.210 HD
ENDBRANCH  10   3
BRANCH   8   6
ATOM      6  N   UNL     1      -3.863   1.045  25.274  0.00  0.00    -0.306 NA
ATOM     25  H   UNL     1      -4.857   1.178  25.093  0.00  0.00    +0.123 HD
BRANCH   6   9
ATOM      9  C   UNL     1      -3.427  -0.240  24.732  0.00  0.00    +0.054 C 
ATOM     12  C   UNL     1      -2.712  -1.049  25.820  0.00  0.00    +0.019 C 
ATOM     13  C   UNL     1      -4.632  -1.007  24.176  0.00  0.00    +0.019 C 
ATOM     15  C   UNL     1      -2.308  -2.432  25.312  0.00  0.00    +0.002 C 
ATOM     16  C   UNL     1      -4.226  -2.391  23.669  0.00  0.00    +0.002 C 
ATOM     17  C   UNL     1      -3.504  -3.194  24.747  0.00  0.00    +0.000 C 
ENDBRANCH   6   9
ENDBRANCH   8   6
BRANCH  11  18
ATOM     18  C   UNL     1       0.432   2.704  23.697  0.00  0.00    +0.140 C 
BRANCH  18   7
ATOM      7  N   UNL     1       0.820   1.442  24.358  0.00  0.00    -0.187 NA
ATOM     27  H   UNL     1       1.349   1.542  25.233  0.00  0.00    +0.148 HD
BRANCH   7   1
ATOM      1  S   UNL     1       1.038   0.029  23.435  0.00  0.00    +0.058 S 
ATOM      4  O   UNL     1       0.583   0.266  22.079  0.00  0.00    -0.153 OA
ATOM      5  O   UNL     1       0.535  -1.106  24.185  0.00  0.00    -0.153 OA
BRANCH   1  19
ATOM     19  C   UNL     1       2.799  -0.113  23.402  0.00  0.00    +0.105 A 
ATOM     20  C   UNL     1       3.410  -1.304  23.796  0.00  0.00    +0.028 A 
ATOM     21  C   UNL     1       3.578   0.966  22.985  0.00  0.00    +0.028 A 
ATOM     22  C   UNL     1       4.801  -1.415  23.773  0.00  0.00    +0.002 A 
ATOM     23  C   UNL     1       4.968   0.856  22.962  0.00  0.00    +0.002 A 
ATOM     24  C   UNL     1       5.580  -0.335  23.356  0.00  0.00    +0.000 A 
ENDBRANCH   1  19
ENDBRANCH   7   1
ENDBRANCH  18   7
ENDBRANCH  11  18
TORSDOF 7
ENDMDL
MODEL 7
REMARK VINA RESULT:      -3.3      1.730      4.816
REMARK  Name = 75367096
REMARK  7 active torsions:
REMARK  status: ('A' for Active; 'I' for Inactive)
REMARK    1  A    between atoms: S_1  and  N_7
REMARK    2  A    between atoms: S_1  and  C_19
REMARK    3  A    between atoms: O_3  and  C_10
REMARK    4  A    between atoms: N_6  and  C_8
REMARK    5  A    between atoms: N_6  and  C_9
REMARK    6  A    between atoms: N_7  and  C_18
REMARK    7  A    between atoms: C_11  and  C_18
REMARK                            x       y       z     vdW  Elec       q    Type
REMARK                         _______ _______ _______ _____ _____    ______ ____
ROOT
ATOM      2  O   UNL     1      -1.928   3.111  26.844  0.00  0.00    -0.371 OA
ATOM      8  C   UNL     1      -0.436   3.803  25.128  0.00  0.00    +0.111 C 
ATOM     10  C   UNL     1      -1.845   4.232  24.762  0.00  0.00    +0.164 C 
ATOM     11  C   UNL     1      -2.524   4.205  26.125  0.00  0.00    +0.164 C 
ATOM     14  C   UNL     1      -0.710   2.736  26.176  0.00  0.00    +0.181 C 
ENDROOT
BRANCH  10   3
ATOM      3  O   UNL     1      -1.889   5.519  24.177  0.00  0.00    -0.388 OA
ATOM     26  H   UNL     1      -2.675   5.982  24.514  0.00  0.00    +0.210 HD
ENDBRANCH  10   3
BRANCH   8   6
ATOM      6  N   UNL     1       0.333   3.304  24.000  0.00  0.00    -0.306 NA
ATOM     25  H   UNL     1       1.233   3.780  23.951  0.00  0.00    +0.123 HD
BRANCH   6   9
ATOM      9  C   UNL     1       0.540   1.862  24.113  0.00  0.00    +0.054 C 
ATOM     12  C   UNL     1      -0.739   1.118  23.713  0.00  0.00    +0.019 C 
ATOM     13  C   UNL     1       1.724   1.435  23.237  0.00  0.00    +0.019 C 
ATOM     15  C   UNL     1      -0.537  -0.395  23.744  0.00  0.00    +0.002 C 
ATOM     16  C   UNL     1       1.924  -0.080  23.270  0.00  0.00    +0.002 C 
ATOM     17  C   UNL     1       0.648  -0.823  22.882  0.00  0.00    +0.000 C 
ENDBRANCH   6   9
ENDBRANCH   8   6
BRANCH  11  18
ATOM     18  C   UNL     1      -4.027   4.006  26.043  0.00  0.00    +0.140 C 
BRANCH  18   7
ATOM      7  N   UNL     1      -4.335   2.563  26.027  0.00  0.00    -0.187 NA
ATOM     27  H   UNL     1      -3.806   1.986  26.693  0.00  0.00    +0.148 HD
BRANCH   7   1
ATOM      1  S   UNL     1      -4.915   1.832  24.604  0.00  0.00    +0.058 S 
ATOM      4  O   UNL     1      -4.262   2.430  23.456  0.00  0.00    -0.153 OA
ATOM      5  O   UNL     1      -6.362   1.763  24.666  0.00  0.00    -0.153 OA
BRANCH   1  19
ATOM     19  C   UNL     1      -4.312   0.179  24.775  0.00  0.00    +0.105 A 
ATOM     20  C   UNL     1      -3.639  -0.201  25.936  0.00  0.00    +0.028 A 
ATOM     21  C   UNL     1      -4.506  -0.744  23.747  0.00  0.00    +0.028 A 
ATOM     22  C   UNL     1      -3.161  -1.504  26.070  0.00  0.00    +0.002 A 
ATOM     23  C   UNL     1      -4.027  -2.047  23.880  0.00  0.00    +0.002 A 
ATOM     24  C   UNL     1      -3.355  -2.427  25.042  0.00  0.00    +0.000 A 
ENDBRANCH   1  19
ENDBRANCH   7   1
ENDBRANCH  18   7
ENDBRANCH  11  18
TORSDOF 7
ENDMDL
MODEL 8
REMARK VINA RESULT:      -3.2      2.137      4.187
REMARK  Name = 75367096
REMARK  7 active torsions:
REMARK  status: ('A' for Active; 'I' for Inactive)
REMARK    1  A    between atoms: S_1  and  N_7
REMARK    2  A    between atoms: S_1  and  C_19
REMARK    3  A    between atoms: O_3  and  C_10
REMARK    4  A    between atoms: N_6  and  C_8
REMARK    5  A    between atoms: N_6  and  C_9
REMARK    6  A    between atoms: N_7  and  C_18
REMARK    7  A    between atoms: C_11  and  C_18
REMARK                            x       y       z     vdW  Elec       q    Type
REMARK                         _______ _______ _______ _____ _____    ______ ____
ROOT
ATOM      2  O   UNL     1      -0.312   4.466  25.472  0.00  0.00    -0.371 OA
ATOM      8  C   UNL     1      -2.654   4.172  25.198  0.00  0.00    +0.111 C 
ATOM     10  C   UNL     1      -1.975   2.816  25.148  0.00  0.00    +0.164 C 
ATOM     11  C   UNL     1      -0.657   3.121  25.846  0.00  0.00    +0.164 C 
ATOM     14  C   UNL     1      -1.483   5.104  24.931  0.00  0.00    +0.181 C 
ENDROOT
BRANCH  10   3
ATOM      3  O   UNL     1      -2.709   1.813  25.824  0.00  0.00    -0.388 OA
ATOM     26  H   UNL     1      -3.077   1.203  25.162  0.00  0.00    +0.210 HD
ENDBRANCH  10   3
BRANCH   8   6
ATOM      6  N   UNL     1      -3.729   4.323  24.231  0.00  0.00    -0.306 NA
ATOM     25  H   UNL     1      -3.443   3.947  23.328  0.00  0.00    +0.123 HD
BRANCH   6   9
ATOM      9  C   UNL     1      -4.938   3.643  24.692  0.00  0.00    +0.054 C 
ATOM     12  C   UNL     1      -5.024   2.249  24.061  0.00  0.00    +0.019 C 
ATOM     13  C   UNL     1      -4.936   3.557  26.223  0.00  0.00    +0.019 C 
ATOM     15  C   UNL     1      -6.236   1.477  24.579  0.00  0.00    +0.002 C 
ATOM     16  C   UNL     1      -6.149   2.784  26.738  0.00  0.00    +0.002 C 
ATOM     17  C   UNL     1      -6.244   1.399  26.103  0.00  0.00    +0.000 C 
ENDBRANCH   6   9
ENDBRANCH   8   6
BRANCH  11  18
ATOM     18  C   UNL     1       0.464   2.176  25.451  0.00  0.00    +0.140 C 
BRANCH  18   7
ATOM      7  N   UNL     1      -0.068   0.807  25.307  0.00  0.00    -0.187 NA
ATOM     27  H   UNL     1       0.138   0.165  26.083  0.00  0.00    +0.148 HD
BRANCH   7   1
ATOM      1  S   UNL     1      -0.326   0.151  23.758  0.00  0.00    +0.058 S 
ATOM      4  O   UNL     1       0.819  -0.656  23.382  0.00  0.00    -0.153 OA
ATOM      5  O   UNL     1      -0.801   1.199  22.876  0.00  0.00    -0.153 OA
BRANCH   1  19
ATOM     19  C   UNL     1      -1.688  -0.937  24.048  0.00  0.00    +0.105 A 
ATOM     20  C   UNL     1      -2.988  -0.518  23.762  0.00  0.00    +0.028 A 
ATOM     21  C   UNL     1      -1.464  -2.212  24.567  0.00  0.00    +0.028 A 
ATOM     22  C   UNL     1      -4.063  -1.376  23.994  0.00  0.00    +0.002 A 
ATOM     23  C   UNL     1      -2.539  -3.069  24.799  0.00  0.00    +0.002 A 
ATOM     24  C   UNL     1      -3.839  -2.651  24.512  0.00  0.00    +0.000 A 
ENDBRANCH   1  19
ENDBRANCH   7   1
ENDBRANCH  18   7
ENDBRANCH  11  18
TORSDOF 7
ENDMDL
MODEL 9
REMARK VINA RESULT:      -3.2      2.542      4.607
REMARK  Name = 75367096
REMARK  7 active torsions:
REMARK  status: ('A' for Active; 'I' for Inactive)
REMARK    1  A    between atoms: S_1  and  N_7
REMARK    2  A    between atoms: S_1  and  C_19
REMARK    3  A    between atoms: O_3  and  C_10
REMARK    4  A    between atoms: N_6  and  C_8
REMARK    5  A    between atoms: N_6  and  C_9
REMARK    6  A    between atoms: N_7  and  C_18
REMARK    7  A    between atoms: C_11  and  C_18
REMARK                            x       y       z     vdW  Elec       q    Type
REMARK                         _______ _______ _______ _____ _____    ______ ____
ROOT
ATOM      2  O   UNL     1      -6.156   2.300  26.095  0.00  0.00    -0.371 OA
ATOM      8  C   UNL     1      -4.669   3.965  25.279  0.00  0.00    +0.111 C 
ATOM     10  C   UNL     1      -4.453   2.682  24.497  0.00  0.00    +0.164 C 
ATOM     11  C   UNL     1      -5.768   1.958  24.753  0.00  0.00    +0.164 C 
ATOM     14  C   UNL     1      -5.394   3.448  26.511  0.00  0.00    +0.181 C 
ENDROOT
BRANCH  10   3
ATOM      3  O   UNL     1      -4.239   2.913  23.118  0.00  0.00    -0.388 OA
ATOM     26  H   UNL     1      -3.915   2.088  22.716  0.00  0.00    +0.210 HD
ENDBRANCH  10   3
BRANCH   8   6
ATOM      6  N   UNL     1      -3.438   4.667  25.599  0.00  0.00    -0.306 NA
ATOM     25  H   UNL     1      -3.438   4.947  26.579  0.00  0.00    +0.123 HD
BRANCH   6   9
ATOM      9  C   UNL     1      -2.276   3.826  25.323  0.00  0.00    +0.054 C 
ATOM     12  C   UNL     1      -1.119   4.688  24.804  0.00  0.00    +0.019 C 
ATOM     13  C   UNL     1      -1.871   3.063  26.590  0.00  0.00    +0.019 C 
ATOM     15  C   UNL     1       0.139   3.853  24.577  0.00  0.00    +0.002 C 
ATOM     16  C   UNL     1      -0.612   2.229  26.360  0.00  0.00    +0.002 C 
ATOM     17  C   UNL     1       0.539   3.083  25.833  0.00  0.00    +0.000 C 
ENDBRANCH   6   9
ENDBRANCH   8   6
BRANCH  11  18
ATOM     18  C   UNL     1      -5.657   0.449  24.622  0.00  0.00    +0.140 C 
BRANCH  18   7
ATOM      7  N   UNL     1      -4.457  -0.025  25.338  0.00  0.00    -0.187 NA
ATOM     27  H   UNL     1      -3.910   0.701  25.819  0.00  0.00    +0.148 HD
BRANCH   7   1
ATOM      1  S   UNL     1      -3.657  -1.435  24.822  0.00  0.00    +0.058 S 
ATOM      4  O   UNL     1      -4.329  -1.967  23.653  0.00  0.00    -0.153 OA
ATOM      5  O   UNL     1      -3.408  -2.283  25.971  0.00  0.00    -0.153 OA
BRANCH   1  19
ATOM     19  C   UNL     1      -2.092  -0.793  24.305  0.00  0.00    +0.105 A 
ATOM     20  C   UNL     1      -2.032   0.392  23.573  0.00  0.00    +0.028 A 
ATOM     21  C   UNL     1      -0.919  -1.475  24.626  0.00  0.00    +0.028 A 
ATOM     22  C   UNL     1      -0.798   0.897  23.163  0.00  0.00    +0.002 A 
ATOM     23  C   UNL     1       0.315  -0.971  24.216  0.00  0.00    +0.002 A 
ATOM     24  C   UNL     1       0.375   0.215  23.484  0.00  0.00    +0.000 A 
ENDBRANCH   1  19
ENDBRANCH   7   1
ENDBRANCH  18   7
ENDBRANCH  11  18
TORSDOF 7
ENDMDL
MODEL 10
REMARK VINA RESULT:      -2.8      2.489      6.390
REMARK  Name = 75367096
REMARK  7 active torsions:
REMARK  status: ('A' for Active; 'I' for Inactive)
REMARK    1  A    between atoms: S_1  and  N_7
REMARK    2  A    between atoms: S_1  and  C_19
REMARK    3  A    between atoms: O_3  and  C_10
REMARK    4  A    between atoms: N_6  and  C_8
REMARK    5  A    between atoms: N_6  and  C_9
REMARK    6  A    between atoms: N_7  and  C_18
REMARK    7  A    between atoms: C_11  and  C_18
REMARK                            x       y       z     vdW  Elec       q    Type
REMARK                         _______ _______ _______ _____ _____    ______ ____
ROOT
ATOM      2  O   UNL     1      -1.011   0.203  25.464  0.00  0.00    -0.371 OA
ATOM      8  C   UNL     1       0.874   0.144  24.019  0.00  0.00    +0.111 C 
ATOM     10  C   UNL     1       0.323   1.558  24.057  0.00  0.00    +0.164 C 
ATOM     11  C   UNL     1      -0.467   1.530  25.358  0.00  0.00    +0.164 C 
ATOM     14  C   UNL     1      -0.307  -0.653  24.548  0.00  0.00    +0.181 C 
ENDROOT
BRANCH  10   3
ATOM      3  O   UNL     1       1.340   2.540  24.080  0.00  0.00    -0.388 OA
ATOM     26  H   UNL     1       2.183   2.114  23.848  0.00  0.00    +0.210 HD
ENDBRANCH  10   3
BRANCH   8   6
ATOM      6  N   UNL     1       1.299  -0.282  22.696  0.00  0.00    -0.306 NA
ATOM     25  H   UNL     1       1.001   0.397  21.997  0.00  0.00    +0.123 HD
BRANCH   6   9
ATOM      9  C   UNL     1       2.751  -0.441  22.646  0.00  0.00    +0.054 C 
ATOM     12  C   UNL     1       3.430   0.929  22.754  0.00  0.00    +0.019 C 
ATOM     13  C   UNL     1       3.212  -1.376  23.770  0.00  0.00    +0.019 C 
ATOM     15  C   UNL     1       4.951   0.796  22.782  0.00  0.00    +0.002 C 
ATOM     16  C   UNL     1       4.735  -1.507  23.796  0.00  0.00    +0.002 C 
ATOM     17  C   UNL     1       5.414  -0.143  23.892  0.00  0.00    +0.000 C 
ENDBRANCH   6   9
ENDBRANCH   8   6
BRANCH  11  18
ATOM     18  C   UNL     1      -1.593   2.549  25.399  0.00  0.00    +0.140 C 
BRANCH  18   7
ATOM      7  N   UNL     1      -1.875   3.031  24.032  0.00  0.00    -0.187 NA
ATOM     27  H   UNL     1      -1.579   3.993  23.829  0.00  0.00    +0.148 HD
BRANCH   7   1
ATOM      1  S   UNL     1      -3.178   2.381  23.152  0.00  0.00    +0.058 S 
ATOM      4  O   UNL     1      -2.851   1.031  22.736  0.00  0.00    -0.153 OA
ATOM      5  O   UNL     1      -3.622   3.358  22.177  0.00  0.00    -0.153 OA
BRANCH   1  19
ATOM     19  C   UNL     1      -4.436   2.279  24.390  0.00  0.00    +0.105 A 
ATOM     20  C   UNL     1      -4.984   3.445  24.924  0.00  0.00    +0.028 A 
ATOM     21  C   UNL     1      -4.877   1.033  24.836  0.00  0.00    +0.028 A 
ATOM     22  C   UNL     1      -5.974   3.365  25.903  0.00  0.00    +0.002 A 
ATOM     23  C   UNL     1      -5.866   0.953  25.815  0.00  0.00    +0.002 A 
ATOM     24  C   UNL     1      -6.415   2.119  26.349  0.00  0.00    +0.000 A 
ENDBRANCH   1  19
ENDBRANCH   7   1
ENDBRANCH  18   7
ENDBRANCH  11  18
TORSDOF 7
ENDMDL
