MODEL 1
REMARK VINA RESULT:      -3.1      0.000      0.000
REMARK  Name = 26761807
REMARK  7 active torsions:
REMARK  status: ('A' for Active; 'I' for Inactive)
REMARK    1  A    between atoms: O_1  and  C_14
REMARK    2  A    between atoms: O_1  and  C_25
REMARK    3  A    between atoms: O_3  and  C_19
REMARK    4  A    between atoms: O_3  and  C_26
REMARK    5  A    between atoms: N_4  and  C_10
REMARK    6  A    between atoms: C_7  and  C_14
REMARK    7  A    between atoms: C_10  and  C_13
REMARK                            x       y       z     vdW  Elec       q    Type
REMARK                         _______ _______ _______ _____ _____    ______ ____
ROOT
ATOM      4  N   UNL     1      -0.553   1.242  24.561  0.00  0.00    -0.280 NA
ATOM      5  N   UNL     1       2.994   1.343  23.315  0.00  0.00    -0.347 N 
ATOM      6  N   UNL     1       2.336  -0.242  21.883  0.00  0.00    -0.240 NA
ATOM      7  C   UNL     1      -0.790  -0.140  24.066  0.00  0.00    +0.173 C 
ATOM      8  C   UNL     1      -0.018  -0.555  22.781  0.00  0.00    +0.087 C 
ATOM      9  C   UNL     1       0.886   1.574  24.749  0.00  0.00    +0.140 C 
ATOM     11  C   UNL     1       1.714   1.027  23.650  0.00  0.00    +0.053 A 
ATOM     12  C   UNL     1       1.334   0.051  22.764  0.00  0.00    +0.065 A 
ATOM     16  C   UNL     1       3.325   0.552  22.243  0.00  0.00    +0.197 A 
ATOM     27  H   UNL     1       3.592   2.025  23.765  0.00  0.00    +0.167 HD
ENDROOT
BRANCH   7  14
ATOM      2  O   UNL     1       0.322  -2.002  25.123  0.00  0.00    -0.249 OA
ATOM     14  C   UNL     1      -0.471  -1.073  25.201  0.00  0.00    +0.325 C 
BRANCH  14   1
ATOM      1  O   UNL     1      -1.194  -0.715  26.301  0.00  0.00    -0.467 OA
ATOM     25  C   UNL     1      -2.504  -1.285  26.385  0.00  0.00    +0.280 C 
ENDBRANCH  14   1
ENDBRANCH   7  14
BRANCH   4  10
ATOM     10  C   UNL     1      -1.212   2.226  23.697  0.00  0.00    +0.121 C 
BRANCH  10  13
ATOM     13  C   UNL     1      -2.470   2.767  24.322  0.00  0.00    -0.025 A 
ATOM     15  C   UNL     1      -3.638   1.994  24.433  0.00  0.00    -0.010 A 
ATOM     17  C   UNL     1      -2.438   4.080  24.794  0.00  0.00    +0.009 A 
ATOM     18  C   UNL     1      -4.788   2.561  25.030  0.00  0.00    +0.024 A 
ATOM     19  C   UNL     1      -4.738   3.884  25.499  0.00  0.00    +0.128 A 
ATOM     20  C   UNL     1      -3.570   4.637  25.381  0.00  0.00    +0.046 A 
ATOM     21  C   UNL     1      -3.689   0.672  23.963  0.00  0.00    +0.009 A 
ATOM     22  C   UNL     1      -5.956   1.789  25.142  0.00  0.00    +0.012 A 
ATOM     23  C   UNL     1      -4.857  -0.081  24.082  0.00  0.00    +0.001 A 
ATOM     24  C   UNL     1      -5.989   0.476  24.670  0.00  0.00    +0.001 A 
BRANCH  19   3
ATOM      3  O   UNL     1      -5.823   4.474  26.083  0.00  0.00    -0.495 OA
ATOM     26  C   UNL     1      -6.491   5.482  25.330  0.00  0.00    +0.277 C 
ENDBRANCH  19   3
ENDBRANCH  10  13
ENDBRANCH   4  10
TORSDOF 5
ENDMDL
MODEL 2
REMARK VINA RESULT:      -3.1      2.693      6.451
REMARK  Name = 26761807
REMARK  7 active torsions:
REMARK  status: ('A' for Active; 'I' for Inactive)
REMARK    1  A    between atoms: O_1  and  C_14
REMARK    2  A    between atoms: O_1  and  C_25
REMARK    3  A    between atoms: O_3  and  C_19
REMARK    4  A    between atoms: O_3  and  C_26
REMARK    5  A    between atoms: N_4  and  C_10
REMARK    6  A    between atoms: C_7  and  C_14
REMARK    7  A    between atoms: C_10  and  C_13
REMARK                            x       y       z     vdW  Elec       q    Type
REMARK                         _______ _______ _______ _____ _____    ______ ____
ROOT
ATOM      4  N   UNL     1      -2.399   3.543  26.040  0.00  0.00    -0.280 NA
ATOM      5  N   UNL     1      -6.022   2.651  26.516  0.00  0.00    -0.347 N 
ATOM      6  N   UNL     1      -5.850   1.679  24.510  0.00  0.00    -0.240 NA
ATOM      7  C   UNL     1      -2.470   3.445  24.558  0.00  0.00    +0.173 C 
ATOM      8  C   UNL     1      -3.476   2.409  23.982  0.00  0.00    +0.087 C 
ATOM      9  C   UNL     1      -3.721   3.759  26.691  0.00  0.00    +0.140 C 
ATOM     11  C   UNL     1      -4.777   2.944  26.050  0.00  0.00    +0.053 A 
ATOM     12  C   UNL     1      -4.697   2.343  24.819  0.00  0.00    +0.065 A 
ATOM     16  C   UNL     1      -6.631   1.885  25.553  0.00  0.00    +0.197 A 
ATOM     27  H   UNL     1      -6.427   2.940  27.397  0.00  0.00    +0.167 HD
ENDROOT
BRANCH   7  14
ATOM      2  O   UNL     1      -3.664   5.076  23.241  0.00  0.00    -0.249 OA
ATOM     14  C   UNL     1      -2.773   4.824  24.041  0.00  0.00    +0.325 C 
BRANCH  14   1
ATOM      1  O   UNL     1      -1.912   5.720  24.603  0.00  0.00    -0.467 OA
ATOM     25  C   UNL     1      -0.528   5.356  24.551  0.00  0.00    +0.280 C 
ENDBRANCH  14   1
ENDBRANCH   7  14
BRANCH   4  10
ATOM     10  C   UNL     1      -1.717   2.377  26.609  0.00  0.00    +0.121 C 
BRANCH  10  13
ATOM     13  C   UNL     1      -0.973   1.596  25.558  0.00  0.00    -0.025 A 
ATOM     15  C   UNL     1      -1.341   0.288  25.204  0.00  0.00    -0.010 A 
ATOM     17  C   UNL     1       0.109   2.224  24.940  0.00  0.00    +0.009 A 
ATOM     18  C   UNL     1      -0.600  -0.393  24.209  0.00  0.00    +0.024 A 
ATOM     19  C   UNL     1       0.486   0.254  23.597  0.00  0.00    +0.128 A 
ATOM     20  C   UNL     1       0.838   1.554  23.962  0.00  0.00    +0.046 A 
ATOM     21  C   UNL     1      -2.426  -0.359  25.815  0.00  0.00    +0.009 A 
ATOM     22  C   UNL     1      -0.967  -1.701  23.853  0.00  0.00    +0.012 A 
ATOM     23  C   UNL     1      -2.778  -1.659  25.450  0.00  0.00    +0.001 A 
ATOM     24  C   UNL     1      -2.049  -2.329  24.471  0.00  0.00    +0.001 A 
BRANCH  19   3
ATOM      3  O   UNL     1       1.230  -0.363  22.632  0.00  0.00    -0.495 OA
ATOM     26  C   UNL     1       2.572   0.087  22.466  0.00  0.00    +0.277 C 
ENDBRANCH  19   3
ENDBRANCH  10  13
ENDBRANCH   4  10
TORSDOF 5
ENDMDL
MODEL 3
REMARK VINA RESULT:      -2.4      1.164      2.568
REMARK  Name = 26761807
REMARK  7 active torsions:
REMARK  status: ('A' for Active; 'I' for Inactive)
REMARK    1  A    between atoms: O_1  and  C_14
REMARK    2  A    between atoms: O_1  and  C_25
REMARK    3  A    between atoms: O_3  and  C_19
REMARK    4  A    between atoms: O_3  and  C_26
REMARK    5  A    between atoms: N_4  and  C_10
REMARK    6  A    between atoms: C_7  and  C_14
REMARK    7  A    between atoms: C_10  and  C_13
REMARK                            x       y       z     vdW  Elec       q    Type
REMARK                         _______ _______ _______ _____ _____    ______ ____
ROOT
ATOM      4  N   UNL     1      -1.541   0.050  24.397  0.00  0.00    -0.280 NA
ATOM      5  N   UNL     1       1.926   1.384  23.815  0.00  0.00    -0.347 N 
ATOM      6  N   UNL     1       2.065  -0.195  22.239  0.00  0.00    -0.240 NA
ATOM      7  C   UNL     1      -1.228  -1.286  23.824  0.00  0.00    +0.173 C 
ATOM      8  C   UNL     1      -0.168  -1.319  22.688  0.00  0.00    +0.087 C 
ATOM      9  C   UNL     1      -0.341   0.804  24.852  0.00  0.00    +0.140 C 
ATOM     11  C   UNL     1       0.785   0.649  23.904  0.00  0.00    +0.053 A 
ATOM     12  C   UNL     1       0.894  -0.315  22.933  0.00  0.00    +0.065 A 
ATOM     16  C   UNL     1       2.667   0.837  22.796  0.00  0.00    +0.197 A 
ATOM     27  H   UNL     1       2.187   2.178  24.387  0.00  0.00    +0.167 HD
ENDROOT
BRANCH   7  14
ATOM      2  O   UNL     1       0.302  -2.133  25.487  0.00  0.00    -0.249 OA
ATOM     14  C   UNL     1      -0.806  -2.166  24.969  0.00  0.00    +0.325 C 
BRANCH  14   1
ATOM      1  O   UNL     1      -1.841  -2.981  25.321  0.00  0.00    -0.467 OA
ATOM     25  C   UNL     1      -3.100  -2.672  24.714  0.00  0.00    +0.280 C 
ENDBRANCH  14   1
ENDBRANCH   7  14
BRANCH   4  10
ATOM     10  C   UNL     1      -2.340   0.846  23.460  0.00  0.00    +0.121 C 
BRANCH  10  13
ATOM     13  C   UNL     1      -3.206   1.849  24.173  0.00  0.00    -0.025 A 
ATOM     15  C   UNL     1      -2.718   3.105  24.570  0.00  0.00    -0.010 A 
ATOM     17  C   UNL     1      -4.528   1.484  24.431  0.00  0.00    +0.009 A 
ATOM     18  C   UNL     1      -3.584   4.003  25.237  0.00  0.00    +0.024 A 
ATOM     19  C   UNL     1      -4.912   3.620  25.488  0.00  0.00    +0.128 A 
ATOM     20  C   UNL     1      -5.379   2.368  25.087  0.00  0.00    +0.046 A 
ATOM     21  C   UNL     1      -1.392   3.488  24.320  0.00  0.00    +0.009 A 
ATOM     22  C   UNL     1      -3.098   5.260  25.634  0.00  0.00    +0.012 A 
ATOM     23  C   UNL     1      -0.924   4.740  24.721  0.00  0.00    +0.001 A 
ATOM     24  C   UNL     1      -1.776   5.624  25.377  0.00  0.00    +0.001 A 
BRANCH  19   3
ATOM      3  O   UNL     1      -5.784   4.453  26.129  0.00  0.00    -0.495 OA
ATOM     26  C   UNL     1      -6.486   5.396  25.323  0.00  0.00    +0.277 C 
ENDBRANCH  19   3
ENDBRANCH  10  13
ENDBRANCH   4  10
TORSDOF 5
ENDMDL
MODEL 4
REMARK VINA RESULT:      -1.4     16.745     19.746
REMARK  Name = 26761807
REMARK  7 active torsions:
REMARK  status: ('A' for Active; 'I' for Inactive)
REMARK    1  A    between atoms: O_1  and  C_14
REMARK    2  A    between atoms: O_1  and  C_25
REMARK    3  A    between atoms: O_3  and  C_19
REMARK    4  A    between atoms: O_3  and  C_26
REMARK    5  A    between atoms: N_4  and  C_10
REMARK    6  A    between atoms: C_7  and  C_14
REMARK    7  A    between atoms: C_10  and  C_13
REMARK                            x       y       z     vdW  Elec       q    Type
REMARK                         _______ _______ _______ _____ _____    ______ ____
ROOT
ATOM      4  N   UNL     1      15.487  -5.946  30.215  0.00  0.00    -0.280 NA
ATOM      5  N   UNL     1      17.405  -9.090  30.976  0.00  0.00    -0.347 N 
ATOM      6  N   UNL     1      16.145  -9.186  32.821  0.00  0.00    -0.240 NA
ATOM      7  C   UNL     1      15.125  -5.707  31.637  0.00  0.00    +0.173 C 
ATOM      8  C   UNL     1      14.941  -6.970  32.524  0.00  0.00    +0.087 C 
ATOM      9  C   UNL     1      16.677  -6.822  30.038  0.00  0.00    +0.140 C 
ATOM     11  C   UNL     1      16.667  -7.947  31.000  0.00  0.00    +0.053 A 
ATOM     12  C   UNL     1      15.908  -8.026  32.140  0.00  0.00    +0.065 A 
ATOM     16  C   UNL     1      17.055  -9.806  32.094  0.00  0.00    +0.197 A 
ATOM     27  H   UNL     1      18.084  -9.364  30.277  0.00  0.00    +0.167 HD
ENDROOT
BRANCH   7  14
ATOM      2  O   UNL     1      17.147  -5.198  32.851  0.00  0.00    -0.249 OA
ATOM     14  C   UNL     1      16.181  -4.803  32.212  0.00  0.00    +0.325 C 
BRANCH  14   1
ATOM      1  O   UNL     1      15.886  -3.508  31.906  0.00  0.00    -0.467 OA
ATOM     25  C   UNL     1      16.916  -2.558  32.201  0.00  0.00    +0.280 C 
ENDBRANCH  14   1
ENDBRANCH   7  14
BRANCH   4  10
ATOM     10  C   UNL     1      14.338  -6.460  29.463  0.00  0.00    +0.121 C 
BRANCH  10  13
ATOM     13  C   UNL     1      13.167  -6.753  30.361  0.00  0.00    -0.025 A 
ATOM     15  C   UNL     1      12.739  -8.065  30.621  0.00  0.00    -0.010 A 
ATOM     17  C   UNL     1      12.511  -5.663  30.935  0.00  0.00    +0.009 A 
ATOM     18  C   UNL     1      11.630  -8.274  31.475  0.00  0.00    +0.024 A 
ATOM     19  C   UNL     1      10.981  -7.165  32.043  0.00  0.00    +0.128 A 
ATOM     20  C   UNL     1      11.420  -5.869  31.774  0.00  0.00    +0.046 A 
ATOM     21  C   UNL     1      13.386  -9.174  30.053  0.00  0.00    +0.009 A 
ATOM     22  C   UNL     1      11.201  -9.586  31.736  0.00  0.00    +0.012 A 
ATOM     23  C   UNL     1      12.947 -10.470  30.323  0.00  0.00    +0.001 A 
ATOM     24  C   UNL     1      11.857 -10.676  31.163  0.00  0.00    +0.001 A 
BRANCH  19   3
ATOM      3  O   UNL     1       9.907  -7.318  32.873  0.00  0.00    -0.495 OA
ATOM     26  C   UNL     1       8.672  -7.690  32.268  0.00  0.00    +0.277 C 
ENDBRANCH  19   3
ENDBRANCH  10  13
ENDBRANCH   4  10
TORSDOF 5
ENDMDL
MODEL 5
REMARK VINA RESULT:      -0.6      2.565      5.794
REMARK  Name = 26761807
REMARK  7 active torsions:
REMARK  status: ('A' for Active; 'I' for Inactive)
REMARK    1  A    between atoms: O_1  and  C_14
REMARK    2  A    between atoms: O_1  and  C_25
REMARK    3  A    between atoms: O_3  and  C_19
REMARK    4  A    between atoms: O_3  and  C_26
REMARK    5  A    between atoms: N_4  and  C_10
REMARK    6  A    between atoms: C_7  and  C_14
REMARK    7  A    between atoms: C_10  and  C_13
REMARK                            x       y       z     vdW  Elec       q    Type
REMARK                         _______ _______ _______ _____ _____    ______ ____
ROOT
ATOM      4  N   UNL     1      -4.018   2.281  23.261  0.00  0.00    -0.280 NA
ATOM      5  N   UNL     1      -2.398   5.571  24.097  0.00  0.00    -0.347 N 
ATOM      6  N   UNL     1      -1.750   4.558  25.982  0.00  0.00    -0.240 NA
ATOM      7  C   UNL     1      -4.104   1.853  24.683  0.00  0.00    +0.173 C 
ATOM      8  C   UNL     1      -2.982   2.365  25.628  0.00  0.00    +0.087 C 
ATOM      9  C   UNL     1      -3.891   3.753  23.085  0.00  0.00    +0.140 C 
ATOM     11  C   UNL     1      -2.981   4.342  24.094  0.00  0.00    +0.053 A 
ATOM     12  C   UNL     1      -2.575   3.742  25.259  0.00  0.00    +0.065 A 
ATOM     16  C   UNL     1      -1.665   5.655  25.255  0.00  0.00    +0.197 A 
ATOM     27  H   UNL     1      -2.486   6.289  23.389  0.00  0.00    +0.167 HD
ENDROOT
BRANCH   7  14
ATOM      2  O   UNL     1      -6.513   1.794  24.799  0.00  0.00    -0.249 OA
ATOM     14  C   UNL     1      -5.457   2.275  25.186  0.00  0.00    +0.325 C 
BRANCH  14   1
ATOM      1  O   UNL     1      -5.308   3.257  26.121  0.00  0.00    -0.467 OA
ATOM     25  C   UNL     1      -6.031   4.465  25.863  0.00  0.00    +0.280 C 
ENDBRANCH  14   1
ENDBRANCH   7  14
BRANCH   4  10
ATOM     10  C   UNL     1      -2.938   1.573  22.568  0.00  0.00    +0.121 C 
BRANCH  10  13
ATOM     13  C   UNL     1      -2.226   0.608  23.477  0.00  0.00    -0.025 A 
ATOM     15  C   UNL     1      -2.793  -0.622  23.848  0.00  0.00    -0.010 A 
ATOM     17  C   UNL     1      -0.966   0.982  23.946  0.00  0.00    +0.009 A 
ATOM     18  C   UNL     1      -2.072  -1.485  24.707  0.00  0.00    +0.024 A 
ATOM     19  C   UNL     1      -0.805  -1.093  25.170  0.00  0.00    +0.128 A 
ATOM     20  C   UNL     1      -0.257   0.133  24.791  0.00  0.00    +0.046 A 
ATOM     21  C   UNL     1      -4.059  -1.015  23.387  0.00  0.00    +0.009 A 
ATOM     22  C   UNL     1      -2.637  -2.716  25.078  0.00  0.00    +0.012 A 
ATOM     23  C   UNL     1      -4.607  -2.240  23.765  0.00  0.00    +0.001 A 
ATOM     24  C   UNL     1      -3.897  -3.090  24.610  0.00  0.00    +0.001 A 
BRANCH  19   3
ATOM      3  O   UNL     1      -0.072  -1.892  26.000  0.00  0.00    -0.495 OA
ATOM     26  C   UNL     1       0.787  -2.848  25.383  0.00  0.00    +0.277 C 
ENDBRANCH  19   3
ENDBRANCH  10  13
ENDBRANCH   4  10
TORSDOF 5
ENDMDL
MODEL 6
REMARK VINA RESULT:      -0.3      2.378      5.734
REMARK  Name = 26761807
REMARK  7 active torsions:
REMARK  status: ('A' for Active; 'I' for Inactive)
REMARK    1  A    between atoms: O_1  and  C_14
REMARK    2  A    between atoms: O_1  and  C_25
REMARK    3  A    between atoms: O_3  and  C_19
REMARK    4  A    between atoms: O_3  and  C_26
REMARK    5  A    between atoms: N_4  and  C_10
REMARK    6  A    between atoms: C_7  and  C_14
REMARK    7  A    between atoms: C_10  and  C_13
REMARK                            x       y       z     vdW  Elec       q    Type
REMARK                         _______ _______ _______ _____ _____    ______ ____
ROOT
ATOM      4  N   UNL     1      -4.143   3.187  23.657  0.00  0.00    -0.280 NA
ATOM      5  N   UNL     1      -1.055   5.063  24.702  0.00  0.00    -0.347 N 
ATOM      6  N   UNL     1      -0.886   3.514  26.305  0.00  0.00    -0.240 NA
ATOM      7  C   UNL     1      -4.346   2.581  25.000  0.00  0.00    +0.173 C 
ATOM      8  C   UNL     1      -3.064   2.296  25.831  0.00  0.00    +0.087 C 
ATOM      9  C   UNL     1      -3.311   4.421  23.676  0.00  0.00    +0.140 C 
ATOM     11  C   UNL     1      -2.171   4.291  24.611  0.00  0.00    +0.053 A 
ATOM     12  C   UNL     1      -2.048   3.353  25.605  0.00  0.00    +0.065 A 
ATOM     16  C   UNL     1      -0.310   4.556  25.738  0.00  0.00    +0.197 A 
ATOM     27  H   UNL     1      -0.816   5.860  24.125  0.00  0.00    +0.167 HD
ENDROOT
BRANCH   7  14
ATOM      2  O   UNL     1      -5.501   4.653  25.444  0.00  0.00    -0.249 OA
ATOM     14  C   UNL     1      -5.277   3.491  25.755  0.00  0.00    +0.325 C 
BRANCH  14   1
ATOM      1  O   UNL     1      -5.813   2.817  26.812  0.00  0.00    -0.467 OA
ATOM     25  C   UNL     1      -6.539   1.629  26.478  0.00  0.00    +0.280 C 
ENDBRANCH  14   1
ENDBRANCH   7  14
BRANCH   4  10
ATOM     10  C   UNL     1      -3.602   2.202  22.716  0.00  0.00    +0.121 C 
BRANCH  10  13
ATOM     13  C   UNL     1      -3.363   0.870  23.376  0.00  0.00    -0.025 A 
ATOM     15  C   UNL     1      -2.069   0.381  23.618  0.00  0.00    -0.010 A 
ATOM     17  C   UNL     1      -4.486   0.128  23.743  0.00  0.00    +0.009 A 
ATOM     18  C   UNL     1      -1.912  -0.880  24.241  0.00  0.00    +0.024 A 
ATOM     19  C   UNL     1      -3.054  -1.614  24.605  0.00  0.00    +0.128 A 
ATOM     20  C   UNL     1      -4.331  -1.112  24.356  0.00  0.00    +0.046 A 
ATOM     21  C   UNL     1      -0.929   1.113  23.255  0.00  0.00    +0.009 A 
ATOM     22  C   UNL     1      -0.619  -1.370  24.485  0.00  0.00    +0.012 A 
ATOM     23  C   UNL     1       0.349   0.612  23.503  0.00  0.00    +0.001 A 
ATOM     24  C   UNL     1       0.504  -0.628  24.117  0.00  0.00    +0.001 A 
BRANCH  19   3
ATOM      3  O   UNL     1      -2.952  -2.835  25.209  0.00  0.00    -0.495 OA
ATOM     26  C   UNL     1      -3.582  -3.932  24.555  0.00  0.00    +0.277 C 
ENDBRANCH  19   3
ENDBRANCH  10  13
ENDBRANCH   4  10
TORSDOF 5
ENDMDL
MODEL 7
REMARK VINA RESULT:      -0.2      2.540      4.715
REMARK  Name = 26761807
REMARK  7 active torsions:
REMARK  status: ('A' for Active; 'I' for Inactive)
REMARK    1  A    between atoms: O_1  and  C_14
REMARK    2  A    between atoms: O_1  and  C_25
REMARK    3  A    between atoms: O_3  and  C_19
REMARK    4  A    between atoms: O_3  and  C_26
REMARK    5  A    between atoms: N_4  and  C_10
REMARK    6  A    between atoms: C_7  and  C_14
REMARK    7  A    between atoms: C_10  and  C_13
REMARK                            x       y       z     vdW  Elec       q    Type
REMARK                         _______ _______ _______ _____ _____    ______ ____
ROOT
ATOM      4  N   UNL     1      -0.067   1.079  25.636  0.00  0.00    -0.280 NA
ATOM      5  N   UNL     1      -0.862   4.752  25.487  0.00  0.00    -0.347 N 
ATOM      6  N   UNL     1      -2.108   4.217  23.709  0.00  0.00    -0.240 NA
ATOM      7  C   UNL     1      -0.372   0.856  24.198  0.00  0.00    +0.173 C 
ATOM      8  C   UNL     1      -1.473   1.762  23.577  0.00  0.00    +0.087 C 
ATOM      9  C   UNL     1       0.246   2.496  25.970  0.00  0.00    +0.140 C 
ATOM     11  C   UNL     1      -0.645   3.431  25.247  0.00  0.00    +0.053 A 
ATOM     12  C   UNL     1      -1.413   3.127  24.152  0.00  0.00    +0.065 A 
ATOM     16  C   UNL     1      -1.752   5.182  24.534  0.00  0.00    +0.197 A 
ATOM     27  H   UNL     1      -0.450   5.315  26.220  0.00  0.00    +0.167 HD
ENDROOT
BRANCH   7  14
ATOM      2  O   UNL     1       1.726   1.907  23.636  0.00  0.00    -0.249 OA
ATOM     14  C   UNL     1       0.923   1.003  23.447  0.00  0.00    +0.325 C 
BRANCH  14   1
ATOM      1  O   UNL     1       1.045  -0.015  22.548  0.00  0.00    -0.467 OA
ATOM     25  C   UNL     1       2.361  -0.210  22.017  0.00  0.00    +0.280 C 
ENDBRANCH  14   1
ENDBRANCH   7  14
BRANCH   4  10
ATOM     10  C   UNL     1      -1.145   0.564  26.485  0.00  0.00    +0.121 C 
BRANCH  10  13
ATOM     13  C   UNL     1      -2.177  -0.185  25.686  0.00  0.00    -0.025 A 
ATOM     15  C   UNL     1      -3.427   0.375  25.373  0.00  0.00    -0.010 A 
ATOM     17  C   UNL     1      -1.847  -1.473  25.261  0.00  0.00    +0.009 A 
ATOM     18  C   UNL     1      -4.354  -0.382  24.618  0.00  0.00    +0.024 A 
ATOM     19  C   UNL     1      -4.005  -1.677  24.199  0.00  0.00    +0.128 A 
ATOM     20  C   UNL     1      -2.759  -2.217  24.519  0.00  0.00    +0.046 A 
ATOM     21  C   UNL     1      -3.776   1.668  25.792  0.00  0.00    +0.009 A 
ATOM     22  C   UNL     1      -5.603   0.177  24.304  0.00  0.00    +0.012 A 
ATOM     23  C   UNL     1      -5.021   2.208  25.471  0.00  0.00    +0.001 A 
ATOM     24  C   UNL     1      -5.934   1.464  24.729  0.00  0.00    +0.001 A 
BRANCH  19   3
ATOM      3  O   UNL     1      -4.867  -2.444  23.468  0.00  0.00    -0.495 OA
ATOM     26  C   UNL     1      -4.488  -3.799  23.239  0.00  0.00    +0.277 C 
ENDBRANCH  19   3
ENDBRANCH  10  13
ENDBRANCH   4  10
TORSDOF 5
ENDMDL
MODEL 8
REMARK VINA RESULT:      -0.0      2.086      4.255
REMARK  Name = 26761807
REMARK  7 active torsions:
REMARK  status: ('A' for Active; 'I' for Inactive)
REMARK    1  A    between atoms: O_1  and  C_14
REMARK    2  A    between atoms: O_1  and  C_25
REMARK    3  A    between atoms: O_3  and  C_19
REMARK    4  A    between atoms: O_3  and  C_26
REMARK    5  A    between atoms: N_4  and  C_10
REMARK    6  A    between atoms: C_7  and  C_14
REMARK    7  A    between atoms: C_10  and  C_13
REMARK                            x       y       z     vdW  Elec       q    Type
REMARK                         _______ _______ _______ _____ _____    ______ ____
ROOT
ATOM      4  N   UNL     1      -0.188   0.844  24.014  0.00  0.00    -0.280 NA
ATOM      5  N   UNL     1      -3.235  -1.316  23.569  0.00  0.00    -0.347 N 
ATOM      6  N   UNL     1      -2.022  -2.905  24.569  0.00  0.00    -0.240 NA
ATOM      7  C   UNL     1       0.739  -0.315  24.104  0.00  0.00    +0.173 C 
ATOM      8  C   UNL     1       0.160  -1.616  24.728  0.00  0.00    +0.087 C 
ATOM      9  C   UNL     1      -1.477   0.530  23.338  0.00  0.00    +0.140 C 
ATOM     11  C   UNL     1      -1.988  -0.800  23.739  0.00  0.00    +0.053 A 
ATOM     12  C   UNL     1      -1.261  -1.792  24.348  0.00  0.00    +0.065 A 
ATOM     16  C   UNL     1      -3.207  -2.588  24.086  0.00  0.00    +0.197 A 
ATOM     27  H   UNL     1      -4.031  -0.859  23.143  0.00  0.00    +0.167 HD
ENDROOT
BRANCH   7  14
ATOM      2  O   UNL     1       0.532  -0.713  21.733  0.00  0.00    -0.249 OA
ATOM     14  C   UNL     1       1.251  -0.575  22.714  0.00  0.00    +0.325 C 
BRANCH  14   1
ATOM      1  O   UNL     1       2.613  -0.627  22.733  0.00  0.00    -0.467 OA
ATOM     25  C   UNL     1       3.277   0.638  22.646  0.00  0.00    +0.280 C 
ENDBRANCH  14   1
ENDBRANCH   7  14
BRANCH   4  10
ATOM     10  C   UNL     1      -0.418   1.432  25.337  0.00  0.00    +0.121 C 
BRANCH  10  13
ATOM     13  C   UNL     1      -1.722   2.182  25.399  0.00  0.00    -0.025 A 
ATOM     15  C   UNL     1      -1.789   3.573  25.224  0.00  0.00    -0.010 A 
ATOM     17  C   UNL     1      -2.877   1.437  25.639  0.00  0.00    +0.009 A 
ATOM     18  C   UNL     1      -3.046   4.219  25.294  0.00  0.00    +0.024 A 
ATOM     19  C   UNL     1      -4.199   3.454  25.537  0.00  0.00    +0.128 A 
ATOM     20  C   UNL     1      -4.114   2.072  25.708  0.00  0.00    +0.046 A 
ATOM     21  C   UNL     1      -0.637   4.339  24.982  0.00  0.00    +0.009 A 
ATOM     22  C   UNL     1      -3.116   5.611  25.119  0.00  0.00    +0.012 A 
ATOM     23  C   UNL     1      -0.723   5.720  24.811  0.00  0.00    +0.001 A 
ATOM     24  C   UNL     1      -1.960   6.355  24.879  0.00  0.00    +0.001 A 
BRANCH  19   3
ATOM      3  O   UNL     1      -5.434   4.033  25.613  0.00  0.00    -0.495 OA
ATOM     26  C   UNL     1      -6.549   3.157  25.750  0.00  0.00    +0.277 C 
ENDBRANCH  19   3
ENDBRANCH  10  13
ENDBRANCH   4  10
TORSDOF 5
ENDMDL
MODEL 9
REMARK VINA RESULT:      -0.0      2.528      6.662
REMARK  Name = 26761807
REMARK  7 active torsions:
REMARK  status: ('A' for Active; 'I' for Inactive)
REMARK    1  A    between atoms: O_1  and  C_14
REMARK    2  A    between atoms: O_1  and  C_25
REMARK    3  A    between atoms: O_3  and  C_19
REMARK    4  A    between atoms: O_3  and  C_26
REMARK    5  A    between atoms: N_4  and  C_10
REMARK    6  A    between atoms: C_7  and  C_14
REMARK    7  A    between atoms: C_10  and  C_13
REMARK                            x       y       z     vdW  Elec       q    Type
REMARK                         _______ _______ _______ _____ _____    ______ ____
ROOT
ATOM      4  N   UNL     1      -2.606   3.347  25.072  0.00  0.00    -0.280 NA
ATOM      5  N   UNL     1      -5.979   3.070  26.711  0.00  0.00    -0.347 N 
ATOM      6  N   UNL     1      -6.229   1.238  25.454  0.00  0.00    -0.240 NA
ATOM      7  C   UNL     1      -3.010   2.548  23.884  0.00  0.00    +0.173 C 
ATOM      8  C   UNL     1      -4.074   1.441  24.126  0.00  0.00    +0.087 C 
ATOM      9  C   UNL     1      -3.751   3.949  25.808  0.00  0.00    +0.140 C 
ATOM     11  C   UNL     1      -4.889   3.007  25.900  0.00  0.00    +0.053 A 
ATOM     12  C   UNL     1      -5.066   1.881  25.136  0.00  0.00    +0.065 A 
ATOM     16  C   UNL     1      -6.758   1.981  26.406  0.00  0.00    +0.197 A 
ATOM     27  H   UNL     1      -6.184   3.779  27.404  0.00  0.00    +0.167 HD
ENDROOT
BRANCH   7  14
ATOM      2  O   UNL     1      -3.952   4.625  23.096  0.00  0.00    -0.249 OA
ATOM     14  C   UNL     1      -3.484   3.523  22.842  0.00  0.00    +0.325 C 
BRANCH  14   1
ATOM      1  O   UNL     1      -3.307   2.984  21.602  0.00  0.00    -0.467 OA
ATOM     25  C   UNL     1      -2.336   1.936  21.521  0.00  0.00    +0.280 C 
ENDBRANCH  14   1
ENDBRANCH   7  14
BRANCH   4  10
ATOM     10  C   UNL     1      -1.760   2.555  25.970  0.00  0.00    +0.121 C 
BRANCH  10  13
ATOM     13  C   UNL     1      -1.552   1.156  25.456  0.00  0.00    -0.025 A 
ATOM     15  C   UNL     1      -0.482   0.825  24.609  0.00  0.00    -0.010 A 
ATOM     17  C   UNL     1      -2.472   0.185  25.854  0.00  0.00    +0.009 A 
ATOM     18  C   UNL     1      -0.343  -0.509  24.160  0.00  0.00    +0.024 A 
ATOM     19  C   UNL     1      -1.277  -1.474  24.570  0.00  0.00    +0.128 A 
ATOM     20  C   UNL     1      -2.335  -1.128  25.412  0.00  0.00    +0.046 A 
ATOM     21  C   UNL     1       0.452   1.789  24.198  0.00  0.00    +0.009 A 
ATOM     22  C   UNL     1       0.727  -0.841  23.313  0.00  0.00    +0.012 A 
ATOM     23  C   UNL     1       1.509   1.443  23.356  0.00  0.00    +0.001 A 
ATOM     24  C   UNL     1       1.647   0.130  22.915  0.00  0.00    +0.001 A 
BRANCH  19   3
ATOM      3  O   UNL     1      -1.184  -2.774  24.162  0.00  0.00    -0.495 OA
ATOM     26  C   UNL     1      -2.407  -3.468  23.935  0.00  0.00    +0.277 C 
ENDBRANCH  19   3
ENDBRANCH  10  13
ENDBRANCH   4  10
TORSDOF 5
ENDMDL
MODEL 10
REMARK VINA RESULT:      -0.0      2.223      6.011
REMARK  Name = 26761807
REMARK  7 active torsions:
REMARK  status: ('A' for Active; 'I' for Inactive)
REMARK    1  A    between atoms: O_1  and  C_14
REMARK    2  A    between atoms: O_1  and  C_25
REMARK    3  A    between atoms: O_3  and  C_19
REMARK    4  A    between atoms: O_3  and  C_26
REMARK    5  A    between atoms: N_4  and  C_10
REMARK    6  A    between atoms: C_7  and  C_14
REMARK    7  A    between atoms: C_10  and  C_13
REMARK                            x       y       z     vdW  Elec       q    Type
REMARK                         _______ _______ _______ _____ _____    ______ ____
ROOT
ATOM      4  N   UNL     1      -3.953   2.008  25.386  0.00  0.00    -0.280 NA
ATOM      5  N   UNL     1      -1.335   4.038  23.606  0.00  0.00    -0.347 N 
ATOM      6  N   UNL     1      -1.482   5.416  25.361  0.00  0.00    -0.240 NA
ATOM      7  C   UNL     1      -4.450   3.164  26.178  0.00  0.00    +0.173 C 
ATOM      8  C   UNL     1      -3.400   4.250  26.548  0.00  0.00    +0.087 C 
ATOM      9  C   UNL     1      -3.224   2.398  24.148  0.00  0.00    +0.140 C 
ATOM     11  C   UNL     1      -2.347   3.567  24.383  0.00  0.00    +0.053 A 
ATOM     12  C   UNL     1      -2.422   4.429  25.448  0.00  0.00    +0.065 A 
ATOM     16  C   UNL     1      -0.843   5.154  24.237  0.00  0.00    +0.197 A 
ATOM     27  H   UNL     1      -1.006   3.650  22.731  0.00  0.00    +0.167 HD
ENDROOT
BRANCH   7  14
ATOM      2  O   UNL     1      -6.013   4.903  25.584  0.00  0.00    -0.249 OA
ATOM     14  C   UNL     1      -5.589   3.769  25.405  0.00  0.00    +0.325 C 
BRANCH  14   1
ATOM      1  O   UNL     1      -6.053   2.864  24.496  0.00  0.00    -0.467 OA
ATOM     25  C   UNL     1      -6.682   1.705  25.052  0.00  0.00    +0.280 C 
ENDBRANCH  14   1
ENDBRANCH   7  14
BRANCH   4  10
ATOM     10  C   UNL     1      -3.140   1.116  26.217  0.00  0.00    +0.121 C 
BRANCH  10  13
ATOM     13  C   UNL     1      -2.033   0.469  25.428  0.00  0.00    -0.025 A 
ATOM     15  C   UNL     1      -2.154  -0.828  24.902  0.00  0.00    -0.010 A 
ATOM     17  C   UNL     1      -0.867   1.211  25.234  0.00  0.00    +0.009 A 
ATOM     18  C   UNL     1      -1.076  -1.380  24.169  0.00  0.00    +0.024 A 
ATOM     19  C   UNL     1       0.090  -0.619  23.984  0.00  0.00    +0.128 A 
ATOM     20  C   UNL     1       0.193   0.667  24.514  0.00  0.00    +0.046 A 
ATOM     21  C   UNL     1      -3.319  -1.588  25.087  0.00  0.00    +0.009 A 
ATOM     22  C   UNL     1      -1.196  -2.676  23.642  0.00  0.00    +0.012 A 
ATOM     23  C   UNL     1      -3.422  -2.874  24.557  0.00  0.00    +0.001 A 
ATOM     24  C   UNL     1      -2.362  -3.417  23.836  0.00  0.00    +0.001 A 
BRANCH  19   3
ATOM      3  O   UNL     1       1.155  -1.110  23.284  0.00  0.00    -0.495 OA
ATOM     26  C   UNL     1       1.860  -0.191  22.454  0.00  0.00    +0.277 C 
ENDBRANCH  19   3
ENDBRANCH  10  13
ENDBRANCH   4  10
TORSDOF 5
ENDMDL
