MODEL 1
REMARK VINA RESULT:       7.2      0.000      0.000
REMARK  Name = 7663757
REMARK  4 active torsions:
REMARK  status: ('A' for Active; 'I' for Inactive)
REMARK    1  A    between atoms: C_15  and  C_18
REMARK    2  A    between atoms: C_16  and  C_19
REMARK    3  A    between atoms: C_22  and  C_26
REMARK    4  A    between atoms: C_25  and  C_27
REMARK                            x       y       z     vdW  Elec       q    Type
REMARK                         _______ _______ _______ _____ _____    ______ ____
ROOT
ATOM      2  O   UNL     1      -0.255   2.983  25.856  0.00  0.00    -0.267 OA
ATOM      3  O   UNL     1      -4.274   0.065  27.290  0.00  0.00    -0.270 OA
ATOM      4  N   UNL     1      -4.947   1.352  25.455  0.00  0.00    -0.297 N 
ATOM      5  N   UNL     1      -2.270   2.873  24.691  0.00  0.00    -0.311 N 
ATOM      6  C   UNL     1      -4.463   3.786  25.652  0.00  0.00    +0.027 C 
ATOM      7  C   UNL     1      -4.449   2.711  23.437  0.00  0.00    +0.054 C 
ATOM      8  C   UNL     1      -4.860   3.974  24.191  0.00  0.00    +0.018 C 
ATOM      9  C   UNL     1      -5.178   2.559  26.248  0.00  0.00    +0.113 C 
ATOM     10  C   UNL     1      -2.937   3.662  25.737  0.00  0.00    +0.130 C 
ATOM     11  C   UNL     1      -5.205   1.496  24.013  0.00  0.00    +0.117 C 
ATOM     12  C   UNL     1      -2.954   2.476  23.539  0.00  0.00    +0.027 A 
ATOM     13  C   UNL     1      -2.296   1.858  22.546  0.00  0.00    +0.022 A 
ATOM     14  C   UNL     1      -0.891   2.630  24.862  0.00  0.00    +0.259 A 
ATOM     15  C   UNL     1      -4.490   0.193  26.087  0.00  0.00    +0.247 C 
ATOM     16  C   UNL     1      -0.188   1.907  23.745  0.00  0.00    +0.040 A 
ATOM     17  C   UNL     1      -0.895   1.571  22.656  0.00  0.00    +0.015 A 
ENDROOT
BRANCH  15  18
ATOM     18  C   UNL     1      -4.225  -0.985  25.253  0.00  0.00    +0.037 A 
ATOM     20  C   UNL     1      -3.413  -2.007  25.736  0.00  0.00    +0.013 A 
ATOM     21  C   UNL     1      -4.788  -1.075  23.983  0.00  0.00    +0.013 A 
ATOM     23  C   UNL     1      -3.162  -3.128  24.944  0.00  0.00    +0.004 A 
ATOM     24  C   UNL     1      -4.537  -2.196  23.191  0.00  0.00    +0.004 A 
ATOM     25  C   UNL     1      -3.723  -3.222  23.671  0.00  0.00    -0.050 A 
ATOM     27  C   UNL     1      -3.454  -4.419  22.824  0.00  0.00    +0.044 C 
ENDBRANCH  15  18
BRANCH  16  19
ATOM     19  C   UNL     1       1.216   1.603  23.857  0.00  0.00    +0.014 C 
ATOM     22  C   UNL     1       1.806   0.624  23.158  0.00  0.00    +0.008 C 
BRANCH  22  26
ATOM      1 CL   UNL     1       7.586  -0.807  23.511  0.00  0.00    -0.084 Cl
ATOM     26  C   UNL     1       3.233   0.270  23.245  0.00  0.00    -0.025 A 
ATOM     28  C   UNL     1       3.593  -1.002  23.658  0.00  0.00    +0.009 A 
ATOM     29  C   UNL     1       4.189   1.217  22.912  0.00  0.00    +0.009 A 
ATOM     30  C   UNL     1       4.945  -1.337  23.741  0.00  0.00    +0.020 A 
ATOM     31  C   UNL     1       5.540   0.883  22.995  0.00  0.00    +0.020 A 
ATOM     32  C   UNL     1       5.918  -0.393  23.409  0.00  0.00    +0.041 A 
ENDBRANCH  22  26
ENDBRANCH  16  19
TORSDOF 3
ENDMDL
