MODEL 1
REMARK VINA RESULT:      -2.6      0.000      0.000
REMARK  Name = 26742545
REMARK  12 active torsions:
REMARK  status: ('A' for Active; 'I' for Inactive)
REMARK    1  A    between atoms: O_3  and  C_25
REMARK    2  A    between atoms: O_3  and  C_30
REMARK    3  A    between atoms: O_4  and  C_27
REMARK    4  A    between atoms: O_4  and  C_31
REMARK    5  A    between atoms: N_6  and  C_17
REMARK    6  A    between atoms: C_16  and  C_18
REMARK    7  A    between atoms: C_17  and  C_20
REMARK    8  A    between atoms: C_18  and  C_19
REMARK    9  A    between atoms: C_19  and  C_21
REMARK   10  A    between atoms: C_19  and  C_22
REMARK   11  A    between atoms: C_19  and  C_23
REMARK   12  A    between atoms: C_20  and  C_24
REMARK                            x       y       z     vdW  Elec       q    Type
REMARK                         _______ _______ _______ _____ _____    ______ ____
ROOT
ATOM      1  O   UNL     1      -6.600  -7.789   8.351  0.00  0.00    -0.276 OA
ATOM      2  O   UNL     1     -10.687  -7.636  14.032  0.00  0.00    -0.276 OA
ATOM      5  N   UNL     1     -10.615  -9.026  12.172  0.00  0.00    -0.301 N 
ATOM      6  N   UNL     1      -6.350  -9.527   9.866  0.00  0.00    -0.301 N 
ATOM      7  C   UNL     1      -9.380 -10.472  10.568  0.00  0.00    +0.011 C 
ATOM      8  C   UNL     1      -9.462  -9.323   9.534  0.00  0.00    +0.004 C 
ATOM      9  C   UNL     1      -9.565  -7.949  10.221  0.00  0.00    +0.023 C 
ATOM     10  C   UNL     1     -10.556 -10.359  11.559  0.00  0.00    +0.111 C 
ATOM     11  C   UNL     1      -8.049 -10.566  11.338  0.00  0.00    +0.024 C 
ATOM     12  C   UNL     1      -8.373  -9.372   8.455  0.00  0.00    +0.100 C 
ATOM     13  C   UNL     1     -10.720  -7.920  11.221  0.00  0.00    +0.108 C 
ATOM     14  C   UNL     1      -6.839 -10.781  10.435  0.00  0.00    +0.108 C 
ATOM     15  C   UNL     1      -7.025  -8.819   8.879  0.00  0.00    +0.216 C 
ATOM     16  C   UNL     1     -10.609  -8.765  13.542  0.00  0.00    +0.216 C 
ENDROOT
BRANCH   6  17
ATOM     17  C   UNL     1      -5.089  -9.021  10.393  0.00  0.00    +0.112 C 
BRANCH  17  20
ATOM     20  C   UNL     1      -4.100 -10.137  10.721  0.00  0.00    +0.058 C 
BRANCH  20  24
ATOM     24  C   UNL     1      -3.891 -10.322  12.204  0.00  0.00    -0.001 A 
ATOM     25  C   UNL     1      -2.606 -10.333  12.747  0.00  0.00    +0.165 A 
ATOM     26  C   UNL     1      -5.001 -10.482  13.033  0.00  0.00    +0.007 A 
ATOM     27  C   UNL     1      -2.431 -10.504  14.120  0.00  0.00    +0.162 A 
ATOM     28  C   UNL     1      -4.825 -10.653  14.406  0.00  0.00    +0.004 A 
ATOM     29  C   UNL     1      -3.541 -10.664  14.950  0.00  0.00    +0.049 A 
BRANCH  25   3
ATOM      3  O   UNL     1      -1.519 -10.176  11.939  0.00  0.00    -0.491 OA
ATOM     30  C   UNL     1      -1.156  -8.841  11.596  0.00  0.00    +0.277 C 
ENDBRANCH  25   3
BRANCH  27   4
ATOM      4  O   UNL     1      -1.182 -10.516  14.665  0.00  0.00    -0.491 OA
ATOM     31  C   UNL     1      -1.095 -10.449  16.086  0.00  0.00    +0.277 C 
ENDBRANCH  27   4
ENDBRANCH  20  24
ENDBRANCH  17  20
ENDBRANCH   6  17
BRANCH  16  18
ATOM     18  C   UNL     1     -10.497  -9.959  14.457  0.00  0.00    +0.102 C 
BRANCH  18  19
ATOM     19  C   UNL     1      -9.536  -9.721  15.635  0.00  0.00    -0.029 C 
ATOM     21  C   UNL     1      -9.867 -10.648  16.817  0.00  0.00    +0.011 C 
ATOM     22  C   UNL     1      -9.585  -8.257  16.105  0.00  0.00    +0.011 C 
ATOM     23  C   UNL     1      -8.108 -10.035  15.151  0.00  0.00    +0.011 C 
ENDBRANCH  18  19
ENDBRANCH  16  18
TORSDOF 7
ENDMDL
