MODEL 1
REMARK VINA RESULT:      -2.3      0.000      0.000
REMARK  Name = 45783273
REMARK  8 active torsions:
REMARK  status: ('A' for Active; 'I' for Inactive)
REMARK    1  A    between atoms: O_2  and  C_27
REMARK    2  A    between atoms: O_2  and  C_28
REMARK    3  A    between atoms: N_3  and  C_12
REMARK    4  A    between atoms: N_6  and  C_26
REMARK    5  A    between atoms: C_8  and  C_13
REMARK    6  A    between atoms: C_12  and  C_14
REMARK    7  A    between atoms: C_17  and  C_18
REMARK    8  A    between atoms: C_26  and  C_27
REMARK                            x       y       z     vdW  Elec       q    Type
REMARK                         _______ _______ _______ _____ _____    ______ ____
ROOT
ATOM      1  O   UNL     1      -1.215   2.305  25.568  0.00  0.00    -0.336 OA
ATOM      4  N   UNL     1      -1.556   1.751  23.424  0.00  0.00    -0.190 NA
ATOM      5  N   UNL     1      -0.050   1.653  25.145  0.00  0.00    -0.056 NA
ATOM     13  C   UNL     1      -2.049   2.319  24.496  0.00  0.00    +0.245 A 
ATOM     17  C   UNL     1      -0.328   1.357  23.871  0.00  0.00    +0.202 A 
ENDROOT
BRANCH  17  18
ATOM      6  N   UNL     1       4.209   0.395  22.483  0.00  0.00    -0.327 N 
ATOM      7  N   UNL     1       2.402  -0.679  21.362  0.00  0.00    -0.240 NA
ATOM     18  C   UNL     1       0.598   0.668  23.019  0.00  0.00    +0.027 A 
ATOM     22  C   UNL     1       1.966   0.869  23.167  0.00  0.00    +0.055 A 
ATOM     23  C   UNL     1       0.131  -0.206  22.044  0.00  0.00    +0.031 A 
ATOM     24  C   UNL     1       2.818   0.178  22.321  0.00  0.00    +0.119 A 
ATOM     25  C   UNL     1       1.065  -0.849  21.248  0.00  0.00    +0.113 A 
ATOM     29  H   UNL     1       4.822  -0.119  21.859  0.00  0.00    +0.148 HD
BRANCH   6  26
ATOM     26  C   UNL     1       4.741   1.281  23.466  0.00  0.00    +0.131 C 
BRANCH  26  27
ATOM     27  C   UNL     1       5.720   0.538  24.359  0.00  0.00    +0.178 C 
BRANCH  27   2
ATOM      2  O   UNL     1       6.007  -0.734  23.793  0.00  0.00    -0.381 OA
ATOM     28  C   UNL     1       5.013  -1.691  24.130  0.00  0.00    +0.194 C 
ENDBRANCH  27   2
ENDBRANCH  26  27
ENDBRANCH   6  26
ENDBRANCH  17  18
BRANCH  13   8
ATOM      3  N   UNL     1      -4.321   2.152  25.498  0.00  0.00    -0.287 NA
ATOM      8  C   UNL     1      -3.397   2.980  24.698  0.00  0.00    +0.146 C 
ATOM      9  C   UNL     1      -3.297   4.310  25.466  0.00  0.00    +0.030 C 
ATOM     10  C   UNL     1      -4.246   4.159  26.647  0.00  0.00    +0.017 C 
ATOM     11  C   UNL     1      -5.211   3.081  26.195  0.00  0.00    +0.085 C 
BRANCH   3  12
ATOM     12  C   UNL     1      -5.059   1.181  24.701  0.00  0.00    +0.120 C 
BRANCH  12  14
ATOM     14  C   UNL     1      -4.442  -0.191  24.775  0.00  0.00    -0.033 A 
ATOM     15  C   UNL     1      -3.712  -0.567  25.903  0.00  0.00    +0.005 A 
ATOM     16  C   UNL     1      -4.600  -1.084  23.717  0.00  0.00    +0.005 A 
ATOM     19  C   UNL     1      -3.141  -1.838  25.971  0.00  0.00    +0.000 A 
ATOM     20  C   UNL     1      -4.029  -2.355  23.785  0.00  0.00    +0.000 A 
ATOM     21  C   UNL     1      -3.298  -2.732  24.913  0.00  0.00    +0.000 A 
ENDBRANCH  12  14
ENDBRANCH   3  12
ENDBRANCH  13   8
TORSDOF 7
ENDMDL
MODEL 2
REMARK VINA RESULT:      -0.4      2.206      4.368
REMARK  Name = 45783273
REMARK  8 active torsions:
REMARK  status: ('A' for Active; 'I' for Inactive)
REMARK    1  A    between atoms: O_2  and  C_27
REMARK    2  A    between atoms: O_2  and  C_28
REMARK    3  A    between atoms: N_3  and  C_12
REMARK    4  A    between atoms: N_6  and  C_26
REMARK    5  A    between atoms: C_8  and  C_13
REMARK    6  A    between atoms: C_12  and  C_14
REMARK    7  A    between atoms: C_17  and  C_18
REMARK    8  A    between atoms: C_26  and  C_27
REMARK                            x       y       z     vdW  Elec       q    Type
REMARK                         _______ _______ _______ _____ _____    ______ ____
ROOT
ATOM      1  O   UNL     1      -5.705   1.141  24.715  0.00  0.00    -0.336 OA
ATOM      4  N   UNL     1      -3.622   1.127  25.538  0.00  0.00    -0.190 NA
ATOM      5  N   UNL     1      -5.107  -0.032  24.239  0.00  0.00    -0.056 NA
ATOM     13  C   UNL     1      -4.763   1.765  25.469  0.00  0.00    +0.245 A 
ATOM     17  C   UNL     1      -3.881   0.030  24.768  0.00  0.00    +0.202 A 
ENDROOT
BRANCH  17  18
ATOM      6  N   UNL     1       0.633  -1.267  23.597  0.00  0.00    -0.327 N 
ATOM      7  N   UNL     1      -0.961  -2.959  24.113  0.00  0.00    -0.240 NA
ATOM     18  C   UNL     1      -2.891  -0.983  24.545  0.00  0.00    +0.027 A 
ATOM     22  C   UNL     1      -1.599  -0.628  24.176  0.00  0.00    +0.055 A 
ATOM     23  C   UNL     1      -3.219  -2.326  24.698  0.00  0.00    +0.031 A 
ATOM     24  C   UNL     1      -0.679  -1.645  23.974  0.00  0.00    +0.119 A 
ATOM     25  C   UNL     1      -2.228  -3.267  24.473  0.00  0.00    +0.113 A 
ATOM     29  H   UNL     1       1.298  -2.020  23.456  0.00  0.00    +0.148 HD
BRANCH   6  26
ATOM     26  C   UNL     1       1.024   0.094  23.425  0.00  0.00    +0.131 C 
BRANCH  26  27
ATOM     27  C   UNL     1       2.223   0.178  22.496  0.00  0.00    +0.178 C 
BRANCH  27   2
ATOM      2  O   UNL     1       3.162   1.109  23.017  0.00  0.00    -0.381 OA
ATOM     28  C   UNL     1       4.463   0.545  23.104  0.00  0.00    +0.194 C 
ENDBRANCH  27   2
ENDBRANCH  26  27
ENDBRANCH   6  26
ENDBRANCH  17  18
BRANCH  13   8
ATOM      3  N   UNL     1      -4.281   4.192  25.724  0.00  0.00    -0.287 NA
ATOM      8  C   UNL     1      -5.169   3.077  26.107  0.00  0.00    +0.146 C 
ATOM      9  C   UNL     1      -6.577   3.534  25.682  0.00  0.00    +0.030 C 
ATOM     10  C   UNL     1      -6.388   4.940  25.129  0.00  0.00    +0.017 C 
ATOM     11  C   UNL     1      -5.097   5.406  25.771  0.00  0.00    +0.085 C 
BRANCH   3  12
ATOM     12  C   UNL     1      -3.096   4.297  26.566  0.00  0.00    +0.120 C 
BRANCH  12  14
ATOM     14  C   UNL     1      -1.861   3.799  25.861  0.00  0.00    -0.033 A 
ATOM     15  C   UNL     1      -1.049   2.843  26.471  0.00  0.00    +0.005 A 
ATOM     16  C   UNL     1      -1.530   4.295  24.601  0.00  0.00    +0.005 A 
ATOM     19  C   UNL     1       0.094   2.382  25.817  0.00  0.00    +0.000 A 
ATOM     20  C   UNL     1      -0.388   3.833  23.948  0.00  0.00    +0.000 A 
ATOM     21  C   UNL     1       0.425   2.877  24.557  0.00  0.00    +0.000 A 
ENDBRANCH  12  14
ENDBRANCH   3  12
ENDBRANCH  13   8
TORSDOF 7
ENDMDL
MODEL 3
REMARK VINA RESULT:       0.6      1.396      3.599
REMARK  Name = 45783273
REMARK  8 active torsions:
REMARK  status: ('A' for Active; 'I' for Inactive)
REMARK    1  A    between atoms: O_2  and  C_27
REMARK    2  A    between atoms: O_2  and  C_28
REMARK    3  A    between atoms: N_3  and  C_12
REMARK    4  A    between atoms: N_6  and  C_26
REMARK    5  A    between atoms: C_8  and  C_13
REMARK    6  A    between atoms: C_12  and  C_14
REMARK    7  A    between atoms: C_17  and  C_18
REMARK    8  A    between atoms: C_26  and  C_27
REMARK                            x       y       z     vdW  Elec       q    Type
REMARK                         _______ _______ _______ _____ _____    ______ ____
ROOT
ATOM      1  O   UNL     1      -1.442  -0.180  26.083  0.00  0.00    -0.336 OA
ATOM      4  N   UNL     1      -1.767   0.419  23.949  0.00  0.00    -0.190 NA
ATOM      5  N   UNL     1      -0.231  -0.423  25.422  0.00  0.00    -0.056 NA
ATOM     13  C   UNL     1      -2.291   0.313  25.144  0.00  0.00    +0.245 A 
ATOM     17  C   UNL     1      -0.502  -0.044  24.169  0.00  0.00    +0.202 A 
ENDROOT
BRANCH  17  18
ATOM      6  N   UNL     1       3.997   0.651  22.522  0.00  0.00    -0.327 N 
ATOM      7  N   UNL     1       2.356  -0.267  21.059  0.00  0.00    -0.240 NA
ATOM     18  C   UNL     1       0.467  -0.118  23.114  0.00  0.00    +0.027 A 
ATOM     22  C   UNL     1       1.773   0.307  23.333  0.00  0.00    +0.055 A 
ATOM     23  C   UNL     1       0.106  -0.618  21.868  0.00  0.00    +0.031 A 
ATOM     24  C   UNL     1       2.671   0.212  22.283  0.00  0.00    +0.119 A 
ATOM     25  C   UNL     1       1.078  -0.670  20.882  0.00  0.00    +0.113 A 
ATOM     29  H   UNL     1       4.645   0.573  21.746  0.00  0.00    +0.148 HD
BRANCH   6  26
ATOM     26  C   UNL     1       4.421   1.172  23.780  0.00  0.00    +0.131 C 
BRANCH  26  27
ATOM     27  C   UNL     1       5.560   0.333  24.334  0.00  0.00    +0.178 C 
BRANCH  27   2
ATOM      2  O   UNL     1       5.707  -0.843  23.547  0.00  0.00    -0.381 OA
ATOM     28  C   UNL     1       4.836  -1.876  23.985  0.00  0.00    +0.194 C 
ENDBRANCH  27   2
ENDBRANCH  26  27
ENDBRANCH   6  26
ENDBRANCH  17  18
BRANCH  13   8
ATOM      3  N   UNL     1      -4.093   2.027  25.226  0.00  0.00    -0.287 NA
ATOM      8  C   UNL     1      -3.687   0.661  25.613  0.00  0.00    +0.146 C 
ATOM      9  C   UNL     1      -4.765  -0.254  25.004  0.00  0.00    +0.030 C 
ATOM     10  C   UNL     1      -5.764   0.689  24.348  0.00  0.00    +0.017 C 
ATOM     11  C   UNL     1      -5.548   2.001  25.077  0.00  0.00    +0.085 C 
BRANCH   3  12
ATOM     12  C   UNL     1      -3.659   3.045  26.174  0.00  0.00    +0.120 C 
BRANCH  12  14
ATOM     14  C   UNL     1      -2.472   3.820  25.662  0.00  0.00    -0.033 A 
ATOM     15  C   UNL     1      -2.632   5.139  25.239  0.00  0.00    +0.005 A 
ATOM     16  C   UNL     1      -1.217   3.217  25.610  0.00  0.00    +0.005 A 
ATOM     19  C   UNL     1      -1.533   5.857  24.766  0.00  0.00    +0.000 A 
ATOM     20  C   UNL     1      -0.118   3.934  25.136  0.00  0.00    +0.000 A 
ATOM     21  C   UNL     1      -0.277   5.254  24.713  0.00  0.00    +0.000 A 
ENDBRANCH  12  14
ENDBRANCH   3  12
ENDBRANCH  13   8
TORSDOF 7
ENDMDL
MODEL 4
REMARK VINA RESULT:       0.8      2.246      6.786
REMARK  Name = 45783273
REMARK  8 active torsions:
REMARK  status: ('A' for Active; 'I' for Inactive)
REMARK    1  A    between atoms: O_2  and  C_27
REMARK    2  A    between atoms: O_2  and  C_28
REMARK    3  A    between atoms: N_3  and  C_12
REMARK    4  A    between atoms: N_6  and  C_26
REMARK    5  A    between atoms: C_8  and  C_13
REMARK    6  A    between atoms: C_12  and  C_14
REMARK    7  A    between atoms: C_17  and  C_18
REMARK    8  A    between atoms: C_26  and  C_27
REMARK                            x       y       z     vdW  Elec       q    Type
REMARK                         _______ _______ _______ _____ _____    ______ ____
ROOT
ATOM      1  O   UNL     1       0.998   2.063  25.932  0.00  0.00    -0.336 OA
ATOM      4  N   UNL     1      -0.647   2.044  24.411  0.00  0.00    -0.190 NA
ATOM      5  N   UNL     1       0.056   3.005  26.365  0.00  0.00    -0.056 NA
ATOM     13  C   UNL     1       0.507   1.545  24.776  0.00  0.00    +0.245 A 
ATOM     17  C   UNL     1      -0.884   2.935  25.417  0.00  0.00    +0.202 A 
ENDROOT
BRANCH  17  18
ATOM      6  N   UNL     1      -5.693   3.351  25.779  0.00  0.00    -0.327 N 
ATOM      7  N   UNL     1      -4.378   5.318  25.500  0.00  0.00    -0.240 NA
ATOM     18  C   UNL     1      -2.069   3.743  25.444  0.00  0.00    +0.027 A 
ATOM     22  C   UNL     1      -3.316   3.148  25.600  0.00  0.00    +0.055 A 
ATOM     23  C   UNL     1      -1.975   5.124  25.317  0.00  0.00    +0.031 A 
ATOM     24  C   UNL     1      -4.429   3.972  25.622  0.00  0.00    +0.119 A 
ATOM     25  C   UNL     1      -3.149   5.860  25.351  0.00  0.00    +0.113 A 
ATOM     29  H   UNL     1      -6.500   3.966  25.796  0.00  0.00    +0.148 HD
BRANCH   6  26
ATOM     26  C   UNL     1      -5.846   1.939  25.913  0.00  0.00    +0.131 C 
BRANCH  26  27
ATOM     27  C   UNL     1      -5.925   1.292  24.540  0.00  0.00    +0.178 C 
BRANCH  27   2
ATOM      2  O   UNL     1      -4.805   0.436  24.355  0.00  0.00    -0.381 OA
ATOM     28  C   UNL     1      -3.855   1.005  23.465  0.00  0.00    +0.194 C 
ENDBRANCH  27   2
ENDBRANCH  26  27
ENDBRANCH   6  26
ENDBRANCH  17  18
BRANCH  13   8
ATOM      3  N   UNL     1       0.550  -0.639  23.585  0.00  0.00    -0.287 NA
ATOM      8  C   UNL     1       1.353   0.488  24.098  0.00  0.00    +0.146 C 
ATOM      9  C   UNL     1       2.104   1.027  22.867  0.00  0.00    +0.030 C 
ATOM     10  C   UNL     1       1.707   0.103  21.724  0.00  0.00    +0.017 C 
ATOM     11  C   UNL     1       1.270  -1.168  22.426  0.00  0.00    +0.085 C 
BRANCH   3  12
ATOM     12  C   UNL     1       0.296  -1.667  24.586  0.00  0.00    +0.120 C 
BRANCH  12  14
ATOM     14  C   UNL     1      -1.170  -1.784  24.911  0.00  0.00    -0.033 A 
ATOM     15  C   UNL     1      -1.717  -1.030  25.949  0.00  0.00    +0.005 A 
ATOM     16  C   UNL     1      -1.980  -2.647  24.175  0.00  0.00    +0.005 A 
ATOM     19  C   UNL     1      -3.074  -1.138  26.249  0.00  0.00    +0.000 A 
ATOM     20  C   UNL     1      -3.338  -2.755  24.474  0.00  0.00    +0.000 A 
ATOM     21  C   UNL     1      -3.885  -2.001  25.513  0.00  0.00    +0.000 A 
ENDBRANCH  12  14
ENDBRANCH   3  12
ENDBRANCH  13   8
TORSDOF 7
ENDMDL
MODEL 5
REMARK VINA RESULT:       1.2      2.236      7.511
REMARK  Name = 45783273
REMARK  8 active torsions:
REMARK  status: ('A' for Active; 'I' for Inactive)
REMARK    1  A    between atoms: O_2  and  C_27
REMARK    2  A    between atoms: O_2  and  C_28
REMARK    3  A    between atoms: N_3  and  C_12
REMARK    4  A    between atoms: N_6  and  C_26
REMARK    5  A    between atoms: C_8  and  C_13
REMARK    6  A    between atoms: C_12  and  C_14
REMARK    7  A    between atoms: C_17  and  C_18
REMARK    8  A    between atoms: C_26  and  C_27
REMARK                            x       y       z     vdW  Elec       q    Type
REMARK                         _______ _______ _______ _____ _____    ______ ____
ROOT
ATOM      1  O   UNL     1       1.131  -1.342  24.443  0.00  0.00    -0.336 OA
ATOM      4  N   UNL     1      -0.434  -0.386  23.157  0.00  0.00    -0.190 NA
ATOM      5  N   UNL     1      -0.100  -1.830  24.900  0.00  0.00    -0.056 NA
ATOM     13  C   UNL     1       0.844  -0.499  23.418  0.00  0.00    +0.245 A 
ATOM     17  C   UNL     1      -0.973  -1.222  24.092  0.00  0.00    +0.202 A 
ENDROOT
BRANCH  17  18
ATOM      6  N   UNL     1      -5.432   0.499  24.862  0.00  0.00    -0.327 N 
ATOM      7  N   UNL     1      -5.150  -1.819  24.387  0.00  0.00    -0.240 NA
ATOM     18  C   UNL     1      -2.390  -1.424  24.193  0.00  0.00    +0.027 A 
ATOM     22  C   UNL     1      -3.229  -0.354  24.481  0.00  0.00    +0.055 A 
ATOM     23  C   UNL     1      -2.929  -2.691  24.002  0.00  0.00    +0.031 A 
ATOM     24  C   UNL     1      -4.590  -0.602  24.566  0.00  0.00    +0.119 A 
ATOM     25  C   UNL     1      -4.303  -2.835  24.109  0.00  0.00    +0.113 A 
ATOM     29  H   UNL     1      -6.426   0.305  24.918  0.00  0.00    +0.148 HD
BRANCH   6  26
ATOM     26  C   UNL     1      -4.931   1.819  25.069  0.00  0.00    +0.131 C 
BRANCH  26  27
ATOM     27  C   UNL     1      -5.819   2.563  26.051  0.00  0.00    +0.178 C 
BRANCH  27   2
ATOM      2  O   UNL     1      -5.810   3.951  25.741  0.00  0.00    -0.381 OA
ATOM     28  C   UNL     1      -4.695   4.296  24.930  0.00  0.00    +0.194 C 
ENDBRANCH  27   2
ENDBRANCH  26  27
ENDBRANCH   6  26
ENDBRANCH  17  18
BRANCH  13   8
ATOM      3  N   UNL     1       2.511   1.347  23.487  0.00  0.00    -0.287 NA
ATOM      8  C   UNL     1       2.023   0.169  22.743  0.00  0.00    +0.146 C 
ATOM      9  C   UNL     1       3.247  -0.758  22.631  0.00  0.00    +0.030 C 
ATOM     10  C   UNL     1       4.388   0.009  23.286  0.00  0.00    +0.017 C 
ATOM     11  C   UNL     1       3.942   1.455  23.200  0.00  0.00    +0.085 C 
BRANCH   3  12
ATOM     12  C   UNL     1       1.793   2.572  23.159  0.00  0.00    +0.120 C 
BRANCH  12  14
ATOM     14  C   UNL     1       0.685   2.853  24.140  0.00  0.00    -0.033 A 
ATOM     15  C   UNL     1      -0.153   3.952  23.948  0.00  0.00    +0.005 A 
ATOM     16  C   UNL     1       0.498   2.016  25.238  0.00  0.00    +0.005 A 
ATOM     19  C   UNL     1      -1.179   4.212  24.856  0.00  0.00    +0.000 A 
ATOM     20  C   UNL     1      -0.529   2.276  26.146  0.00  0.00    +0.000 A 
ATOM     21  C   UNL     1      -1.367   3.375  25.956  0.00  0.00    +0.000 A 
ENDBRANCH  12  14
ENDBRANCH   3  12
ENDBRANCH  13   8
TORSDOF 7
ENDMDL
