MODEL 1
REMARK VINA RESULT:       7.3      0.000      0.000
REMARK  Name = 11867244
REMARK  7 active torsions:
REMARK  status: ('A' for Active; 'I' for Inactive)
REMARK    1  A    between atoms: S_1  and  N_9
REMARK    2  A    between atoms: S_1  and  C_29
REMARK    3  A    between atoms: N_7  and  C_18
REMARK    4  A    between atoms: N_9  and  C_21
REMARK    5  A    between atoms: N_10  and  C_34
REMARK    6  A    between atoms: C_18  and  C_23
REMARK    7  A    between atoms: C_35  and  C_36
REMARK                            x       y       z     vdW  Elec       q    Type
REMARK                         _______ _______ _______ _____ _____    ______ ____
ROOT
ATOM      3  O   UNL     1      -4.217   4.221  23.436  0.00  0.00    -0.266 OA
ATOM      7  N   UNL     1       0.020   1.569  23.876  0.00  0.00    -0.297 NA
ATOM      8  N   UNL     1      -2.211   3.745  24.549  0.00  0.00    -0.310 N 
ATOM     11  C   UNL     1       0.095   4.042  23.474  0.00  0.00    +0.024 C 
ATOM     12  C   UNL     1      -0.075   3.198  25.768  0.00  0.00    +0.050 C 
ATOM     13  C   UNL     1       0.566   4.280  24.903  0.00  0.00    +0.017 C 
ATOM     14  C   UNL     1       0.523   2.637  23.003  0.00  0.00    +0.090 C 
ATOM     15  C   UNL     1       0.386   1.806  25.281  0.00  0.00    +0.094 C 
ATOM     16  C   UNL     1      -1.425   4.246  23.414  0.00  0.00    +0.130 C 
ATOM     17  C   UNL     1      -1.590   3.301  25.724  0.00  0.00    +0.026 A 
ATOM     19  C   UNL     1      -2.325   2.950  26.794  0.00  0.00    +0.024 A 
ATOM     20  C   UNL     1      -3.615   3.827  24.434  0.00  0.00    +0.274 A 
ATOM     21  C   UNL     1      -4.373   3.405  25.639  0.00  0.00    +0.112 A 
ATOM     22  C   UNL     1      -3.762   3.002  26.755  0.00  0.00    +0.031 A 
ENDROOT
BRANCH  21   9
ATOM      9  N   UNL     1      -5.779   3.438  25.638  0.00  0.00    -0.211 N 
ATOM     37  H   UNL     1      -6.163   4.059  26.365  0.00  0.00    +0.174 HD
BRANCH   9   1
ATOM      1  S   UNL     1      -6.583   1.958  25.480  0.00  0.00    +0.072 S 
ATOM      4  O   UNL     1      -7.212   1.605  26.738  0.00  0.00    -0.150 OA
ATOM      5  O   UNL     1      -7.354   1.950  24.250  0.00  0.00    -0.150 OA
BRANCH   1  29
ATOM     29  C   UNL     1      -5.213   0.862  25.250  0.00  0.00    +0.109 A 
ATOM     30  C   UNL     1      -4.546   0.860  24.037  0.00  0.00    +0.030 A 
ATOM     31  C   UNL     1      -4.835   0.029  26.287  0.00  0.00    +0.030 A 
ATOM     32  C   UNL     1      -3.466  -0.003  23.857  0.00  0.00    +0.025 A 
ATOM     33  C   UNL     1      -3.755  -0.834  26.107  0.00  0.00    +0.025 A 
ATOM     34  C   UNL     1      -3.071  -0.851  24.891  0.00  0.00    +0.033 A 
BRANCH  34  10
ATOM      6  O   UNL     1      -0.545  -1.178  26.497  0.00  0.00    -0.276 OA
ATOM     10  N   UNL     1      -1.989  -1.714  24.712  0.00  0.00    -0.286 N 
ATOM     35  C   UNL     1      -0.831  -1.822  25.494  0.00  0.00    +0.214 C 
ATOM     36  C   UNL     1       0.104  -2.881  24.964  0.00  0.00    +0.109 C 
ATOM     38  H   UNL     1      -2.058  -2.337  23.911  0.00  0.00    +0.155 HD
ENDBRANCH  34  10
ENDBRANCH   1  29
ENDBRANCH   9   1
ENDBRANCH  21   9
BRANCH   7  18
ATOM     18  C   UNL     1       0.489   0.261  23.427  0.00  0.00    +0.119 C 
BRANCH  18  23
ATOM      2  F   UNL     1       6.095   0.056  23.074  0.00  0.00    -0.205 F 
ATOM     23  C   UNL     1       1.991   0.205  23.331  0.00  0.00    -0.033 A 
ATOM     24  C   UNL     1       2.689   1.321  22.889  0.00  0.00    +0.008 A 
ATOM     25  C   UNL     1       2.656  -0.959  23.689  0.00  0.00    +0.008 A 
ATOM     26  C   UNL     1       4.080   1.270  22.801  0.00  0.00    +0.038 A 
ATOM     27  C   UNL     1       4.047  -1.010  23.601  0.00  0.00    +0.038 A 
ATOM     28  C   UNL     1       4.759   0.104  23.157  0.00  0.00    +0.123 A 
ENDBRANCH  18  23
ENDBRANCH   7  18
TORSDOF 6
ENDMDL
MODEL 2
REMARK VINA RESULT:       8.5      3.003      4.735
REMARK  Name = 11867244
REMARK  7 active torsions:
REMARK  status: ('A' for Active; 'I' for Inactive)
REMARK    1  A    between atoms: S_1  and  N_9
REMARK    2  A    between atoms: S_1  and  C_29
REMARK    3  A    between atoms: N_7  and  C_18
REMARK    4  A    between atoms: N_9  and  C_21
REMARK    5  A    between atoms: N_10  and  C_34
REMARK    6  A    between atoms: C_18  and  C_23
REMARK    7  A    between atoms: C_35  and  C_36
REMARK                            x       y       z     vdW  Elec       q    Type
REMARK                         _______ _______ _______ _____ _____    ______ ____
ROOT
ATOM      3  O   UNL     1      -3.494   0.399  22.419  0.00  0.00    -0.266 OA
ATOM      7  N   UNL     1      -0.523   3.362  25.171  0.00  0.00    -0.297 NA
ATOM      8  N   UNL     1      -3.207   2.050  24.056  0.00  0.00    -0.310 N 
ATOM     11  C   UNL     1      -2.180   4.346  23.568  0.00  0.00    +0.024 C 
ATOM     12  C   UNL     1      -2.890   3.793  25.847  0.00  0.00    +0.050 C 
ATOM     13  C   UNL     1      -3.050   4.816  24.726  0.00  0.00    +0.017 C 
ATOM     14  C   UNL     1      -0.707   4.252  24.017  0.00  0.00    +0.090 C 
ATOM     15  C   UNL     1      -1.408   3.735  26.284  0.00  0.00    +0.094 C 
ATOM     16  C   UNL     1      -2.725   3.008  23.051  0.00  0.00    +0.130 C 
ATOM     17  C   UNL     1      -3.364   2.422  25.398  0.00  0.00    +0.026 A 
ATOM     19  C   UNL     1      -3.910   1.569  26.283  0.00  0.00    +0.024 A 
ATOM     20  C   UNL     1      -3.594   0.778  23.585  0.00  0.00    +0.274 A 
ATOM     21  C   UNL     1      -4.168  -0.127  24.612  0.00  0.00    +0.112 A 
ATOM     22  C   UNL     1      -4.326   0.252  25.882  0.00  0.00    +0.031 A 
ENDROOT
BRANCH  21   9
ATOM      9  N   UNL     1      -4.583  -1.424  24.261  0.00  0.00    -0.211 N 
ATOM     37  H   UNL     1      -5.559  -1.616  24.529  0.00  0.00    +0.174 HD
BRANCH   9   1
ATOM      1  S   UNL     1      -3.505  -2.689  24.574  0.00  0.00    +0.072 S 
ATOM      4  O   UNL     1      -3.569  -3.051  25.977  0.00  0.00    -0.150 OA
ATOM      5  O   UNL     1      -3.636  -3.708  23.549  0.00  0.00    -0.150 OA
BRANCH   1  29
ATOM     29  C   UNL     1      -1.956  -1.873  24.311  0.00  0.00    +0.109 A 
ATOM     30  C   UNL     1      -1.302  -2.040  23.103  0.00  0.00    +0.030 A 
ATOM     31  C   UNL     1      -1.431  -1.085  25.318  0.00  0.00    +0.030 A 
ATOM     32  C   UNL     1      -0.083  -1.397  22.896  0.00  0.00    +0.025 A 
ATOM     33  C   UNL     1      -0.211  -0.442  25.111  0.00  0.00    +0.025 A 
ATOM     34  C   UNL     1       0.463  -0.598  23.900  0.00  0.00    +0.033 A 
BRANCH  34  10
ATOM      6  O   UNL     1       2.068  -0.214  21.381  0.00  0.00    -0.276 OA
ATOM     10  N   UNL     1       1.683   0.047  23.693  0.00  0.00    -0.286 N 
ATOM     35  C   UNL     1       2.390   0.194  22.491  0.00  0.00    +0.214 C 
ATOM     36  C   UNL     1       3.675   0.960  22.689  0.00  0.00    +0.109 C 
ATOM     38  H   UNL     1       2.105   0.457  24.523  0.00  0.00    +0.155 HD
ENDBRANCH  34  10
ENDBRANCH   1  29
ENDBRANCH   9   1
ENDBRANCH  21   9
BRANCH   7  18
ATOM     18  C   UNL     1       0.874   3.341  25.598  0.00  0.00    +0.119 C 
BRANCH  18  23
ATOM      2  F   UNL     1       1.393   1.914  31.009  0.00  0.00    -0.205 F 
ATOM     23  C   UNL     1       1.012   2.960  27.048  0.00  0.00    -0.033 A 
ATOM     24  C   UNL     1      -0.006   2.248  27.668  0.00  0.00    +0.008 A 
ATOM     25  C   UNL     1       2.157   3.323  27.743  0.00  0.00    +0.008 A 
ATOM     26  C   UNL     1       0.124   1.894  29.010  0.00  0.00    +0.038 A 
ATOM     27  C   UNL     1       2.285   2.970  29.086  0.00  0.00    +0.038 A 
ATOM     28  C   UNL     1       1.269   2.255  29.720  0.00  0.00    +0.123 A 
ENDBRANCH  18  23
ENDBRANCH   7  18
TORSDOF 6
ENDMDL
MODEL 3
REMARK VINA RESULT:       8.8      3.773      7.573
REMARK  Name = 11867244
REMARK  7 active torsions:
REMARK  status: ('A' for Active; 'I' for Inactive)
REMARK    1  A    between atoms: S_1  and  N_9
REMARK    2  A    between atoms: S_1  and  C_29
REMARK    3  A    between atoms: N_7  and  C_18
REMARK    4  A    between atoms: N_9  and  C_21
REMARK    5  A    between atoms: N_10  and  C_34
REMARK    6  A    between atoms: C_18  and  C_23
REMARK    7  A    between atoms: C_35  and  C_36
REMARK                            x       y       z     vdW  Elec       q    Type
REMARK                         _______ _______ _______ _____ _____    ______ ____
ROOT
ATOM      3  O   UNL     1       0.511   2.653  25.897  0.00  0.00    -0.266 OA
ATOM      7  N   UNL     1      -4.391   1.745  25.317  0.00  0.00    -0.297 NA
ATOM      8  N   UNL     1      -1.538   3.090  24.847  0.00  0.00    -0.310 N 
ATOM     11  C   UNL     1      -3.589   3.991  26.090  0.00  0.00    +0.024 C 
ATOM     12  C   UNL     1      -3.733   3.524  23.690  0.00  0.00    +0.050 C 
ATOM     13  C   UNL     1      -3.950   4.605  24.744  0.00  0.00    +0.017 C 
ATOM     14  C   UNL     1      -4.483   2.765  26.369  0.00  0.00    +0.090 C 
ATOM     15  C   UNL     1      -4.654   2.319  23.988  0.00  0.00    +0.094 C 
ATOM     16  C   UNL     1      -2.094   3.642  26.090  0.00  0.00    +0.130 C 
ATOM     17  C   UNL     1      -2.279   3.086  23.658  0.00  0.00    +0.026 A 
ATOM     19  C   UNL     1      -1.717   2.680  22.505  0.00  0.00    +0.024 A 
ATOM     20  C   UNL     1      -0.195   2.659  24.889  0.00  0.00    +0.274 A 
ATOM     21  C   UNL     1       0.362   2.202  23.592  0.00  0.00    +0.112 A 
ATOM     22  C   UNL     1      -0.354   2.222  22.466  0.00  0.00    +0.031 A 
ENDROOT
BRANCH  21   9
ATOM      9  N   UNL     1       1.690   1.744  23.513  0.00  0.00    -0.211 N 
ATOM     37  H   UNL     1       2.319   2.423  23.061  0.00  0.00    +0.174 HD
BRANCH   9   1
ATOM      1  S   UNL     1       1.923   0.139  23.033  0.00  0.00    +0.072 S 
ATOM      4  O   UNL     1       1.198  -0.748  23.923  0.00  0.00    -0.150 OA
ATOM      5  O   UNL     1       1.755   0.030  21.596  0.00  0.00    -0.150 OA
BRANCH   1  29
ATOM     29  C   UNL     1       3.647  -0.061  23.380  0.00  0.00    +0.109 A 
ATOM     30  C   UNL     1       4.500   1.014  23.202  0.00  0.00    +0.030 A 
ATOM     31  C   UNL     1       4.107  -1.288  23.822  0.00  0.00    +0.030 A 
ATOM     32  C   UNL     1       5.858   0.857  23.476  0.00  0.00    +0.025 A 
ATOM     33  C   UNL     1       5.466  -1.444  24.096  0.00  0.00    +0.025 A 
ATOM     34  C   UNL     1       6.341  -0.373  23.922  0.00  0.00    +0.033 A 
BRANCH  34  10
ATOM      6  O   UNL     1       8.761   0.261  22.246  0.00  0.00    -0.276 OA
ATOM     10  N   UNL     1       7.700  -0.530  24.198  0.00  0.00    -0.286 N 
ATOM     35  C   UNL     1       8.791  -0.219  23.374  0.00  0.00    +0.214 C 
ATOM     36  C   UNL     1      10.105  -0.541  24.041  0.00  0.00    +0.109 C 
ATOM     38  H   UNL     1       7.916  -0.922  25.111  0.00  0.00    +0.155 HD
ENDBRANCH  34  10
ENDBRANCH   1  29
ENDBRANCH   9   1
ENDBRANCH  21   9
BRANCH   7  18
ATOM     18  C   UNL     1      -5.289   0.627  25.591  0.00  0.00    +0.119 C 
BRANCH  18  23
ATOM      2  F   UNL     1      -3.053  -4.285  24.020  0.00  0.00    -0.205 F 
ATOM     23  C   UNL     1      -4.692  -0.690  25.170  0.00  0.00    -0.033 A 
ATOM     24  C   UNL     1      -5.043  -1.239  23.945  0.00  0.00    +0.008 A 
ATOM     25  C   UNL     1      -3.796  -1.333  26.013  0.00  0.00    +0.008 A 
ATOM     26  C   UNL     1      -4.487  -2.458  23.556  0.00  0.00    +0.038 A 
ATOM     27  C   UNL     1      -3.242  -2.552  25.624  0.00  0.00    +0.038 A 
ATOM     28  C   UNL     1      -3.587  -3.115  24.395  0.00  0.00    +0.123 A 
ENDBRANCH  18  23
ENDBRANCH   7  18
TORSDOF 6
ENDMDL
MODEL 4
REMARK VINA RESULT:       9.4      2.028      4.707
REMARK  Name = 11867244
REMARK  7 active torsions:
REMARK  status: ('A' for Active; 'I' for Inactive)
REMARK    1  A    between atoms: S_1  and  N_9
REMARK    2  A    between atoms: S_1  and  C_29
REMARK    3  A    between atoms: N_7  and  C_18
REMARK    4  A    between atoms: N_9  and  C_21
REMARK    5  A    between atoms: N_10  and  C_34
REMARK    6  A    between atoms: C_18  and  C_23
REMARK    7  A    between atoms: C_35  and  C_36
REMARK                            x       y       z     vdW  Elec       q    Type
REMARK                         _______ _______ _______ _____ _____    ______ ____
ROOT
ATOM      3  O   UNL     1      -5.009   0.843  26.537  0.00  0.00    -0.266 OA
ATOM      7  N   UNL     1      -1.071  -1.895  25.061  0.00  0.00    -0.297 NA
ATOM      8  N   UNL     1      -3.949  -0.525  24.958  0.00  0.00    -0.310 N 
ATOM     11  C   UNL     1      -3.310  -2.964  25.417  0.00  0.00    +0.024 C 
ATOM     12  C   UNL     1      -2.785  -1.960  23.245  0.00  0.00    +0.050 C 
ATOM     13  C   UNL     1      -3.487  -3.138  23.914  0.00  0.00    +0.017 C 
ATOM     14  C   UNL     1      -1.809  -2.945  25.774  0.00  0.00    +0.090 C 
ATOM     15  C   UNL     1      -1.283  -1.980  23.608  0.00  0.00    +0.094 C 
ATOM     16  C   UNL     1      -4.036  -1.685  25.856  0.00  0.00    +0.130 C 
ATOM     17  C   UNL     1      -3.416  -0.645  23.667  0.00  0.00    +0.026 A 
ATOM     19  C   UNL     1      -3.444   0.399  22.818  0.00  0.00    +0.024 A 
ATOM     20  C   UNL     1      -4.514   0.681  25.422  0.00  0.00    +0.274 A 
ATOM     21  C   UNL     1      -4.496   1.802  24.449  0.00  0.00    +0.112 A 
ATOM     22  C   UNL     1      -4.000   1.663  23.218  0.00  0.00    +0.031 A 
ENDROOT
BRANCH  21   9
ATOM      9  N   UNL     1      -5.027   3.055  24.803  0.00  0.00    -0.211 N 
ATOM     37  H   UNL     1      -6.001   3.177  24.492  0.00  0.00    +0.174 HD
BRANCH   9   1
ATOM      1  S   UNL     1      -4.036   4.406  24.564  0.00  0.00    +0.072 S 
ATOM      4  O   UNL     1      -3.758   4.564  23.149  0.00  0.00    -0.150 OA
ATOM      5  O   UNL     1      -4.540   5.524  25.339  0.00  0.00    -0.150 OA
BRANCH   1  29
ATOM     29  C   UNL     1      -2.542   3.859  25.337  0.00  0.00    +0.109 A 
ATOM     30  C   UNL     1      -1.386   3.763  24.580  0.00  0.00    +0.030 A 
ATOM     31  C   UNL     1      -2.557   3.537  26.682  0.00  0.00    +0.030 A 
ATOM     32  C   UNL     1      -0.209   3.333  25.190  0.00  0.00    +0.025 A 
ATOM     33  C   UNL     1      -1.379   3.107  27.291  0.00  0.00    +0.025 A 
ATOM     34  C   UNL     1      -0.205   3.004  26.545  0.00  0.00    +0.033 A 
BRANCH  34  10
ATOM      6  O   UNL     1       0.548   2.864  29.457  0.00  0.00    -0.276 OA
ATOM     10  N   UNL     1       0.974   2.574  27.156  0.00  0.00    -0.286 N 
ATOM     35  C   UNL     1       1.272   2.532  28.525  0.00  0.00    +0.214 C 
ATOM     36  C   UNL     1       2.661   2.002  28.778  0.00  0.00    +0.109 C 
ATOM     38  H   UNL     1       1.701   2.254  26.521  0.00  0.00    +0.155 HD
ENDBRANCH  34  10
ENDBRANCH   1  29
ENDBRANCH   9   1
ENDBRANCH  21   9
BRANCH   7  18
ATOM     18  C   UNL     1       0.353  -1.944  25.385  0.00  0.00    +0.119 C 
BRANCH  18  23
ATOM      2  F   UNL     1       3.449   0.942  21.687  0.00  0.00    -0.205 F 
ATOM     23  C   UNL     1       1.182  -1.172  24.393  0.00  0.00    -0.033 A 
ATOM     24  C   UNL     1       0.642  -0.050  23.778  0.00  0.00    +0.008 A 
ATOM     25  C   UNL     1       2.474  -1.591  24.111  0.00  0.00    +0.008 A 
ATOM     26  C   UNL     1       1.411   0.665  22.861  0.00  0.00    +0.038 A 
ATOM     27  C   UNL     1       3.243  -0.874  23.193  0.00  0.00    +0.038 A 
ATOM     28  C   UNL     1       2.711   0.254  22.568  0.00  0.00    +0.123 A 
ENDBRANCH  18  23
ENDBRANCH   7  18
TORSDOF 6
ENDMDL
MODEL 5
REMARK VINA RESULT:      10.3      1.865      4.346
REMARK  Name = 11867244
REMARK  7 active torsions:
REMARK  status: ('A' for Active; 'I' for Inactive)
REMARK    1  A    between atoms: S_1  and  N_9
REMARK    2  A    between atoms: S_1  and  C_29
REMARK    3  A    between atoms: N_7  and  C_18
REMARK    4  A    between atoms: N_9  and  C_21
REMARK    5  A    between atoms: N_10  and  C_34
REMARK    6  A    between atoms: C_18  and  C_23
REMARK    7  A    between atoms: C_35  and  C_36
REMARK                            x       y       z     vdW  Elec       q    Type
REMARK                         _______ _______ _______ _____ _____    ______ ____
ROOT
ATOM      3  O   UNL     1      -2.855   1.415  26.447  0.00  0.00    -0.266 OA
ATOM      7  N   UNL     1       0.259  -0.880  23.250  0.00  0.00    -0.297 NA
ATOM      8  N   UNL     1      -2.241  -0.461  25.185  0.00  0.00    -0.310 N 
ATOM     11  C   UNL     1      -0.068  -1.763  25.573  0.00  0.00    +0.024 C 
ATOM     12  C   UNL     1      -1.599  -2.459  23.792  0.00  0.00    +0.050 C 
ATOM     13  C   UNL     1      -0.857  -2.948  25.032  0.00  0.00    +0.017 C 
ATOM     14  C   UNL     1       0.923  -1.255  24.506  0.00  0.00    +0.090 C 
ATOM     15  C   UNL     1      -0.579  -1.974  22.737  0.00  0.00    +0.094 C 
ATOM     16  C   UNL     1      -1.055  -0.678  26.026  0.00  0.00    +0.130 C 
ATOM     17  C   UNL     1      -2.566  -1.344  24.147  0.00  0.00    +0.026 A 
ATOM     19  C   UNL     1      -3.713  -1.195  23.460  0.00  0.00    +0.024 A 
ATOM     20  C   UNL     1      -3.080   0.617  25.538  0.00  0.00    +0.274 A 
ATOM     21  C   UNL     1      -4.318   0.743  24.729  0.00  0.00    +0.112 A 
ATOM     22  C   UNL     1      -4.620  -0.119  23.756  0.00  0.00    +0.031 A 
ENDROOT
BRANCH  21   9
ATOM      9  N   UNL     1      -5.228   1.784  24.986  0.00  0.00    -0.211 N 
ATOM     37  H   UNL     1      -6.192   1.548  24.707  0.00  0.00    +0.174 HD
BRANCH   9   1
ATOM      1  S   UNL     1      -4.740   3.352  24.578  0.00  0.00    +0.072 S 
ATOM      4  O   UNL     1      -4.647   3.475  23.136  0.00  0.00    -0.150 OA
ATOM      5  O   UNL     1      -5.504   4.317  25.347  0.00  0.00    -0.150 OA
BRANCH   1  29
ATOM     29  C   UNL     1      -3.089   3.358  25.215  0.00  0.00    +0.109 A 
ATOM     30  C   UNL     1      -2.872   3.752  26.523  0.00  0.00    +0.030 A 
ATOM     31  C   UNL     1      -2.048   2.968  24.391  0.00  0.00    +0.030 A 
ATOM     32  C   UNL     1      -1.571   3.756  27.024  0.00  0.00    +0.025 A 
ATOM     33  C   UNL     1      -0.747   2.972  24.894  0.00  0.00    +0.025 A 
ATOM     34  C   UNL     1      -0.508   3.367  26.210  0.00  0.00    +0.033 A 
BRANCH  34  10
ATOM      6  O   UNL     1       0.599   2.247  28.776  0.00  0.00    -0.276 OA
ATOM     10  N   UNL     1       0.794   3.370  26.711  0.00  0.00    -0.286 N 
ATOM     35  C   UNL     1       1.255   2.832  27.921  0.00  0.00    +0.214 C 
ATOM     36  C   UNL     1       2.738   3.043  28.097  0.00  0.00    +0.109 C 
ATOM     38  H   UNL     1       1.487   3.821  26.120  0.00  0.00    +0.155 HD
ENDBRANCH  34  10
ENDBRANCH   1  29
ENDBRANCH   9   1
ENDBRANCH  21   9
BRANCH   7  18
ATOM     18  C   UNL     1       1.235  -0.455  22.250  0.00  0.00    +0.119 C 
BRANCH  18  23
ATOM      2  F   UNL     1       6.426  -0.127  24.380  0.00  0.00    -0.205 F 
ATOM     23  C   UNL     1       2.625  -0.367  22.822  0.00  0.00    -0.033 A 
ATOM     24  C   UNL     1       3.207  -1.497  23.380  0.00  0.00    +0.008 A 
ATOM     25  C   UNL     1       3.305   0.842  22.780  0.00  0.00    +0.008 A 
ATOM     26  C   UNL     1       4.495  -1.415  23.908  0.00  0.00    +0.038 A 
ATOM     27  C   UNL     1       4.593   0.923  23.309  0.00  0.00    +0.038 A 
ATOM     28  C   UNL     1       5.188  -0.205  23.873  0.00  0.00    +0.123 A 
ENDBRANCH  18  23
ENDBRANCH   7  18
TORSDOF 6
ENDMDL
MODEL 6
REMARK VINA RESULT:      10.4      3.606      7.403
REMARK  Name = 11867244
REMARK  7 active torsions:
REMARK  status: ('A' for Active; 'I' for Inactive)
REMARK    1  A    between atoms: S_1  and  N_9
REMARK    2  A    between atoms: S_1  and  C_29
REMARK    3  A    between atoms: N_7  and  C_18
REMARK    4  A    between atoms: N_9  and  C_21
REMARK    5  A    between atoms: N_10  and  C_34
REMARK    6  A    between atoms: C_18  and  C_23
REMARK    7  A    between atoms: C_35  and  C_36
REMARK                            x       y       z     vdW  Elec       q    Type
REMARK                         _______ _______ _______ _____ _____    ______ ____
ROOT
ATOM      3  O   UNL     1      -0.242  -1.035  22.191  0.00  0.00    -0.266 OA
ATOM      7  N   UNL     1      -4.114  -0.462  25.332  0.00  0.00    -0.297 NA
ATOM      8  N   UNL     1      -1.622  -1.847  23.902  0.00  0.00    -0.310 N 
ATOM     11  C   UNL     1      -4.131  -2.272  23.598  0.00  0.00    +0.024 C 
ATOM     12  C   UNL     1      -3.082  -2.695  25.771  0.00  0.00    +0.050 C 
ATOM     13  C   UNL     1      -3.930  -3.331  24.674  0.00  0.00    +0.017 C 
ATOM     14  C   UNL     1      -4.841  -1.039  24.195  0.00  0.00    +0.090 C 
ATOM     15  C   UNL     1      -3.828  -1.476  26.359  0.00  0.00    +0.094 C 
ATOM     16  C   UNL     1      -2.767  -1.926  22.984  0.00  0.00    +0.130 C 
ATOM     17  C   UNL     1      -1.726  -2.277  25.231  0.00  0.00    +0.026 A 
ATOM     19  C   UNL     1      -0.641  -2.302  26.026  0.00  0.00    +0.024 A 
ATOM     20  C   UNL     1      -0.398  -1.411  23.353  0.00  0.00    +0.274 A 
ATOM     21  C   UNL     1       0.757  -1.439  24.284  0.00  0.00    +0.112 A 
ATOM     22  C   UNL     1       0.642  -1.870  25.542  0.00  0.00    +0.031 A 
ENDROOT
BRANCH  21   9
ATOM      9  N   UNL     1       2.028  -1.021  23.850  0.00  0.00    -0.211 N 
ATOM     37  H   UNL     1       2.752  -1.132  24.574  0.00  0.00    +0.174 HD
BRANCH   9   1
ATOM      1  S   UNL     1       2.107   0.434  22.990  0.00  0.00    +0.072 S 
ATOM      4  O   UNL     1       3.409   1.044  23.182  0.00  0.00    -0.150 OA
ATOM      5  O   UNL     1       1.580   0.240  21.652  0.00  0.00    -0.150 OA
BRANCH   1  29
ATOM     29  C   UNL     1       0.931   1.409  23.884  0.00  0.00    +0.109 A 
ATOM     30  C   UNL     1      -0.123   1.988  23.201  0.00  0.00    +0.030 A 
ATOM     31  C   UNL     1       1.090   1.572  25.248  0.00  0.00    +0.030 A 
ATOM     32  C   UNL     1      -1.049   2.756  23.906  0.00  0.00    +0.025 A 
ATOM     33  C   UNL     1       0.163   2.339  25.953  0.00  0.00    +0.025 A 
ATOM     34  C   UNL     1      -0.906   2.932  25.281  0.00  0.00    +0.033 A 
BRANCH  34  10
ATOM      6  O   UNL     1      -1.610   5.850  25.048  0.00  0.00    -0.276 OA
ATOM     10  N   UNL     1      -1.834   3.699  25.988  0.00  0.00    -0.286 N 
ATOM     35  C   UNL     1      -2.120   5.063  25.838  0.00  0.00    +0.214 C 
ATOM     36  C   UNL     1      -3.192   5.517  26.797  0.00  0.00    +0.109 C 
ATOM     38  H   UNL     1      -2.362   3.197  26.698  0.00  0.00    +0.155 HD
ENDBRANCH  34  10
ENDBRANCH   1  29
ENDBRANCH   9   1
ENDBRANCH  21   9
BRANCH   7  18
ATOM     18  C   UNL     1      -4.843   0.668  25.902  0.00  0.00    +0.119 C 
BRANCH  18  23
ATOM      2  F   UNL     1      -4.281   5.310  22.783  0.00  0.00    -0.205 F 
ATOM     23  C   UNL     1      -4.694   1.911  25.065  0.00  0.00    -0.033 A 
ATOM     24  C   UNL     1      -5.266   3.099  25.500  0.00  0.00    +0.008 A 
ATOM     25  C   UNL     1      -3.985   1.852  23.874  0.00  0.00    +0.008 A 
ATOM     26  C   UNL     1      -5.126   4.251  24.726  0.00  0.00    +0.038 A 
ATOM     27  C   UNL     1      -3.846   3.004  23.100  0.00  0.00    +0.038 A 
ATOM     28  C   UNL     1      -4.416   4.204  23.526  0.00  0.00    +0.123 A 
ENDBRANCH  18  23
ENDBRANCH   7  18
TORSDOF 6
ENDMDL
MODEL 7
REMARK VINA RESULT:      11.1      1.542      4.400
REMARK  Name = 11867244
REMARK  7 active torsions:
REMARK  status: ('A' for Active; 'I' for Inactive)
REMARK    1  A    between atoms: S_1  and  N_9
REMARK    2  A    between atoms: S_1  and  C_29
REMARK    3  A    between atoms: N_7  and  C_18
REMARK    4  A    between atoms: N_9  and  C_21
REMARK    5  A    between atoms: N_10  and  C_34
REMARK    6  A    between atoms: C_18  and  C_23
REMARK    7  A    between atoms: C_35  and  C_36
REMARK                            x       y       z     vdW  Elec       q    Type
REMARK                         _______ _______ _______ _____ _____    ______ ____
ROOT
ATOM      3  O   UNL     1      -3.279  -0.086  27.339  0.00  0.00    -0.266 OA
ATOM      7  N   UNL     1       0.018  -0.339  23.564  0.00  0.00    -0.297 NA
ATOM      8  N   UNL     1      -2.397  -1.185  25.467  0.00  0.00    -0.310 N 
ATOM     11  C   UNL     1       0.001  -2.081  25.366  0.00  0.00    +0.024 C 
ATOM     12  C   UNL     1      -1.473  -2.338  23.427  0.00  0.00    +0.050 C 
ATOM     13  C   UNL     1      -0.580  -3.103  24.398  0.00  0.00    +0.017 C 
ATOM     14  C   UNL     1       0.814  -1.022  24.592  0.00  0.00    +0.090 C 
ATOM     15  C   UNL     1      -0.627  -1.299  22.656  0.00  0.00    +0.094 C 
ATOM     16  C   UNL     1      -1.143  -1.465  26.181  0.00  0.00    +0.130 C 
ATOM     17  C   UNL     1      -2.611  -1.655  24.164  0.00  0.00    +0.026 A 
ATOM     19  C   UNL     1      -3.804  -1.485  23.565  0.00  0.00    +0.024 A 
ATOM     20  C   UNL     1      -3.402  -0.508  26.190  0.00  0.00    +0.274 A 
ATOM     21  C   UNL     1      -4.688  -0.332  25.469  0.00  0.00    +0.112 A 
ATOM     22  C   UNL     1      -4.878  -0.803  24.235  0.00  0.00    +0.031 A 
ENDROOT
BRANCH  21   9
ATOM      9  N   UNL     1      -5.761   0.333  26.088  0.00  0.00    -0.211 N 
ATOM     37  H   UNL     1      -6.574  -0.281  26.242  0.00  0.00    +0.174 HD
BRANCH   9   1
ATOM      1  S   UNL     1      -6.143   1.878  25.515  0.00  0.00    +0.072 S 
ATOM      4  O   UNL     1      -7.018   1.770  24.364  0.00  0.00    -0.150 OA
ATOM      5  O   UNL     1      -6.502   2.737  26.628  0.00  0.00    -0.150 OA
BRANCH   1  29
ATOM     29  C   UNL     1      -4.561   2.410  24.927  0.00  0.00    +0.109 A 
ATOM     30  C   UNL     1      -4.220   2.181  23.605  0.00  0.00    +0.030 A 
ATOM     31  C   UNL     1      -3.696   3.045  25.799  0.00  0.00    +0.030 A 
ATOM     32  C   UNL     1      -2.974   2.601  23.142  0.00  0.00    +0.025 A 
ATOM     33  C   UNL     1      -2.450   3.466  25.335  0.00  0.00    +0.025 A 
ATOM     34  C   UNL     1      -2.089   3.243  24.007  0.00  0.00    +0.033 A 
BRANCH  34  10
ATOM      6  O   UNL     1      -0.516   5.735  24.623  0.00  0.00    -0.276 OA
ATOM     10  N   UNL     1      -0.842   3.664  23.543  0.00  0.00    -0.286 N 
ATOM     35  C   UNL     1      -0.154   4.843  23.863  0.00  0.00    +0.214 C 
ATOM     36  C   UNL     1       1.171   4.929  23.148  0.00  0.00    +0.109 C 
ATOM     38  H   UNL     1      -0.384   3.033  22.890  0.00  0.00    +0.155 HD
ENDBRANCH  34  10
ENDBRANCH   1  29
ENDBRANCH   9   1
ENDBRANCH  21   9
BRANCH   7  18
ATOM     18  C   UNL     1       0.835   0.617  22.819  0.00  0.00    +0.119 C 
BRANCH  18  23
ATOM      2  F   UNL     1       6.331  -0.353  23.484  0.00  0.00    -0.205 F 
ATOM     23  C   UNL     1       2.307   0.357  22.999  0.00  0.00    -0.033 A 
ATOM     24  C   UNL     1       2.744  -0.929  23.286  0.00  0.00    +0.008 A 
ATOM     25  C   UNL     1       3.206   1.407  22.871  0.00  0.00    +0.008 A 
ATOM     26  C   UNL     1       4.108  -1.169  23.451  0.00  0.00    +0.038 A 
ATOM     27  C   UNL     1       4.570   1.166  23.037  0.00  0.00    +0.038 A 
ATOM     28  C   UNL     1       5.021  -0.121  23.327  0.00  0.00    +0.123 A 
ENDBRANCH  18  23
ENDBRANCH   7  18
TORSDOF 6
ENDMDL
MODEL 8
REMARK VINA RESULT:      11.2      1.485      1.997
REMARK  Name = 11867244
REMARK  7 active torsions:
REMARK  status: ('A' for Active; 'I' for Inactive)
REMARK    1  A    between atoms: S_1  and  N_9
REMARK    2  A    between atoms: S_1  and  C_29
REMARK    3  A    between atoms: N_7  and  C_18
REMARK    4  A    between atoms: N_9  and  C_21
REMARK    5  A    between atoms: N_10  and  C_34
REMARK    6  A    between atoms: C_18  and  C_23
REMARK    7  A    between atoms: C_35  and  C_36
REMARK                            x       y       z     vdW  Elec       q    Type
REMARK                         _______ _______ _______ _____ _____    ______ ____
ROOT
ATOM      3  O   UNL     1      -4.432   3.623  22.824  0.00  0.00    -0.266 OA
ATOM      7  N   UNL     1      -0.003   2.616  24.958  0.00  0.00    -0.297 NA
ATOM      8  N   UNL     1      -2.752   4.123  24.380  0.00  0.00    -0.310 N 
ATOM     11  C   UNL     1      -0.363   4.760  23.710  0.00  0.00    +0.024 C 
ATOM     12  C   UNL     1      -0.965   4.629  26.081  0.00  0.00    +0.050 C 
ATOM     13  C   UNL     1      -0.364   5.542  25.016  0.00  0.00    +0.017 C 
ATOM     14  C   UNL     1       0.474   3.473  23.865  0.00  0.00    +0.090 C 
ATOM     15  C   UNL     1      -0.095   3.359  26.223  0.00  0.00    +0.094 C 
ATOM     16  C   UNL     1      -1.815   4.473  23.303  0.00  0.00    +0.130 C 
ATOM     17  C   UNL     1      -2.394   4.257  25.728  0.00  0.00    +0.026 A 
ATOM     19  C   UNL     1      -3.299   4.039  26.699  0.00  0.00    +0.024 A 
ATOM     20  C   UNL     1      -4.054   3.743  23.989  0.00  0.00    +0.274 A 
ATOM     21  C   UNL     1      -5.001   3.495  25.105  0.00  0.00    +0.112 A 
ATOM     22  C   UNL     1      -4.645   3.645  26.382  0.00  0.00    +0.031 A 
ENDROOT
BRANCH  21   9
ATOM      9  N   UNL     1      -6.325   3.105  24.836  0.00  0.00    -0.211 N 
ATOM     37  H   UNL     1      -7.013   3.823  25.102  0.00  0.00    +0.174 HD
BRANCH   9   1
ATOM      1  S   UNL     1      -6.760   1.523  25.250  0.00  0.00    +0.072 S 
ATOM      4  O   UNL     1      -7.293   1.500  26.599  0.00  0.00    -0.150 OA
ATOM      5  O   UNL     1      -7.504   0.920  24.160  0.00  0.00    -0.150 OA
BRANCH   1  29
ATOM     29  C   UNL     1      -5.171   0.747  25.298  0.00  0.00    +0.109 A 
ATOM     30  C   UNL     1      -4.797   0.044  26.430  0.00  0.00    +0.030 A 
ATOM     31  C   UNL     1      -4.334   0.857  24.203  0.00  0.00    +0.030 A 
ATOM     32  C   UNL     1      -3.545  -0.568  26.467  0.00  0.00    +0.025 A 
ATOM     33  C   UNL     1      -3.082   0.244  24.240  0.00  0.00    +0.025 A 
ATOM     34  C   UNL     1      -2.687  -0.468  25.373  0.00  0.00    +0.033 A 
BRANCH  34  10
ATOM      6  O   UNL     1      -1.784  -3.130  24.294  0.00  0.00    -0.276 OA
ATOM     10  N   UNL     1      -1.434  -1.082  25.408  0.00  0.00    -0.286 N 
ATOM     35  C   UNL     1      -1.069  -2.331  24.889  0.00  0.00    +0.214 C 
ATOM     36  C   UNL     1       0.388  -2.635  25.135  0.00  0.00    +0.109 C 
ATOM     38  H   UNL     1      -0.702  -0.549  25.872  0.00  0.00    +0.155 HD
ENDBRANCH  34  10
ENDBRANCH   1  29
ENDBRANCH   9   1
ENDBRANCH  21   9
BRANCH   7  18
ATOM     18  C   UNL     1       0.846   1.436  25.106  0.00  0.00    +0.119 C 
BRANCH  18  23
ATOM      2  F   UNL     1       1.619  -1.223  20.214  0.00  0.00    -0.205 F 
ATOM     23  C   UNL     1       1.053   0.725  23.794  0.00  0.00    -0.033 A 
ATOM     24  C   UNL     1       2.339   0.574  23.295  0.00  0.00    +0.008 A 
ATOM     25  C   UNL     1      -0.045   0.228  23.106  0.00  0.00    +0.008 A 
ATOM     26  C   UNL     1       2.531  -0.086  22.082  0.00  0.00    +0.038 A 
ATOM     27  C   UNL     1       0.147  -0.431  21.892  0.00  0.00    +0.038 A 
ATOM     28  C   UNL     1       1.435  -0.588  21.380  0.00  0.00    +0.123 A 
ENDBRANCH  18  23
ENDBRANCH   7  18
TORSDOF 6
ENDMDL
