MODEL 1
REMARK VINA RESULT:       1.2      0.000      0.000
REMARK  Name = 11939784
REMARK  9 active torsions:
REMARK  status: ('A' for Active; 'I' for Inactive)
REMARK    1  A    between atoms: O_4  and  C_18
REMARK    2  A    between atoms: O_4  and  C_23
REMARK    3  A    between atoms: N_5  and  C_13
REMARK    4  A    between atoms: N_6  and  C_12
REMARK    5  A    between atoms: N_9  and  C_26
REMARK    6  A    between atoms: N_9  and  C_29
REMARK    7  A    between atoms: N_9  and  C_30
REMARK    8  A    between atoms: C_16  and  C_18
REMARK    9  A    between atoms: C_19  and  C_22
REMARK                            x       y       z     vdW  Elec       q    Type
REMARK                         _______ _______ _______ _____ _____    ______ ____
ROOT
ATOM      6  N   UNL     1      -4.661   0.519  24.428  0.00  0.00    -0.306 N 
ATOM      7  N   UNL     1      -2.386   0.005  24.165  0.00  0.00    -0.214 NA
ATOM      8  N   UNL     1      -3.957  -1.670  24.896  0.00  0.00    -0.223 NA
ATOM     17  C   UNL     1      -3.637  -0.410  24.498  0.00  0.00    +0.216 A 
ATOM     19  C   UNL     1      -1.413  -0.926  24.245  0.00  0.00    +0.076 A 
ATOM     20  C   UNL     1      -2.935  -2.550  24.953  0.00  0.00    +0.116 A 
ATOM     21  C   UNL     1      -1.631  -2.231  24.637  0.00  0.00    +0.048 A 
ATOM     32  H   UNL     1      -5.580   0.213  24.729  0.00  0.00    +0.149 HD
ENDROOT
BRANCH   6  12
ATOM      1  O   UNL     1      -4.696   3.180  26.007  0.00  0.00    -0.370 OA
ATOM      2  O   UNL     1      -2.688   3.487  23.639  0.00  0.00    -0.370 OA
ATOM     10  C   UNL     1      -3.097   2.369  24.444  0.00  0.00    +0.171 C 
ATOM     11  C   UNL     1      -3.298   2.881  25.856  0.00  0.00    +0.171 C 
ATOM     12  C   UNL     1      -4.468   1.894  24.024  0.00  0.00    +0.130 C 
ATOM     13  C   UNL     1      -2.480   4.151  25.908  0.00  0.00    +0.130 C 
ATOM     14  C   UNL     1      -5.392   2.807  24.808  0.00  0.00    +0.185 C 
ATOM     15  C   UNL     1      -2.559   4.646  24.475  0.00  0.00    +0.185 C 
BRANCH  13   5
ATOM      3  O   UNL     1      -1.344   1.588  26.643  0.00  0.00    -0.273 OA
ATOM      5  N   UNL     1      -1.116   3.877  26.292  0.00  0.00    -0.306 N 
ATOM     16  C   UNL     1      -0.663   2.609  26.630  0.00  0.00    +0.239 C 
ATOM     31  H   UNL     1      -0.450   4.644  26.264  0.00  0.00    +0.149 HD
BRANCH  16  18
ATOM     18  C   UNL     1       0.809   2.618  26.990  0.00  0.00    +0.255 C 
BRANCH  18   4
ATOM      4  O   UNL     1       0.986   2.350  28.365  0.00  0.00    -0.374 OA
ATOM     23  C   UNL     1       2.270   2.763  28.825  0.00  0.00    +0.194 C 
ENDBRANCH  18   4
ENDBRANCH  16  18
ENDBRANCH  13   5
ENDBRANCH   6  12
BRANCH  19  22
ATOM     22  C   UNL     1      -0.092  -0.464  23.888  0.00  0.00    +0.001 A 
ATOM     24  C   UNL     1       0.900  -1.382  23.540  0.00  0.00    +0.012 A 
ATOM     25  C   UNL     1       0.196   0.902  23.891  0.00  0.00    +0.012 A 
ATOM     26  C   UNL     1       2.463   0.429  23.200  0.00  0.00    +0.029 A 
ATOM     27  C   UNL     1       2.177  -0.935  23.196  0.00  0.00    +0.024 A 
ATOM     28  C   UNL     1       1.472   1.349  23.548  0.00  0.00    +0.024 A 
BRANCH  26   9
ATOM      9  N   UNL     1       3.753   0.881  22.852  0.00  0.00    -0.336 N 
ATOM     29  C   UNL     1       3.922   2.110  22.102  0.00  0.00    +0.129 C 
ATOM     30  C   UNL     1       4.926   0.131  23.252  0.00  0.00    +0.129 C 
ENDBRANCH  26   9
ENDBRANCH  19  22
TORSDOF 6
ENDMDL
MODEL 2
REMARK VINA RESULT:       4.2      2.142      4.347
REMARK  Name = 11939784
REMARK  9 active torsions:
REMARK  status: ('A' for Active; 'I' for Inactive)
REMARK    1  A    between atoms: O_4  and  C_18
REMARK    2  A    between atoms: O_4  and  C_23
REMARK    3  A    between atoms: N_5  and  C_13
REMARK    4  A    between atoms: N_6  and  C_12
REMARK    5  A    between atoms: N_9  and  C_26
REMARK    6  A    between atoms: N_9  and  C_29
REMARK    7  A    between atoms: N_9  and  C_30
REMARK    8  A    between atoms: C_16  and  C_18
REMARK    9  A    between atoms: C_19  and  C_22
REMARK                            x       y       z     vdW  Elec       q    Type
REMARK                         _______ _______ _______ _____ _____    ______ ____
ROOT
ATOM      6  N   UNL     1      -5.256   3.284  26.197  0.00  0.00    -0.306 N 
ATOM      7  N   UNL     1      -3.125   2.946  25.274  0.00  0.00    -0.214 NA
ATOM      8  N   UNL     1      -3.730   5.066  26.246  0.00  0.00    -0.223 NA
ATOM     17  C   UNL     1      -3.999   3.780  25.896  0.00  0.00    +0.216 A 
ATOM     19  C   UNL     1      -1.910   3.463  24.996  0.00  0.00    +0.076 A 
ATOM     20  C   UNL     1      -2.496   5.517  25.938  0.00  0.00    +0.116 A 
ATOM     21  C   UNL     1      -1.536   4.754  25.307  0.00  0.00    +0.048 A 
ATOM     32  H   UNL     1      -5.917   3.930  26.613  0.00  0.00    +0.149 HD
ENDROOT
BRANCH   6  12
ATOM      1  O   UNL     1      -5.237   1.652  23.567  0.00  0.00    -0.370 OA
ATOM      2  O   UNL     1      -4.853  -0.335  25.942  0.00  0.00    -0.370 OA
ATOM     10  C   UNL     1      -4.477   1.037  25.736  0.00  0.00    +0.171 C 
ATOM     11  C   UNL     1      -4.081   1.181  24.281  0.00  0.00    +0.171 C 
ATOM     12  C   UNL     1      -5.680   1.938  25.883  0.00  0.00    +0.130 C 
ATOM     13  C   UNL     1      -3.736  -0.227  23.852  0.00  0.00    +0.130 C 
ATOM     14  C   UNL     1      -6.302   1.892  24.499  0.00  0.00    +0.185 C 
ATOM     15  C   UNL     1      -4.653  -1.066  24.723  0.00  0.00    +0.185 C 
BRANCH  13   5
ATOM      3  O   UNL     1      -2.544  -2.842  24.227  0.00  0.00    -0.273 OA
ATOM      5  N   UNL     1      -2.349  -0.526  24.112  0.00  0.00    -0.306 N 
ATOM     16  C   UNL     1      -1.869  -1.818  24.279  0.00  0.00    +0.239 C 
ATOM     31  H   UNL     1      -1.688   0.247  24.123  0.00  0.00    +0.149 HD
BRANCH  16  18
ATOM     18  C   UNL     1      -0.377  -1.833  24.539  0.00  0.00    +0.255 C 
BRANCH  18   4
ATOM      4  O   UNL     1      -0.106  -1.581  25.902  0.00  0.00    -0.374 OA
ATOM     23  C   UNL     1      -1.106  -0.760  26.499  0.00  0.00    +0.194 C 
ENDBRANCH  18   4
ENDBRANCH  16  18
ENDBRANCH  13   5
ENDBRANCH   6  12
BRANCH  19  22
ATOM     22  C   UNL     1      -0.998   2.560  24.333  0.00  0.00    +0.001 A 
ATOM     24  C   UNL     1       0.231   2.252  24.920  0.00  0.00    +0.012 A 
ATOM     25  C   UNL     1      -1.341   1.994  23.104  0.00  0.00    +0.012 A 
ATOM     26  C   UNL     1       0.769   0.818  23.051  0.00  0.00    +0.029 A 
ATOM     27  C   UNL     1       1.114   1.382  24.279  0.00  0.00    +0.024 A 
ATOM     28  C   UNL     1      -0.459   1.124  22.463  0.00  0.00    +0.024 A 
BRANCH  26   9
ATOM      9  N   UNL     1       1.660  -0.063  22.404  0.00  0.00    -0.336 N 
ATOM     29  C   UNL     1       1.236  -0.806  21.234  0.00  0.00    +0.129 C 
ATOM     30  C   UNL     1       3.015  -0.224  22.890  0.00  0.00    +0.129 C 
ENDBRANCH  26   9
ENDBRANCH  19  22
TORSDOF 6
ENDMDL
MODEL 3
REMARK VINA RESULT:       4.2      2.282      5.280
REMARK  Name = 11939784
REMARK  9 active torsions:
REMARK  status: ('A' for Active; 'I' for Inactive)
REMARK    1  A    between atoms: O_4  and  C_18
REMARK    2  A    between atoms: O_4  and  C_23
REMARK    3  A    between atoms: N_5  and  C_13
REMARK    4  A    between atoms: N_6  and  C_12
REMARK    5  A    between atoms: N_9  and  C_26
REMARK    6  A    between atoms: N_9  and  C_29
REMARK    7  A    between atoms: N_9  and  C_30
REMARK    8  A    between atoms: C_16  and  C_18
REMARK    9  A    between atoms: C_19  and  C_22
REMARK                            x       y       z     vdW  Elec       q    Type
REMARK                         _______ _______ _______ _____ _____    ______ ____
ROOT
ATOM      6  N   UNL     1      -4.883   1.200  24.413  0.00  0.00    -0.306 N 
ATOM      7  N   UNL     1      -3.004   2.154  25.447  0.00  0.00    -0.214 NA
ATOM      8  N   UNL     1      -4.433   3.470  24.021  0.00  0.00    -0.223 NA
ATOM     17  C   UNL     1      -4.082   2.308  24.634  0.00  0.00    +0.216 A 
ATOM     19  C   UNL     1      -2.247   3.254  25.640  0.00  0.00    +0.076 A 
ATOM     20  C   UNL     1      -3.632   4.530  24.259  0.00  0.00    +0.116 A 
ATOM     21  C   UNL     1      -2.515   4.480  25.066  0.00  0.00    +0.048 A 
ATOM     32  H   UNL     1      -5.653   1.313  23.763  0.00  0.00    +0.149 HD
ENDROOT
BRANCH   6  12
ATOM      1  O   UNL     1      -3.971  -1.492  23.189  0.00  0.00    -0.370 OA
ATOM      2  O   UNL     1      -2.865  -1.329  26.102  0.00  0.00    -0.370 OA
ATOM     10  C   UNL     1      -3.143  -0.339  25.098  0.00  0.00    +0.171 C 
ATOM     11  C   UNL     1      -2.771  -0.941  23.757  0.00  0.00    +0.171 C 
ATOM     12  C   UNL     1      -4.630  -0.098  24.996  0.00  0.00    +0.130 C 
ATOM     13  C   UNL     1      -1.800  -2.046  24.106  0.00  0.00    +0.130 C 
ATOM     14  C   UNL     1      -5.081  -1.196  24.050  0.00  0.00    +0.185 C 
ATOM     15  C   UNL     1      -2.284  -2.483  25.477  0.00  0.00    +0.185 C 
BRANCH  13   5
ATOM      3  O   UNL     1      -0.797   0.451  23.029  0.00  0.00    -0.273 OA
ATOM      5  N   UNL     1      -0.446  -1.550  24.164  0.00  0.00    -0.306 N 
ATOM     16  C   UNL     1      -0.058  -0.336  23.615  0.00  0.00    +0.239 C 
ATOM     31  H   UNL     1       0.241  -2.098  24.674  0.00  0.00    +0.149 HD
BRANCH  16  18
ATOM     18  C   UNL     1       1.419  -0.072  23.823  0.00  0.00    +0.255 C 
BRANCH  18   4
ATOM      4  O   UNL     1       2.091   0.003  22.584  0.00  0.00    -0.374 OA
ATOM     23  C   UNL     1       3.368   0.622  22.708  0.00  0.00    +0.194 C 
ENDBRANCH  18   4
ENDBRANCH  16  18
ENDBRANCH  13   5
ENDBRANCH   6  12
BRANCH  19  22
ATOM     22  C   UNL     1      -1.106   3.067  26.506  0.00  0.00    +0.001 A 
ATOM     24  C   UNL     1       0.167   2.893  25.960  0.00  0.00    +0.012 A 
ATOM     25  C   UNL     1      -1.273   3.059  27.892  0.00  0.00    +0.012 A 
ATOM     26  C   UNL     1       1.099   2.703  28.180  0.00  0.00    +0.029 A 
ATOM     27  C   UNL     1       1.269   2.710  26.796  0.00  0.00    +0.024 A 
ATOM     28  C   UNL     1      -0.172   2.877  28.729  0.00  0.00    +0.024 A 
BRANCH  26   9
ATOM      9  N   UNL     1       2.212   2.519  29.026  0.00  0.00    -0.336 N 
ATOM     29  C   UNL     1       3.534   2.933  28.599  0.00  0.00    +0.129 C 
ATOM     30  C   UNL     1       2.047   1.928  30.339  0.00  0.00    +0.129 C 
ENDBRANCH  26   9
ENDBRANCH  19  22
TORSDOF 6
ENDMDL
MODEL 4
REMARK VINA RESULT:       4.4      2.554      5.335
REMARK  Name = 11939784
REMARK  9 active torsions:
REMARK  status: ('A' for Active; 'I' for Inactive)
REMARK    1  A    between atoms: O_4  and  C_18
REMARK    2  A    between atoms: O_4  and  C_23
REMARK    3  A    between atoms: N_5  and  C_13
REMARK    4  A    between atoms: N_6  and  C_12
REMARK    5  A    between atoms: N_9  and  C_26
REMARK    6  A    between atoms: N_9  and  C_29
REMARK    7  A    between atoms: N_9  and  C_30
REMARK    8  A    between atoms: C_16  and  C_18
REMARK    9  A    between atoms: C_19  and  C_22
REMARK                            x       y       z     vdW  Elec       q    Type
REMARK                         _______ _______ _______ _____ _____    ______ ____
ROOT
ATOM      6  N   UNL     1      -3.492   4.953  24.934  0.00  0.00    -0.306 N 
ATOM      7  N   UNL     1      -3.949   2.651  24.931  0.00  0.00    -0.214 NA
ATOM      8  N   UNL     1      -5.500   4.219  25.902  0.00  0.00    -0.223 NA
ATOM     17  C   UNL     1      -4.339   3.909  25.266  0.00  0.00    +0.216 A 
ATOM     19  C   UNL     1      -4.798   1.659  25.269  0.00  0.00    +0.076 A 
ATOM     20  C   UNL     1      -6.302   3.178  26.209  0.00  0.00    +0.116 A 
ATOM     21  C   UNL     1      -6.000   1.865  25.916  0.00  0.00    +0.048 A 
ATOM     32  H   UNL     1      -3.769   5.881  25.235  0.00  0.00    +0.149 HD
ENDROOT
BRANCH   6  12
ATOM      1  O   UNL     1      -0.635   4.386  25.979  0.00  0.00    -0.370 OA
ATOM      2  O   UNL     1      -0.925   3.043  23.178  0.00  0.00    -0.370 OA
ATOM     10  C   UNL     1      -1.853   3.309  24.242  0.00  0.00    +0.171 C 
ATOM     11  C   UNL     1      -1.112   3.100  25.548  0.00  0.00    +0.171 C 
ATOM     12  C   UNL     1      -2.227   4.773  24.259  0.00  0.00    +0.130 C 
ATOM     13  C   UNL     1       0.049   2.207  25.174  0.00  0.00    +0.130 C 
ATOM     14  C   UNL     1      -1.105   5.394  25.070  0.00  0.00    +0.185 C 
ATOM     15  C   UNL     1       0.326   2.620  23.739  0.00  0.00    +0.185 C 
BRANCH  13   5
ATOM      3  O   UNL     1       0.461   0.161  23.163  0.00  0.00    -0.273 OA
ATOM      5  N   UNL     1      -0.318   0.814  25.256  0.00  0.00    -0.306 N 
ATOM     16  C   UNL     1      -0.079  -0.095  24.235  0.00  0.00    +0.239 C 
ATOM     31  H   UNL     1      -0.724   0.479  26.125  0.00  0.00    +0.149 HD
BRANCH  16  18
ATOM     18  C   UNL     1      -0.567  -1.484  24.595  0.00  0.00    +0.255 C 
BRANCH  18   4
ATOM      4  O   UNL     1      -0.036  -1.891  25.838  0.00  0.00    -0.374 OA
ATOM     23  C   UNL     1       0.611  -3.158  25.749  0.00  0.00    +0.194 C 
ENDBRANCH  18   4
ENDBRANCH  16  18
ENDBRANCH  13   5
ENDBRANCH   6  12
BRANCH  19  22
ATOM     22  C   UNL     1      -4.363   0.330  24.906  0.00  0.00    +0.001 A 
ATOM     24  C   UNL     1      -4.329  -0.052  23.564  0.00  0.00    +0.012 A 
ATOM     25  C   UNL     1      -3.978  -0.576  25.895  0.00  0.00    +0.012 A 
ATOM     26  C   UNL     1      -3.527  -2.239  24.202  0.00  0.00    +0.029 A 
ATOM     27  C   UNL     1      -3.912  -1.336  23.212  0.00  0.00    +0.024 A 
ATOM     28  C   UNL     1      -3.560  -1.860  25.545  0.00  0.00    +0.024 A 
BRANCH  26   9
ATOM      9  N   UNL     1      -3.104  -3.537  23.847  0.00  0.00    -0.336 N 
ATOM     29  C   UNL     1      -1.781  -3.752  23.295  0.00  0.00    +0.129 C 
ATOM     30  C   UNL     1      -3.980  -4.674  24.044  0.00  0.00    +0.129 C 
ENDBRANCH  26   9
ENDBRANCH  19  22
TORSDOF 6
ENDMDL
