MODEL 1
REMARK VINA RESULT:      -5.6      0.000      0.000
REMARK  Name = 28991027
REMARK  7 active torsions:
REMARK  status: ('A' for Active; 'I' for Inactive)
REMARK    1  A    between atoms: O_3  and  C_21
REMARK    2  A    between atoms: O_3  and  C_22
REMARK    3  A    between atoms: N_5  and  C_14
REMARK    4  A    between atoms: N_6  and  C_15
REMARK    5  A    between atoms: C_8  and  C_14
REMARK    6  A    between atoms: C_9  and  C_15
REMARK    7  A    between atoms: C_20  and  C_21
REMARK                            x       y       z     vdW  Elec       q    Type
REMARK                         _______ _______ _______ _____ _____    ______ ____
ROOT
ATOM      4  N   UNL     1      -2.683  -2.110  24.163  0.00  0.00    -0.298 NA
ATOM      7  C   UNL     1      -2.929  -0.120  25.820  0.00  0.00    -0.003 C 
ATOM      8  C   UNL     1      -3.838   0.075  24.585  0.00  0.00    +0.020 C 
ATOM      9  C   UNL     1      -1.343  -1.555  24.496  0.00  0.00    +0.074 C 
ATOM     10  C   UNL     1      -1.469  -0.280  25.359  0.00  0.00    +0.024 C 
ATOM     11  C   UNL     1      -3.545  -1.057  23.574  0.00  0.00    +0.089 C 
ATOM     12  C   UNL     1      -3.348  -1.449  26.479  0.00  0.00    +0.019 C 
ATOM     13  C   UNL     1      -3.312  -2.570  25.425  0.00  0.00    +0.085 C 
ENDROOT
BRANCH   8  14
ATOM     14  C   UNL     1      -3.697   1.453  23.944  0.00  0.00    +0.089 C 
BRANCH  14   5
ATOM      1  O   UNL     1      -1.826   4.894  25.451  0.00  0.00    -0.377 OA
ATOM      5  N   UNL     1      -2.925   2.350  24.802  0.00  0.00    -0.298 NA
ATOM     16  C   UNL     1      -3.767   3.446  25.301  0.00  0.00    +0.112 C 
ATOM     17  C   UNL     1      -1.767   2.894  24.080  0.00  0.00    +0.112 C 
ATOM     18  C   UNL     1      -2.939   4.376  26.182  0.00  0.00    +0.175 C 
ATOM     19  C   UNL     1      -0.985   3.835  24.991  0.00  0.00    +0.175 C 
ENDBRANCH  14   5
ENDBRANCH   8  14
BRANCH   9  15
ATOM     15  C   UNL     1      -0.484  -1.316  23.251  0.00  0.00    +0.123 C 
BRANCH  15   6
ATOM      2  O   UNL     1       1.562  -0.398  21.425  0.00  0.00    -0.273 OA
ATOM      6  N   UNL     1       0.649  -0.462  23.563  0.00  0.00    -0.312 N 
ATOM     20  C   UNL     1       1.575  -0.079  22.611  0.00  0.00    +0.239 C 
ATOM     23  H   UNL     1       0.755  -0.143  24.521  0.00  0.00    +0.149 HD
BRANCH  20  21
ATOM     21  C   UNL     1       2.646   0.809  23.209  0.00  0.00    +0.255 C 
BRANCH  21   3
ATOM      3  O   UNL     1       3.862   0.665  22.507  0.00  0.00    -0.374 OA
ATOM     22  C   UNL     1       4.958   0.438  23.388  0.00  0.00    +0.194 C 
ENDBRANCH  21   3
ENDBRANCH  20  21
ENDBRANCH  15   6
ENDBRANCH   9  15
TORSDOF 6
ENDMDL
MODEL 2
REMARK VINA RESULT:      -5.2      1.760      2.283
REMARK  Name = 28991027
REMARK  7 active torsions:
REMARK  status: ('A' for Active; 'I' for Inactive)
REMARK    1  A    between atoms: O_3  and  C_21
REMARK    2  A    between atoms: O_3  and  C_22
REMARK    3  A    between atoms: N_5  and  C_14
REMARK    4  A    between atoms: N_6  and  C_15
REMARK    5  A    between atoms: C_8  and  C_14
REMARK    6  A    between atoms: C_9  and  C_15
REMARK    7  A    between atoms: C_20  and  C_21
REMARK                            x       y       z     vdW  Elec       q    Type
REMARK                         _______ _______ _______ _____ _____    ______ ____
ROOT
ATOM      4  N   UNL     1      -0.255  -0.811  24.158  0.00  0.00    -0.298 NA
ATOM      7  C   UNL     1      -2.075   0.182  25.732  0.00  0.00    -0.003 C 
ATOM      8  C   UNL     1      -2.686  -0.231  24.373  0.00  0.00    +0.020 C 
ATOM      9  C   UNL     1       0.186   0.513  24.677  0.00  0.00    +0.074 C 
ATOM     10  C   UNL     1      -0.937   1.192  25.493  0.00  0.00    +0.024 C 
ATOM     11  C   UNL     1      -1.542  -0.677  23.433  0.00  0.00    +0.089 C 
ATOM     12  C   UNL     1      -1.441  -1.083  26.341  0.00  0.00    +0.019 C 
ATOM     13  C   UNL     1      -0.472  -1.706  25.321  0.00  0.00    +0.085 C 
ENDROOT
BRANCH   8  14
ATOM     14  C   UNL     1      -3.541   0.862  23.739  0.00  0.00    +0.089 C 
BRANCH  14   5
ATOM      1  O   UNL     1      -5.775   3.863  25.643  0.00  0.00    -0.377 OA
ATOM      5  N   UNL     1      -4.041   1.787  24.755  0.00  0.00    -0.298 NA
ATOM     16  C   UNL     1      -5.461   1.534  25.037  0.00  0.00    +0.112 C 
ATOM     17  C   UNL     1      -3.854   3.181  24.328  0.00  0.00    +0.112 C 
ATOM     18  C   UNL     1      -5.964   2.518  26.089  0.00  0.00    +0.175 C 
ATOM     19  C   UNL     1      -4.393   4.126  25.398  0.00  0.00    +0.175 C 
ENDBRANCH  14   5
ENDBRANCH   8  14
BRANCH   9  15
ATOM     15  C   UNL     1       0.715   1.426  23.568  0.00  0.00    +0.123 C 
BRANCH  15   6
ATOM      2  O   UNL     1       2.193  -0.136  21.634  0.00  0.00    -0.273 OA
ATOM      6  N   UNL     1       2.160   1.312  23.452  0.00  0.00    -0.312 N 
ATOM     20  C   UNL     1       2.769   0.535  22.486  0.00  0.00    +0.239 C 
ATOM     23  H   UNL     1       2.732   1.827  24.115  0.00  0.00    +0.149 HD
BRANCH  20  21
ATOM     21  C   UNL     1       4.277   0.600  22.595  0.00  0.00    +0.255 C 
BRANCH  21   3
ATOM      3  O   UNL     1       4.681   0.589  23.948  0.00  0.00    -0.374 OA
ATOM     22  C   UNL     1       5.471  -0.555  24.256  0.00  0.00    +0.194 C 
ENDBRANCH  21   3
ENDBRANCH  20  21
ENDBRANCH  15   6
ENDBRANCH   9  15
TORSDOF 6
ENDMDL
MODEL 3
REMARK VINA RESULT:      -5.2      1.203      1.585
REMARK  Name = 28991027
REMARK  7 active torsions:
REMARK  status: ('A' for Active; 'I' for Inactive)
REMARK    1  A    between atoms: O_3  and  C_21
REMARK    2  A    between atoms: O_3  and  C_22
REMARK    3  A    between atoms: N_5  and  C_14
REMARK    4  A    between atoms: N_6  and  C_15
REMARK    5  A    between atoms: C_8  and  C_14
REMARK    6  A    between atoms: C_9  and  C_15
REMARK    7  A    between atoms: C_20  and  C_21
REMARK                            x       y       z     vdW  Elec       q    Type
REMARK                         _______ _______ _______ _____ _____    ______ ____
ROOT
ATOM      4  N   UNL     1      -2.297  -1.394  23.677  0.00  0.00    -0.298 NA
ATOM      7  C   UNL     1      -3.471  -1.362  25.999  0.00  0.00    -0.003 C 
ATOM      8  C   UNL     1      -4.242  -0.493  24.978  0.00  0.00    +0.020 C 
ATOM      9  C   UNL     1      -1.319  -1.030  24.738  0.00  0.00    +0.074 C 
ATOM     10  C   UNL     1      -2.020  -0.857  26.104  0.00  0.00    +0.024 C 
ATOM     11  C   UNL     1      -3.427  -0.433  23.667  0.00  0.00    +0.089 C 
ATOM     12  C   UNL     1      -3.417  -2.789  25.421  0.00  0.00    +0.019 C 
ATOM     13  C   UNL     1      -2.837  -2.738  23.997  0.00  0.00    +0.085 C 
ENDROOT
BRANCH   8  14
ATOM     14  C   UNL     1      -4.571   0.902  25.502  0.00  0.00    +0.089 C 
BRANCH  14   5
ATOM      1  O   UNL     1      -2.743   4.564  24.573  0.00  0.00    -0.377 OA
ATOM      5  N   UNL     1      -3.744   1.914  24.847  0.00  0.00    -0.298 NA
ATOM     16  C   UNL     1      -2.751   2.460  25.782  0.00  0.00    +0.112 C 
ATOM     17  C   UNL     1      -4.575   2.997  24.306  0.00  0.00    +0.112 C 
ATOM     18  C   UNL     1      -1.908   3.522  25.082  0.00  0.00    +0.175 C 
ATOM     19  C   UNL     1      -3.689   4.045  23.638  0.00  0.00    +0.175 C 
ENDBRANCH  14   5
ENDBRANCH   8  14
BRANCH   9  15
ATOM     15  C   UNL     1      -0.486   0.200  24.366  0.00  0.00    +0.123 C 
BRANCH  15   6
ATOM      2  O   UNL     1       1.768   1.873  23.672  0.00  0.00    -0.273 OA
ATOM      6  N   UNL     1       0.689  -0.185  23.603  0.00  0.00    -0.312 N 
ATOM     20  C   UNL     1       1.716   0.696  23.325  0.00  0.00    +0.239 C 
ATOM     23  H   UNL     1       0.744  -1.141  23.264  0.00  0.00    +0.149 HD
BRANCH  20  21
ATOM     21  C   UNL     1       2.811   0.032  22.518  0.00  0.00    +0.255 C 
BRANCH  21   3
ATOM      3  O   UNL     1       3.979   0.825  22.513  0.00  0.00    -0.374 OA
ATOM     22  C   UNL     1       5.040   0.210  23.238  0.00  0.00    +0.194 C 
ENDBRANCH  21   3
ENDBRANCH  20  21
ENDBRANCH  15   6
ENDBRANCH   9  15
TORSDOF 6
ENDMDL
MODEL 4
REMARK VINA RESULT:      -5.0      2.200      4.341
REMARK  Name = 28991027
REMARK  7 active torsions:
REMARK  status: ('A' for Active; 'I' for Inactive)
REMARK    1  A    between atoms: O_3  and  C_21
REMARK    2  A    between atoms: O_3  and  C_22
REMARK    3  A    between atoms: N_5  and  C_14
REMARK    4  A    between atoms: N_6  and  C_15
REMARK    5  A    between atoms: C_8  and  C_14
REMARK    6  A    between atoms: C_9  and  C_15
REMARK    7  A    between atoms: C_20  and  C_21
REMARK                            x       y       z     vdW  Elec       q    Type
REMARK                         _______ _______ _______ _____ _____    ______ ____
ROOT
ATOM      4  N   UNL     1      -0.456   2.059  25.673  0.00  0.00    -0.298 NA
ATOM      7  C   UNL     1      -2.393   3.071  24.261  0.00  0.00    -0.003 C 
ATOM      8  C   UNL     1      -2.868   1.818  25.033  0.00  0.00    +0.020 C 
ATOM      9  C   UNL     1      -0.018   2.238  24.262  0.00  0.00    +0.074 C 
ATOM     10  C   UNL     1      -1.194   2.697  23.371  0.00  0.00    +0.024 C 
ATOM     11  C   UNL     1      -1.649   1.180  25.735  0.00  0.00    +0.089 C 
ATOM     12  C   UNL     1      -1.884   4.077  25.312  0.00  0.00    +0.019 C 
ATOM     13  C   UNL     1      -0.836   3.391  26.205  0.00  0.00    +0.085 C 
ENDROOT
BRANCH   8  14
ATOM     14  C   UNL     1      -3.602   0.811  24.152  0.00  0.00    +0.089 C 
BRANCH  14   5
ATOM      1  O   UNL     1      -2.597  -3.260  23.991  0.00  0.00    -0.377 OA
ATOM      5  N   UNL     1      -3.293  -0.559  24.556  0.00  0.00    -0.298 NA
ATOM     16  C   UNL     1      -1.934  -0.931  24.139  0.00  0.00    +0.112 C 
ATOM     17  C   UNL     1      -4.268  -1.502  23.992  0.00  0.00    +0.112 C 
ATOM     18  C   UNL     1      -1.637  -2.367  24.559  0.00  0.00    +0.175 C 
ATOM     19  C   UNL     1      -3.918  -2.924  24.419  0.00  0.00    +0.175 C 
ENDBRANCH  14   5
ENDBRANCH   8  14
BRANCH   9  15
ATOM     15  C   UNL     1       0.668   0.990  23.701  0.00  0.00    +0.123 C 
BRANCH  15   6
ATOM      2  O   UNL     1       2.402  -0.238  21.740  0.00  0.00    -0.273 OA
ATOM      6  N   UNL     1       2.092   1.220  23.524  0.00  0.00    -0.312 N 
ATOM     20  C   UNL     1       2.833   0.579  22.550  0.00  0.00    +0.239 C 
ATOM     23  H   UNL     1       2.548   1.879  24.148  0.00  0.00    +0.149 HD
BRANCH  20  21
ATOM     21  C   UNL     1       4.284   1.006  22.589  0.00  0.00    +0.255 C 
BRANCH  21   3
ATOM      3  O   UNL     1       4.839   0.772  23.866  0.00  0.00    -0.374 OA
ATOM     22  C   UNL     1       5.435  -0.519  23.957  0.00  0.00    +0.194 C 
ENDBRANCH  21   3
ENDBRANCH  20  21
ENDBRANCH  15   6
ENDBRANCH   9  15
TORSDOF 6
ENDMDL
MODEL 5
REMARK VINA RESULT:      -4.9      2.021      4.248
REMARK  Name = 28991027
REMARK  7 active torsions:
REMARK  status: ('A' for Active; 'I' for Inactive)
REMARK    1  A    between atoms: O_3  and  C_21
REMARK    2  A    between atoms: O_3  and  C_22
REMARK    3  A    between atoms: N_5  and  C_14
REMARK    4  A    between atoms: N_6  and  C_15
REMARK    5  A    between atoms: C_8  and  C_14
REMARK    6  A    between atoms: C_9  and  C_15
REMARK    7  A    between atoms: C_20  and  C_21
REMARK                            x       y       z     vdW  Elec       q    Type
REMARK                         _______ _______ _______ _____ _____    ______ ____
ROOT
ATOM      4  N   UNL     1      -1.574   2.554  25.171  0.00  0.00    -0.298 NA
ATOM      7  C   UNL     1      -3.623   2.844  23.593  0.00  0.00    -0.003 C 
ATOM      8  C   UNL     1      -4.002   2.020  24.846  0.00  0.00    +0.020 C 
ATOM      9  C   UNL     1      -1.217   2.135  23.788  0.00  0.00    +0.074 C 
ATOM     10  C   UNL     1      -2.455   2.154  22.865  0.00  0.00    +0.024 C 
ATOM     11  C   UNL     1      -2.721   1.758  25.670  0.00  0.00    +0.089 C 
ATOM     12  C   UNL     1      -3.108   4.207  24.094  0.00  0.00    +0.019 C 
ATOM     13  C   UNL     1      -1.986   3.978  25.122  0.00  0.00    +0.085 C 
ENDROOT
BRANCH   8  14
ATOM     14  C   UNL     1      -4.734   0.722  24.514  0.00  0.00    +0.089 C 
BRANCH  14   5
ATOM      1  O   UNL     1      -3.304  -3.149  25.281  0.00  0.00    -0.377 OA
ATOM      5  N   UNL     1      -3.840  -0.427  24.641  0.00  0.00    -0.298 NA
ATOM     16  C   UNL     1      -4.273  -1.523  23.762  0.00  0.00    +0.112 C 
ATOM     17  C   UNL     1      -3.782  -0.893  26.033  0.00  0.00    +0.112 C 
ATOM     18  C   UNL     1      -3.334  -2.715  23.920  0.00  0.00    +0.175 C 
ATOM     19  C   UNL     1      -2.853  -2.098  26.137  0.00  0.00    +0.175 C 
ENDBRANCH  14   5
ENDBRANCH   8  14
BRANCH   9  15
ATOM     15  C   UNL     1      -0.504   0.780  23.756  0.00  0.00    +0.123 C 
BRANCH  15   6
ATOM      2  O   UNL     1       1.315  -0.428  21.859  0.00  0.00    -0.273 OA
ATOM      6  N   UNL     1       0.937   0.957  23.688  0.00  0.00    -0.312 N 
ATOM     20  C   UNL     1       1.719   0.331  22.737  0.00  0.00    +0.239 C 
ATOM     23  H   UNL     1       1.374   1.565  24.375  0.00  0.00    +0.149 HD
BRANCH  20  21
ATOM     21  C   UNL     1       3.180   0.693  22.898  0.00  0.00    +0.255 C 
BRANCH  21   3
ATOM      3  O   UNL     1       3.953  -0.458  23.164  0.00  0.00    -0.374 OA
ATOM     22  C   UNL     1       5.287  -0.127  23.535  0.00  0.00    +0.194 C 
ENDBRANCH  21   3
ENDBRANCH  20  21
ENDBRANCH  15   6
ENDBRANCH   9  15
TORSDOF 6
ENDMDL
MODEL 6
REMARK VINA RESULT:      -4.7      2.173      2.989
REMARK  Name = 28991027
REMARK  7 active torsions:
REMARK  status: ('A' for Active; 'I' for Inactive)
REMARK    1  A    between atoms: O_3  and  C_21
REMARK    2  A    between atoms: O_3  and  C_22
REMARK    3  A    between atoms: N_5  and  C_14
REMARK    4  A    between atoms: N_6  and  C_15
REMARK    5  A    between atoms: C_8  and  C_14
REMARK    6  A    between atoms: C_9  and  C_15
REMARK    7  A    between atoms: C_20  and  C_21
REMARK                            x       y       z     vdW  Elec       q    Type
REMARK                         _______ _______ _______ _____ _____    ______ ____
ROOT
ATOM      4  N   UNL     1      -2.045  -2.310  24.261  0.00  0.00    -0.298 NA
ATOM      7  C   UNL     1      -3.386  -0.672  25.773  0.00  0.00    -0.003 C 
ATOM      8  C   UNL     1      -3.891  -0.614  24.313  0.00  0.00    +0.020 C 
ATOM      9  C   UNL     1      -1.110  -1.431  25.014  0.00  0.00    +0.074 C 
ATOM     10  C   UNL     1      -1.881  -0.350  25.805  0.00  0.00    +0.024 C 
ATOM     11  C   UNL     1      -2.970  -1.494  23.438  0.00  0.00    +0.089 C 
ATOM     12  C   UNL     1      -3.551  -2.130  26.246  0.00  0.00    +0.019 C 
ATOM     13  C   UNL     1      -2.853  -3.069  25.247  0.00  0.00    +0.085 C 
ENDROOT
BRANCH   8  14
ATOM     14  C   UNL     1      -3.997   0.807  23.768  0.00  0.00    +0.089 C 
BRANCH  14   5
ATOM      1  O   UNL     1      -5.871   3.970  25.794  0.00  0.00    -0.377 OA
ATOM      5  N   UNL     1      -4.390   1.742  24.821  0.00  0.00    -0.298 NA
ATOM     16  C   UNL     1      -5.832   1.648  25.089  0.00  0.00    +0.112 C 
ATOM     17  C   UNL     1      -4.035   3.120  24.455  0.00  0.00    +0.112 C 
ATOM     18  C   UNL     1      -6.222   2.641  26.181  0.00  0.00    +0.175 C 
ATOM     19  C   UNL     1      -4.465   4.076  25.563  0.00  0.00    +0.175 C 
ENDBRANCH  14   5
ENDBRANCH   8  14
BRANCH   9  15
ATOM     15  C   UNL     1      -0.034  -0.818  24.114  0.00  0.00    +0.123 C 
BRANCH  15   6
ATOM      2  O   UNL     1      -1.105   1.655  23.065  0.00  0.00    -0.273 OA
ATOM      6  N   UNL     1       0.291   0.531  24.546  0.00  0.00    -0.312 N 
ATOM     20  C   UNL     1      -0.280   1.652  23.976  0.00  0.00    +0.239 C 
ATOM     23  H   UNL     1       0.969   0.640  25.295  0.00  0.00    +0.149 HD
BRANCH  20  21
ATOM     21  C   UNL     1       0.237   2.922  24.617  0.00  0.00    +0.255 C 
BRANCH  21   3
ATOM      3  O   UNL     1      -0.791   3.572  25.335  0.00  0.00    -0.374 OA
ATOM     22  C   UNL     1      -0.921   4.939  24.954  0.00  0.00    +0.194 C 
ENDBRANCH  21   3
ENDBRANCH  20  21
ENDBRANCH  15   6
ENDBRANCH   9  15
TORSDOF 6
ENDMDL
MODEL 7
REMARK VINA RESULT:      -4.6      2.175      4.812
REMARK  Name = 28991027
REMARK  7 active torsions:
REMARK  status: ('A' for Active; 'I' for Inactive)
REMARK    1  A    between atoms: O_3  and  C_21
REMARK    2  A    between atoms: O_3  and  C_22
REMARK    3  A    between atoms: N_5  and  C_14
REMARK    4  A    between atoms: N_6  and  C_15
REMARK    5  A    between atoms: C_8  and  C_14
REMARK    6  A    between atoms: C_9  and  C_15
REMARK    7  A    between atoms: C_20  and  C_21
REMARK                            x       y       z     vdW  Elec       q    Type
REMARK                         _______ _______ _______ _____ _____    ______ ____
ROOT
ATOM      4  N   UNL     1      -3.006   3.372  26.146  0.00  0.00    -0.298 NA
ATOM      7  C   UNL     1      -4.333   2.984  23.942  0.00  0.00    -0.003 C 
ATOM      8  C   UNL     1      -3.681   1.670  24.432  0.00  0.00    +0.020 C 
ATOM      9  C   UNL     1      -2.580   4.356  25.114  0.00  0.00    +0.074 C 
ATOM     10  C   UNL     1      -3.243   4.054  23.752  0.00  0.00    +0.024 C 
ATOM     11  C   UNL     1      -2.793   1.988  25.657  0.00  0.00    +0.089 C 
ATOM     12  C   UNL     1      -5.260   3.472  25.072  0.00  0.00    +0.019 C 
ATOM     13  C   UNL     1      -4.458   3.560  26.383  0.00  0.00    +0.085 C 
ENDROOT
BRANCH   8  14
ATOM     14  C   UNL     1      -2.899   0.943  23.343  0.00  0.00    +0.089 C 
BRANCH  14   5
ATOM      1  O   UNL     1      -3.342  -2.819  25.151  0.00  0.00    -0.377 OA
ATOM      5  N   UNL     1      -2.952  -0.504  23.540  0.00  0.00    -0.298 NA
ATOM     16  C   UNL     1      -4.292  -0.923  23.971  0.00  0.00    +0.112 C 
ATOM     17  C   UNL     1      -1.950  -0.933  24.526  0.00  0.00    +0.112 C 
ATOM     18  C   UNL     1      -4.320  -2.434  24.183  0.00  0.00    +0.175 C 
ATOM     19  C   UNL     1      -2.031  -2.444  24.723  0.00  0.00    +0.175 C 
ENDBRANCH  14   5
ENDBRANCH   8  14
BRANCH   9  15
ATOM     15  C   UNL     1      -1.057   4.456  24.996  0.00  0.00    +0.123 C 
BRANCH  15   6
ATOM      2  O   UNL     1       0.611   2.323  26.014  0.00  0.00    -0.273 OA
ATOM      6  N   UNL     1      -0.523   3.328  24.251  0.00  0.00    -0.312 N 
ATOM     20  C   UNL     1       0.268   2.358  24.835  0.00  0.00    +0.239 C 
ATOM     23  H   UNL     1      -0.746   3.264  23.262  0.00  0.00    +0.149 HD
BRANCH  20  21
ATOM     21  C   UNL     1       0.682   1.304  23.831  0.00  0.00    +0.255 C 
BRANCH  21   3
ATOM      3  O   UNL     1       2.052   1.428  23.513  0.00  0.00    -0.374 OA
ATOM     22  C   UNL     1       2.521   0.322  22.748  0.00  0.00    +0.194 C 
ENDBRANCH  21   3
ENDBRANCH  20  21
ENDBRANCH  15   6
ENDBRANCH   9  15
TORSDOF 6
ENDMDL
MODEL 8
REMARK VINA RESULT:      -4.1      2.566      3.096
REMARK  Name = 28991027
REMARK  7 active torsions:
REMARK  status: ('A' for Active; 'I' for Inactive)
REMARK    1  A    between atoms: O_3  and  C_21
REMARK    2  A    between atoms: O_3  and  C_22
REMARK    3  A    between atoms: N_5  and  C_14
REMARK    4  A    between atoms: N_6  and  C_15
REMARK    5  A    between atoms: C_8  and  C_14
REMARK    6  A    between atoms: C_9  and  C_15
REMARK    7  A    between atoms: C_20  and  C_21
REMARK                            x       y       z     vdW  Elec       q    Type
REMARK                         _______ _______ _______ _____ _____    ______ ____
ROOT
ATOM      4  N   UNL     1      -2.047  -1.266  23.801  0.00  0.00    -0.298 NA
ATOM      7  C   UNL     1      -3.764  -1.337  25.755  0.00  0.00    -0.003 C 
ATOM      8  C   UNL     1      -4.341  -0.575  24.540  0.00  0.00    +0.020 C 
ATOM      9  C   UNL     1      -1.411  -0.780  25.056  0.00  0.00    +0.074 C 
ATOM     10  C   UNL     1      -2.448  -0.670  26.197  0.00  0.00    +0.024 C 
ATOM     11  C   UNL     1      -3.233  -0.439  23.471  0.00  0.00    +0.089 C 
ATOM     12  C   UNL     1      -3.414  -2.757  25.267  0.00  0.00    +0.019 C 
ATOM     13  C   UNL     1      -2.503  -2.658  24.031  0.00  0.00    +0.085 C 
ENDROOT
BRANCH   8  14
ATOM     14  C   UNL     1      -4.938   0.780  24.908  0.00  0.00    +0.089 C 
BRANCH  14   5
ATOM      1  O   UNL     1      -2.987   4.487  24.645  0.00  0.00    -0.377 OA
ATOM      5  N   UNL     1      -3.902   1.810  24.960  0.00  0.00    -0.298 NA
ATOM     16  C   UNL     1      -4.261   2.862  25.920  0.00  0.00    +0.112 C 
ATOM     17  C   UNL     1      -3.682   2.396  23.630  0.00  0.00    +0.112 C 
ATOM     18  C   UNL     1      -3.172   3.932  25.948  0.00  0.00    +0.175 C 
ATOM     19  C   UNL     1      -2.606   3.474  23.712  0.00  0.00    +0.175 C 
ENDBRANCH  14   5
ENDBRANCH   8  14
BRANCH   9  15
ATOM     15  C   UNL     1      -0.648   0.532  24.853  0.00  0.00    +0.123 C 
BRANCH  15   6
ATOM      2  O   UNL     1       0.218   3.246  25.349  0.00  0.00    -0.273 OA
ATOM      6  N   UNL     1      -0.274   1.113  26.131  0.00  0.00    -0.312 N 
ATOM     20  C   UNL     1       0.128   2.429  26.261  0.00  0.00    +0.239 C 
ATOM     23  H   UNL     1      -0.310   0.517  26.953  0.00  0.00    +0.149 HD
BRANCH  20  21
ATOM     21  C   UNL     1       0.457   2.767  27.700  0.00  0.00    +0.255 C 
BRANCH  21   3
ATOM      3  O   UNL     1       1.854   2.759  27.907  0.00  0.00    -0.374 OA
ATOM     22  C   UNL     1       2.184   2.607  29.284  0.00  0.00    +0.194 C 
ENDBRANCH  21   3
ENDBRANCH  20  21
ENDBRANCH  15   6
ENDBRANCH   9  15
TORSDOF 6
ENDMDL
MODEL 9
REMARK VINA RESULT:      -3.8      2.585      4.701
REMARK  Name = 28991027
REMARK  7 active torsions:
REMARK  status: ('A' for Active; 'I' for Inactive)
REMARK    1  A    between atoms: O_3  and  C_21
REMARK    2  A    between atoms: O_3  and  C_22
REMARK    3  A    between atoms: N_5  and  C_14
REMARK    4  A    between atoms: N_6  and  C_15
REMARK    5  A    between atoms: C_8  and  C_14
REMARK    6  A    between atoms: C_9  and  C_15
REMARK    7  A    between atoms: C_20  and  C_21
REMARK                            x       y       z     vdW  Elec       q    Type
REMARK                         _______ _______ _______ _____ _____    ______ ____
ROOT
ATOM      4  N   UNL     1      -0.171   1.355  25.653  0.00  0.00    -0.298 NA
ATOM      7  C   UNL     1      -0.878   3.462  24.299  0.00  0.00    -0.003 C 
ATOM      8  C   UNL     1      -2.118   2.688  24.804  0.00  0.00    +0.020 C 
ATOM      9  C   UNL     1       0.512   1.364  24.331  0.00  0.00    +0.074 C 
ATOM     10  C   UNL     1      -0.004   2.523  23.448  0.00  0.00    +0.024 C 
ATOM     11  C   UNL     1      -1.643   1.378  25.473  0.00  0.00    +0.089 C 
ATOM     12  C   UNL     1      -0.055   3.848  25.544  0.00  0.00    +0.019 C 
ATOM     13  C   UNL     1       0.225   2.587  26.379  0.00  0.00    +0.085 C 
ENDROOT
BRANCH   8  14
ATOM     14  C   UNL     1      -3.148   2.421  23.710  0.00  0.00    +0.089 C 
BRANCH  14   5
ATOM      1  O   UNL     1      -6.456   2.750  26.273  0.00  0.00    -0.377 OA
ATOM      5  N   UNL     1      -4.504   2.653  24.203  0.00  0.00    -0.298 NA
ATOM     16  C   UNL     1      -4.521   3.739  25.192  0.00  0.00    +0.112 C 
ATOM     17  C   UNL     1      -5.063   1.428  24.791  0.00  0.00    +0.112 C 
ATOM     18  C   UNL     1      -5.944   3.955  25.701  0.00  0.00    +0.175 C 
ATOM     19  C   UNL     1      -6.473   1.698  25.307  0.00  0.00    +0.175 C 
ENDBRANCH  14   5
ENDBRANCH   8  14
BRANCH   9  15
ATOM     15  C   UNL     1       0.412   0.016  23.613  0.00  0.00    +0.123 C 
BRANCH  15   6
ATOM      2  O   UNL     1       0.048  -2.183  25.457  0.00  0.00    -0.273 OA
ATOM      6  N   UNL     1      -0.834  -0.653  23.944  0.00  0.00    -0.312 N 
ATOM     20  C   UNL     1      -0.901  -1.700  24.844  0.00  0.00    +0.239 C 
ATOM     23  H   UNL     1      -1.683  -0.332  23.487  0.00  0.00    +0.149 HD
BRANCH  20  21
ATOM     21  C   UNL     1      -2.319  -2.206  25.000  0.00  0.00    +0.255 C 
BRANCH  21   3
ATOM      3  O   UNL     1      -3.214  -1.424  24.237  0.00  0.00    -0.374 OA
ATOM     22  C   UNL     1      -4.348  -2.175  23.816  0.00  0.00    +0.194 C 
ENDBRANCH  21   3
ENDBRANCH  20  21
ENDBRANCH  15   6
ENDBRANCH   9  15
TORSDOF 6
ENDMDL
MODEL 10
REMARK VINA RESULT:      -3.7      3.102      6.543
REMARK  Name = 28991027
REMARK  7 active torsions:
REMARK  status: ('A' for Active; 'I' for Inactive)
REMARK    1  A    between atoms: O_3  and  C_21
REMARK    2  A    between atoms: O_3  and  C_22
REMARK    3  A    between atoms: N_5  and  C_14
REMARK    4  A    between atoms: N_6  and  C_15
REMARK    5  A    between atoms: C_8  and  C_14
REMARK    6  A    between atoms: C_9  and  C_15
REMARK    7  A    between atoms: C_20  and  C_21
REMARK                            x       y       z     vdW  Elec       q    Type
REMARK                         _______ _______ _______ _____ _____    ______ ____
ROOT
ATOM      4  N   UNL     1      -0.532   3.552  23.870  0.00  0.00    -0.298 NA
ATOM      7  C   UNL     1      -0.586   1.347  25.251  0.00  0.00    -0.003 C 
ATOM      8  C   UNL     1      -1.489   1.238  24.000  0.00  0.00    +0.020 C 
ATOM      9  C   UNL     1      -0.854   3.849  25.293  0.00  0.00    +0.074 C 
ATOM     10  C   UNL     1      -1.040   2.546  26.103  0.00  0.00    +0.024 C 
ATOM     11  C   UNL     1      -1.531   2.616  23.301  0.00  0.00    +0.089 C 
ATOM     12  C   UNL     1       0.838   1.656  24.749  0.00  0.00    +0.019 C 
ATOM     13  C   UNL     1       0.795   2.891  23.832  0.00  0.00    +0.085 C 
ENDROOT
BRANCH   8  14
ATOM     14  C   UNL     1      -2.890   0.721  24.312  0.00  0.00    +0.089 C 
BRANCH  14   5
ATOM      1  O   UNL     1      -3.600  -3.403  24.639  0.00  0.00    -0.377 OA
ATOM      5  N   UNL     1      -3.010  -0.697  23.980  0.00  0.00    -0.298 NA
ATOM     16  C   UNL     1      -4.393  -1.160  24.158  0.00  0.00    +0.112 C 
ATOM     17  C   UNL     1      -2.098  -1.504  24.803  0.00  0.00    +0.112 C 
ATOM     18  C   UNL     1      -4.490  -2.645  23.818  0.00  0.00    +0.175 C 
ATOM     19  C   UNL     1      -2.249  -2.980  24.446  0.00  0.00    +0.175 C 
ENDBRANCH  14   5
ENDBRANCH   8  14
BRANCH   9  15
ATOM     15  C   UNL     1      -2.057   4.784  25.436  0.00  0.00    +0.123 C 
BRANCH  15   6
ATOM      2  O   UNL     1      -4.532   4.081  24.115  0.00  0.00    -0.273 OA
ATOM      6  N   UNL     1      -3.190   4.082  26.014  0.00  0.00    -0.312 N 
ATOM     20  C   UNL     1      -4.332   3.792  25.292  0.00  0.00    +0.239 C 
ATOM     23  H   UNL     1      -3.129   3.800  26.988  0.00  0.00    +0.149 HD
BRANCH  20  21
ATOM     21  C   UNL     1      -5.348   3.055  26.138  0.00  0.00    +0.255 C 
BRANCH  21   3
ATOM      3  O   UNL     1      -5.514   1.731  25.678  0.00  0.00    -0.374 OA
ATOM     22  C   UNL     1      -6.632   1.609  24.804  0.00  0.00    +0.194 C 
ENDBRANCH  21   3
ENDBRANCH  20  21
ENDBRANCH  15   6
ENDBRANCH   9  15
TORSDOF 6
ENDMDL
