MODEL 1
REMARK VINA RESULT:       5.8      0.000      0.000
REMARK  Name = 11912192
REMARK  6 active torsions:
REMARK  status: ('A' for Active; 'I' for Inactive)
REMARK    1  A    between atoms: S_1  and  N_8
REMARK    2  A    between atoms: S_1  and  C_20
REMARK    3  A    between atoms: N_8  and  C_15
REMARK    4  A    between atoms: N_9  and  C_16
REMARK    5  A    between atoms: C_21  and  C_30
REMARK    6  A    between atoms: C_23  and  C_28
REMARK                            x       y       z     vdW  Elec       q    Type
REMARK                         _______ _______ _______ _____ _____    ______ ____
ROOT
ATOM      2  O   UNL     1      -1.010   2.835  23.126  0.00  0.00    -0.370 OA
ATOM      3  O   UNL     1      -0.735   4.487  25.765  0.00  0.00    -0.370 OA
ATOM     13  C   UNL     1      -1.089   3.122  25.488  0.00  0.00    +0.170 C 
ATOM     14  C   UNL     1      -1.909   3.118  24.212  0.00  0.00    +0.171 C 
ATOM     15  C   UNL     1       0.145   2.325  25.136  0.00  0.00    +0.133 C 
ATOM     16  C   UNL     1      -2.431   4.531  24.105  0.00  0.00    +0.130 C 
ATOM     17  C   UNL     1       0.303   2.590  23.651  0.00  0.00    +0.183 C 
ATOM     18  C   UNL     1      -1.344   5.341  24.786  0.00  0.00    +0.185 C 
ENDROOT
BRANCH  16   9
ATOM      9  N   UNL     1      -3.676   4.655  24.830  0.00  0.00    -0.306 N 
ATOM     10  N   UNL     1      -3.933   2.330  25.006  0.00  0.00    -0.214 NA
ATOM     11  N   UNL     1      -5.568   3.830  25.947  0.00  0.00    -0.223 NA
ATOM     19  C   UNL     1      -4.415   3.573  25.274  0.00  0.00    +0.216 A 
ATOM     23  C   UNL     1      -4.679   1.297  25.454  0.00  0.00    +0.076 A 
ATOM     24  C   UNL     1      -6.262   2.752  26.365  0.00  0.00    +0.116 A 
ATOM     26  C   UNL     1      -5.863   1.450  26.146  0.00  0.00    +0.048 A 
ATOM     38  H   UNL     1      -4.017   5.577  25.081  0.00  0.00    +0.149 HD
BRANCH  23  28
ATOM      6  O   UNL     1      -4.512  -2.853  22.861  0.00  0.00    -0.453 OA
ATOM      7  O   UNL     1      -2.736  -3.754  24.217  0.00  0.00    -0.453 OA
ATOM     28  C   UNL     1      -4.150  -0.013  25.160  0.00  0.00    +0.004 A 
ATOM     31  C   UNL     1      -4.670  -0.751  24.091  0.00  0.00    +0.059 A 
ATOM     32  C   UNL     1      -3.112  -0.542  25.951  0.00  0.00    +0.014 A 
ATOM     33  C   UNL     1      -4.132  -1.999  23.848  0.00  0.00    +0.167 A 
ATOM     34  C   UNL     1      -3.118  -2.513  24.624  0.00  0.00    +0.166 A 
ATOM     35  C   UNL     1      -2.586  -1.808  25.684  0.00  0.00    +0.050 A 
ATOM     36  C   UNL     1      -3.623  -3.963  23.099  0.00  0.00    +0.466 C 
ENDBRANCH  23  28
ENDBRANCH  16   9
BRANCH  15   8
ATOM      8  N   UNL     1      -0.115   0.881  25.357  0.00  0.00    -0.182 NA
ATOM     37  H   UNL     1      -0.697   0.608  26.157  0.00  0.00    +0.148 HD
BRANCH   8   1
ATOM      1  S   UNL     1       0.134  -0.185  24.042  0.00  0.00    +0.060 S 
ATOM      4  O   UNL     1      -0.778   0.154  22.967  0.00  0.00    -0.153 OA
ATOM      5  O   UNL     1       0.231  -1.539  24.551  0.00  0.00    -0.153 OA
BRANCH   1  20
ATOM     20  C   UNL     1       1.775   0.143  23.399  0.00  0.00    +0.123 A 
ATOM     21  C   UNL     1       2.058  -0.073  22.071  0.00  0.00    +0.078 A 
ATOM     22  C   UNL     1       2.709   0.609  24.296  0.00  0.00    +0.030 A 
ATOM     25  C   UNL     1       3.348   0.193  21.612  0.00  0.00    +0.021 A 
ATOM     27  C   UNL     1       3.999   0.874  23.837  0.00  0.00    +0.002 A 
ATOM     29  C   UNL     1       4.319   0.667  22.495  0.00  0.00    +0.001 A 
BRANCH  21  30
ATOM     12  N   UNL     1       0.301  -0.952  20.383  0.00  0.00    -0.191 NA
ATOM     30  C   UNL     1       1.087  -0.559  21.138  0.00  0.00    +0.101 C 
ENDBRANCH  21  30
ENDBRANCH   1  20
ENDBRANCH   8   1
ENDBRANCH  15   8
TORSDOF 6
ENDMDL
MODEL 2
REMARK VINA RESULT:       6.2      1.306      2.002
REMARK  Name = 11912192
REMARK  6 active torsions:
REMARK  status: ('A' for Active; 'I' for Inactive)
REMARK    1  A    between atoms: S_1  and  N_8
REMARK    2  A    between atoms: S_1  and  C_20
REMARK    3  A    between atoms: N_8  and  C_15
REMARK    4  A    between atoms: N_9  and  C_16
REMARK    5  A    between atoms: C_21  and  C_30
REMARK    6  A    between atoms: C_23  and  C_28
REMARK                            x       y       z     vdW  Elec       q    Type
REMARK                         _______ _______ _______ _____ _____    ______ ____
ROOT
ATOM      2  O   UNL     1      -3.045   2.772  21.926  0.00  0.00    -0.370 OA
ATOM      3  O   UNL     1      -1.933   3.965  24.592  0.00  0.00    -0.370 OA
ATOM     13  C   UNL     1      -2.482   2.685  24.237  0.00  0.00    +0.170 C 
ATOM     14  C   UNL     1      -3.600   2.933  23.242  0.00  0.00    +0.171 C 
ATOM     15  C   UNL     1      -1.468   1.881  23.460  0.00  0.00    +0.133 C 
ATOM     16  C   UNL     1      -3.988   4.375  23.475  0.00  0.00    +0.130 C 
ATOM     17  C   UNL     1      -1.672   2.368  22.038  0.00  0.00    +0.183 C 
ATOM     18  C   UNL     1      -2.686   4.999  23.940  0.00  0.00    +0.185 C 
ENDROOT
BRANCH  16   9
ATOM      9  N   UNL     1      -4.985   4.457  24.519  0.00  0.00    -0.306 N 
ATOM     10  N   UNL     1      -4.834   2.165  24.997  0.00  0.00    -0.214 NA
ATOM     11  N   UNL     1      -6.344   3.588  26.223  0.00  0.00    -0.223 NA
ATOM     19  C   UNL     1      -5.400   3.371  25.269  0.00  0.00    +0.216 A 
ATOM     23  C   UNL     1      -5.262   1.128  25.747  0.00  0.00    +0.076 A 
ATOM     24  C   UNL     1      -6.726   2.507  26.934  0.00  0.00    +0.116 A 
ATOM     26  C   UNL     1      -6.215   1.240  26.739  0.00  0.00    +0.048 A 
ATOM     38  H   UNL     1      -5.374   5.360  24.765  0.00  0.00    +0.149 HD
BRANCH  23  28
ATOM      6  O   UNL     1      -4.451  -2.739  22.853  0.00  0.00    -0.453 OA
ATOM      7  O   UNL     1      -2.970  -3.760  24.455  0.00  0.00    -0.453 OA
ATOM     28  C   UNL     1      -4.649  -0.142  25.443  0.00  0.00    +0.004 A 
ATOM     31  C   UNL     1      -4.917  -0.772  24.223  0.00  0.00    +0.059 A 
ATOM     32  C   UNL     1      -3.782  -0.742  26.376  0.00  0.00    +0.014 A 
ATOM     33  C   UNL     1      -4.307  -1.986  23.977  0.00  0.00    +0.167 A 
ATOM     34  C   UNL     1      -3.461  -2.569  24.893  0.00  0.00    +0.166 A 
ATOM     35  C   UNL     1      -3.178  -1.971  26.103  0.00  0.00    +0.050 A 
ATOM     36  C   UNL     1      -3.600  -3.861  23.162  0.00  0.00    +0.466 C 
ENDBRANCH  23  28
ENDBRANCH  16   9
BRANCH  15   8
ATOM      8  N   UNL     1      -1.805   0.439  23.544  0.00  0.00    -0.182 NA
ATOM     37  H   UNL     1      -2.647   0.106  23.060  0.00  0.00    +0.148 HD
BRANCH   8   1
ATOM      1  S   UNL     1      -0.562  -0.645  23.999  0.00  0.00    +0.060 S 
ATOM      4  O   UNL     1      -0.758  -1.914  23.325  0.00  0.00    -0.153 OA
ATOM      5  O   UNL     1      -0.382  -0.574  25.435  0.00  0.00    -0.153 OA
BRANCH   1  20
ATOM     20  C   UNL     1       0.975   0.010  23.349  0.00  0.00    +0.123 A 
ATOM     21  C   UNL     1       1.544   1.132  23.903  0.00  0.00    +0.078 A 
ATOM     22  C   UNL     1       1.534  -0.663  22.286  0.00  0.00    +0.030 A 
ATOM     25  C   UNL     1       2.739   1.609  23.366  0.00  0.00    +0.021 A 
ATOM     27  C   UNL     1       2.729  -0.185  21.749  0.00  0.00    +0.002 A 
ATOM     29  C   UNL     1       3.332   0.951  22.289  0.00  0.00    +0.001 A 
BRANCH  21  30
ATOM     12  N   UNL     1       0.491   2.399  25.903  0.00  0.00    -0.191 NA
ATOM     30  C   UNL     1       0.962   1.833  25.008  0.00  0.00    +0.101 C 
ENDBRANCH  21  30
ENDBRANCH   1  20
ENDBRANCH   8   1
ENDBRANCH  15   8
TORSDOF 6
ENDMDL
MODEL 3
REMARK VINA RESULT:       6.7      2.412      5.156
REMARK  Name = 11912192
REMARK  6 active torsions:
REMARK  status: ('A' for Active; 'I' for Inactive)
REMARK    1  A    between atoms: S_1  and  N_8
REMARK    2  A    between atoms: S_1  and  C_20
REMARK    3  A    between atoms: N_8  and  C_15
REMARK    4  A    between atoms: N_9  and  C_16
REMARK    5  A    between atoms: C_21  and  C_30
REMARK    6  A    between atoms: C_23  and  C_28
REMARK                            x       y       z     vdW  Elec       q    Type
REMARK                         _______ _______ _______ _____ _____    ______ ____
ROOT
ATOM      2  O   UNL     1      -2.094  -1.606  26.042  0.00  0.00    -0.370 OA
ATOM      3  O   UNL     1      -2.994  -1.316  23.064  0.00  0.00    -0.370 OA
ATOM     13  C   UNL     1      -2.020  -0.634  23.871  0.00  0.00    +0.170 C 
ATOM     14  C   UNL     1      -2.600  -0.506  25.267  0.00  0.00    +0.171 C 
ATOM     15  C   UNL     1      -0.798  -1.501  24.057  0.00  0.00    +0.133 C 
ATOM     16  C   UNL     1      -4.090  -0.651  25.062  0.00  0.00    +0.130 C 
ATOM     17  C   UNL     1      -1.179  -2.368  25.241  0.00  0.00    +0.183 C 
ATOM     18  C   UNL     1      -4.173  -1.555  23.846  0.00  0.00    +0.185 C 
ENDROOT
BRANCH  16   9
ATOM      9  N   UNL     1      -4.677   0.637  24.769  0.00  0.00    -0.306 N 
ATOM     10  N   UNL     1      -2.834   1.799  25.641  0.00  0.00    -0.214 NA
ATOM     11  N   UNL     1      -4.722   2.983  24.723  0.00  0.00    -0.223 NA
ATOM     19  C   UNL     1      -4.059   1.842  25.053  0.00  0.00    +0.216 A 
ATOM     23  C   UNL     1      -2.261   2.993  25.903  0.00  0.00    +0.076 A 
ATOM     24  C   UNL     1      -4.091   4.139  25.013  0.00  0.00    +0.116 A 
ATOM     26  C   UNL     1      -2.848   4.207  25.608  0.00  0.00    +0.048 A 
ATOM     38  H   UNL     1      -5.566   0.681  24.283  0.00  0.00    +0.149 HD
BRANCH  23  28
ATOM      6  O   UNL     1       0.694   2.482  29.774  0.00  0.00    -0.453 OA
ATOM      7  O   UNL     1       2.676   2.713  28.425  0.00  0.00    -0.453 OA
ATOM     28  C   UNL     1      -0.961   2.924  26.526  0.00  0.00    +0.004 A 
ATOM     31  C   UNL     1      -0.860   2.724  27.907  0.00  0.00    +0.059 A 
ATOM     32  C   UNL     1       0.199   3.059  25.741  0.00  0.00    +0.014 A 
ATOM     33  C   UNL     1       0.404   2.666  28.458  0.00  0.00    +0.167 A 
ATOM     34  C   UNL     1       1.536   2.799  27.686  0.00  0.00    +0.166 A 
ATOM     35  C   UNL     1       1.467   2.997  26.323  0.00  0.00    +0.050 A 
ATOM     36  C   UNL     1       2.135   2.511  29.746  0.00  0.00    +0.466 C 
ENDBRANCH  23  28
ENDBRANCH  16   9
BRANCH  15   8
ATOM      8  N   UNL     1       0.364  -0.652  24.417  0.00  0.00    -0.182 NA
ATOM     37  H   UNL     1       0.775  -0.758  25.352  0.00  0.00    +0.148 HD
BRANCH   8   1
ATOM      1  S   UNL     1       1.248   0.071  23.142  0.00  0.00    +0.060 S 
ATOM      4  O   UNL     1       1.198   1.514  23.278  0.00  0.00    -0.153 OA
ATOM      5  O   UNL     1       0.894  -0.583  21.898  0.00  0.00    -0.153 OA
BRANCH   1  20
ATOM     20  C   UNL     1       2.970  -0.372  23.375  0.00  0.00    +0.123 A 
ATOM     21  C   UNL     1       3.966   0.527  23.076  0.00  0.00    +0.078 A 
ATOM     22  C   UNL     1       3.224  -1.636  23.857  0.00  0.00    +0.030 A 
ATOM     25  C   UNL     1       5.293   0.142  23.270  0.00  0.00    +0.021 A 
ATOM     27  C   UNL     1       4.550  -2.021  24.051  0.00  0.00    +0.002 A 
ATOM     29  C   UNL     1       5.585  -1.132  23.758  0.00  0.00    +0.001 A 
BRANCH  21  30
ATOM     12  N   UNL     1       3.489   2.905  22.166  0.00  0.00    -0.191 NA
ATOM     30  C   UNL     1       3.703   1.841  22.573  0.00  0.00    +0.101 C 
ENDBRANCH  21  30
ENDBRANCH   1  20
ENDBRANCH   8   1
ENDBRANCH  15   8
TORSDOF 6
ENDMDL
MODEL 4
REMARK VINA RESULT:       6.9      1.159      1.544
REMARK  Name = 11912192
REMARK  6 active torsions:
REMARK  status: ('A' for Active; 'I' for Inactive)
REMARK    1  A    between atoms: S_1  and  N_8
REMARK    2  A    between atoms: S_1  and  C_20
REMARK    3  A    between atoms: N_8  and  C_15
REMARK    4  A    between atoms: N_9  and  C_16
REMARK    5  A    between atoms: C_21  and  C_30
REMARK    6  A    between atoms: C_23  and  C_28
REMARK                            x       y       z     vdW  Elec       q    Type
REMARK                         _______ _______ _______ _____ _____    ______ ____
ROOT
ATOM      2  O   UNL     1      -0.961   2.968  23.237  0.00  0.00    -0.370 OA
ATOM      3  O   UNL     1      -1.074   3.872  26.226  0.00  0.00    -0.370 OA
ATOM     13  C   UNL     1      -1.552   2.711  25.528  0.00  0.00    +0.170 C 
ATOM     14  C   UNL     1      -2.038   3.170  24.167  0.00  0.00    +0.171 C 
ATOM     15  C   UNL     1      -0.404   1.781  25.215  0.00  0.00    +0.133 C 
ATOM     16  C   UNL     1      -2.303   4.646  24.348  0.00  0.00    +0.130 C 
ATOM     17  C   UNL     1       0.139   2.344  23.916  0.00  0.00    +0.183 C 
ATOM     18  C   UNL     1      -1.299   5.036  25.417  0.00  0.00    +0.185 C 
ENDROOT
BRANCH  16   9
ATOM      9  N   UNL     1      -3.652   4.852  24.829  0.00  0.00    -0.306 N 
ATOM     10  N   UNL     1      -4.044   2.549  25.046  0.00  0.00    -0.214 NA
ATOM     11  N   UNL     1      -5.750   4.154  25.614  0.00  0.00    -0.223 NA
ATOM     19  C   UNL     1      -4.507   3.821  25.173  0.00  0.00    +0.216 A 
ATOM     23  C   UNL     1      -4.905   1.568  25.390  0.00  0.00    +0.076 A 
ATOM     24  C   UNL     1      -6.558   3.124  25.940  0.00  0.00    +0.116 A 
ATOM     26  C   UNL     1      -6.186   1.798  25.848  0.00  0.00    +0.048 A 
ATOM     38  H   UNL     1      -3.989   5.797  24.978  0.00  0.00    +0.149 HD
BRANCH  23  28
ATOM      6  O   UNL     1      -4.330  -2.642  22.955  0.00  0.00    -0.453 OA
ATOM      7  O   UNL     1      -3.000  -3.603  24.720  0.00  0.00    -0.453 OA
ATOM     28  C   UNL     1      -4.393   0.226  25.248  0.00  0.00    +0.004 A 
ATOM     31  C   UNL     1      -4.671  -0.507  24.090  0.00  0.00    +0.059 A 
ATOM     32  C   UNL     1      -3.616  -0.339  26.277  0.00  0.00    +0.014 A 
ATOM     33  C   UNL     1      -4.161  -1.786  23.999  0.00  0.00    +0.167 A 
ATOM     34  C   UNL     1      -3.402  -2.335  25.008  0.00  0.00    +0.166 A 
ATOM     35  C   UNL     1      -3.111  -1.636  26.161  0.00  0.00    +0.050 A 
ATOM     36  C   UNL     1      -3.591  -3.790  23.417  0.00  0.00    +0.466 C 
ENDBRANCH  23  28
ENDBRANCH  16   9
BRANCH  15   8
ATOM      8  N   UNL     1      -0.922   0.410  24.985  0.00  0.00    -0.182 NA
ATOM     37  H   UNL     1      -1.690   0.073  25.577  0.00  0.00    +0.148 HD
BRANCH   8   1
ATOM      1  S   UNL     1      -0.576  -0.330  23.481  0.00  0.00    +0.060 S 
ATOM      4  O   UNL     1      -0.989   0.549  22.405  0.00  0.00    -0.153 OA
ATOM      5  O   UNL     1      -1.006  -1.714  23.533  0.00  0.00    -0.153 OA
BRANCH   1  20
ATOM     20  C   UNL     1       1.207  -0.448  23.347  0.00  0.00    +0.123 A 
ATOM     21  C   UNL     1       1.903  -1.365  24.098  0.00  0.00    +0.078 A 
ATOM     22  C   UNL     1       1.820   0.417  22.469  0.00  0.00    +0.030 A 
ATOM     25  C   UNL     1       3.290  -1.422  23.965  0.00  0.00    +0.021 A 
ATOM     27  C   UNL     1       3.207   0.360  22.335  0.00  0.00    +0.002 A 
ATOM     29  C   UNL     1       3.942  -0.560  23.083  0.00  0.00    +0.001 A 
BRANCH  21  30
ATOM     12  N   UNL     1       0.752  -2.991  25.754  0.00  0.00    -0.191 NA
ATOM     30  C   UNL     1       1.267  -2.263  25.013  0.00  0.00    +0.101 C 
ENDBRANCH  21  30
ENDBRANCH   1  20
ENDBRANCH   8   1
ENDBRANCH  15   8
TORSDOF 6
ENDMDL
MODEL 5
REMARK VINA RESULT:       8.2      2.565      5.733
REMARK  Name = 11912192
REMARK  6 active torsions:
REMARK  status: ('A' for Active; 'I' for Inactive)
REMARK    1  A    between atoms: S_1  and  N_8
REMARK    2  A    between atoms: S_1  and  C_20
REMARK    3  A    between atoms: N_8  and  C_15
REMARK    4  A    between atoms: N_9  and  C_16
REMARK    5  A    between atoms: C_21  and  C_30
REMARK    6  A    between atoms: C_23  and  C_28
REMARK                            x       y       z     vdW  Elec       q    Type
REMARK                         _______ _______ _______ _____ _____    ______ ____
ROOT
ATOM      2  O   UNL     1      -3.839   2.624  23.496  0.00  0.00    -0.370 OA
ATOM      3  O   UNL     1      -6.351   1.897  25.208  0.00  0.00    -0.370 OA
ATOM     13  C   UNL     1      -5.031   2.360  25.539  0.00  0.00    +0.170 C 
ATOM     14  C   UNL     1      -4.065   1.700  24.574  0.00  0.00    +0.171 C 
ATOM     15  C   UNL     1      -4.904   3.834  25.238  0.00  0.00    +0.133 C 
ATOM     16  C   UNL     1      -4.814   0.486  24.075  0.00  0.00    +0.130 C 
ATOM     17  C   UNL     1      -4.543   3.845  23.765  0.00  0.00    +0.183 C 
ATOM     18  C   UNL     1      -6.262   0.935  24.147  0.00  0.00    +0.185 C 
ENDROOT
BRANCH  16   9
ATOM      9  N   UNL     1      -4.591  -0.633  24.963  0.00  0.00    -0.306 N 
ATOM     10  N   UNL     1      -2.336  -0.821  24.342  0.00  0.00    -0.214 NA
ATOM     11  N   UNL     1      -3.300  -2.314  25.970  0.00  0.00    -0.223 NA
ATOM     19  C   UNL     1      -3.373  -1.275  25.096  0.00  0.00    +0.216 A 
ATOM     23  C   UNL     1      -1.163  -1.470  24.497  0.00  0.00    +0.076 A 
ATOM     24  C   UNL     1      -2.098  -2.917  26.074  0.00  0.00    +0.116 A 
ATOM     26  C   UNL     1      -0.983  -2.535  25.357  0.00  0.00    +0.048 A 
ATOM     38  H   UNL     1      -5.343  -0.945  25.568  0.00  0.00    +0.149 HD
BRANCH  23  28
ATOM      6  O   UNL     1       3.577  -0.603  23.624  0.00  0.00    -0.453 OA
ATOM      7  O   UNL     1       3.107   0.410  21.489  0.00  0.00    -0.453 OA
ATOM     28  C   UNL     1      -0.077  -0.972  23.689  0.00  0.00    +0.004 A 
ATOM     31  C   UNL     1       1.240  -1.079  24.149  0.00  0.00    +0.059 A 
ATOM     32  C   UNL     1      -0.347  -0.379  22.441  0.00  0.00    +0.014 A 
ATOM     33  C   UNL     1       2.246  -0.588  23.341  0.00  0.00    +0.167 A 
ATOM     34  C   UNL     1       1.977  -0.009  22.122  0.00  0.00    +0.166 A 
ATOM     35  C   UNL     1       0.689   0.111  21.643  0.00  0.00    +0.050 A 
ATOM     36  C   UNL     1       4.117   0.029  22.446  0.00  0.00    +0.466 C 
ENDBRANCH  23  28
ENDBRANCH  16   9
BRANCH  15   8
ATOM      8  N   UNL     1      -3.788   4.410  26.027  0.00  0.00    -0.182 NA
ATOM     37  H   UNL     1      -3.735   4.190  27.028  0.00  0.00    +0.148 HD
BRANCH   8   1
ATOM      1  S   UNL     1      -2.417   4.976  25.174  0.00  0.00    +0.060 S 
ATOM      4  O   UNL     1      -1.834   6.096  25.888  0.00  0.00    -0.153 OA
ATOM      5  O   UNL     1      -2.748   5.068  23.766  0.00  0.00    -0.153 OA
BRANCH   1  20
ATOM     20  C   UNL     1      -1.184   3.676  25.233  0.00  0.00    +0.123 A 
ATOM     21  C   UNL     1      -0.128   3.678  24.353  0.00  0.00    +0.078 A 
ATOM     22  C   UNL     1      -1.358   2.701  26.189  0.00  0.00    +0.030 A 
ATOM     25  C   UNL     1       0.809   2.648  24.432  0.00  0.00    +0.021 A 
ATOM     27  C   UNL     1      -0.421   1.671  26.267  0.00  0.00    +0.002 A 
ATOM     29  C   UNL     1       0.662   1.644  25.389  0.00  0.00    +0.001 A 
BRANCH  21  30
ATOM     12  N   UNL     1       0.199   5.513  22.553  0.00  0.00    -0.191 NA
ATOM     30  C   UNL     1       0.053   4.692  23.358  0.00  0.00    +0.101 C 
ENDBRANCH  21  30
ENDBRANCH   1  20
ENDBRANCH   8   1
ENDBRANCH  15   8
TORSDOF 6
ENDMDL
MODEL 6
REMARK VINA RESULT:       8.5      2.373      7.095
REMARK  Name = 11912192
REMARK  6 active torsions:
REMARK  status: ('A' for Active; 'I' for Inactive)
REMARK    1  A    between atoms: S_1  and  N_8
REMARK    2  A    between atoms: S_1  and  C_20
REMARK    3  A    between atoms: N_8  and  C_15
REMARK    4  A    between atoms: N_9  and  C_16
REMARK    5  A    between atoms: C_21  and  C_30
REMARK    6  A    between atoms: C_23  and  C_28
REMARK                            x       y       z     vdW  Elec       q    Type
REMARK                         _______ _______ _______ _____ _____    ______ ____
ROOT
ATOM      2  O   UNL     1      -3.027  -2.449  25.145  0.00  0.00    -0.370 OA
ATOM      3  O   UNL     1      -0.991  -0.385  26.312  0.00  0.00    -0.370 OA
ATOM     13  C   UNL     1      -1.887  -0.360  25.189  0.00  0.00    +0.170 C 
ATOM     14  C   UNL     1      -1.899  -1.753  24.589  0.00  0.00    +0.171 C 
ATOM     15  C   UNL     1      -3.307  -0.149  25.659  0.00  0.00    +0.133 C 
ATOM     16  C   UNL     1      -0.610  -2.374  25.074  0.00  0.00    +0.130 C 
ATOM     17  C   UNL     1      -3.761  -1.555  25.995  0.00  0.00    +0.183 C 
ATOM     18  C   UNL     1      -0.387  -1.683  26.406  0.00  0.00    +0.185 C 
ENDROOT
BRANCH  16   9
ATOM      9  N   UNL     1       0.466  -2.059  24.160  0.00  0.00    -0.306 N 
ATOM     10  N   UNL     1       0.109   0.251  24.364  0.00  0.00    -0.214 NA
ATOM     11  N   UNL     1       1.855  -0.611  22.943  0.00  0.00    -0.223 NA
ATOM     19  C   UNL     1       0.821  -0.768  23.812  0.00  0.00    +0.216 A 
ATOM     23  C   UNL     1       0.483   1.497  24.002  0.00  0.00    +0.076 A 
ATOM     24  C   UNL     1       2.174   0.661  22.625  0.00  0.00    +0.116 A 
ATOM     26  C   UNL     1       1.517   1.765  23.129  0.00  0.00    +0.048 A 
ATOM     38  H   UNL     1       1.036  -2.808  23.785  0.00  0.00    +0.149 HD
BRANCH  23  28
ATOM      6  O   UNL     1      -2.866   3.237  27.123  0.00  0.00    -0.453 OA
ATOM      7  O   UNL     1      -2.534   5.505  26.380  0.00  0.00    -0.453 OA
ATOM     28  C   UNL     1      -0.284   2.563  24.600  0.00  0.00    +0.004 A 
ATOM     31  C   UNL     1      -1.214   2.275  25.605  0.00  0.00    +0.059 A 
ATOM     32  C   UNL     1      -0.093   3.890  24.168  0.00  0.00    +0.014 A 
ATOM     33  C   UNL     1      -1.924   3.328  26.146  0.00  0.00    +0.167 A 
ATOM     34  C   UNL     1      -1.735   4.623  25.720  0.00  0.00    +0.166 A 
ATOM     35  C   UNL     1      -0.825   4.937  24.731  0.00  0.00    +0.050 A 
ATOM     36  C   UNL     1      -3.247   4.620  27.268  0.00  0.00    +0.466 C 
ENDBRANCH  23  28
ENDBRANCH  16   9
BRANCH  15   8
ATOM      8  N   UNL     1      -4.126   0.385  24.543  0.00  0.00    -0.182 NA
ATOM     37  H   UNL     1      -4.003  -0.024  23.609  0.00  0.00    +0.148 HD
BRANCH   8   1
ATOM      1  S   UNL     1      -5.537   1.268  24.941  0.00  0.00    +0.060 S 
ATOM      4  O   UNL     1      -5.755   1.208  26.374  0.00  0.00    -0.153 OA
ATOM      5  O   UNL     1      -6.586   0.919  24.003  0.00  0.00    -0.153 OA
BRANCH   1  20
ATOM     20  C   UNL     1      -5.202   2.991  24.578  0.00  0.00    +0.123 A 
ATOM     21  C   UNL     1      -4.255   3.334  23.643  0.00  0.00    +0.078 A 
ATOM     22  C   UNL     1      -5.932   3.924  25.279  0.00  0.00    +0.030 A 
ATOM     25  C   UNL     1      -4.025   4.686  23.392  0.00  0.00    +0.021 A 
ATOM     27  C   UNL     1      -5.701   5.276  25.028  0.00  0.00    +0.002 A 
ATOM     29  C   UNL     1      -4.748   5.658  24.084  0.00  0.00    +0.001 A 
BRANCH  21  30
ATOM     12  N   UNL     1      -2.879   1.579  22.325  0.00  0.00    -0.191 NA
ATOM     30  C   UNL     1      -3.495   2.364  22.914  0.00  0.00    +0.101 C 
ENDBRANCH  21  30
ENDBRANCH   1  20
ENDBRANCH   8   1
ENDBRANCH  15   8
TORSDOF 6
ENDMDL
MODEL 7
REMARK VINA RESULT:       8.8      2.534      5.912
REMARK  Name = 11912192
REMARK  6 active torsions:
REMARK  status: ('A' for Active; 'I' for Inactive)
REMARK    1  A    between atoms: S_1  and  N_8
REMARK    2  A    between atoms: S_1  and  C_20
REMARK    3  A    between atoms: N_8  and  C_15
REMARK    4  A    between atoms: N_9  and  C_16
REMARK    5  A    between atoms: C_21  and  C_30
REMARK    6  A    between atoms: C_23  and  C_28
REMARK                            x       y       z     vdW  Elec       q    Type
REMARK                         _______ _______ _______ _____ _____    ______ ____
ROOT
ATOM      2  O   UNL     1      -3.852   3.022  23.691  0.00  0.00    -0.370 OA
ATOM      3  O   UNL     1      -6.549   1.939  24.839  0.00  0.00    -0.370 OA
ATOM     13  C   UNL     1      -5.364   2.478  25.447  0.00  0.00    +0.170 C 
ATOM     14  C   UNL     1      -4.178   1.990  24.637  0.00  0.00    +0.171 C 
ATOM     15  C   UNL     1      -5.330   3.979  25.282  0.00  0.00    +0.133 C 
ATOM     16  C   UNL     1      -4.700   0.768  23.919  0.00  0.00    +0.130 C 
ATOM     17  C   UNL     1      -4.710   4.152  23.909  0.00  0.00    +0.183 C 
ATOM     18  C   UNL     1      -6.174   1.086  23.748  0.00  0.00    +0.185 C 
ENDROOT
BRANCH  16   9
ATOM      9  N   UNL     1      -4.534  -0.404  24.750  0.00  0.00    -0.306 N 
ATOM     10  N   UNL     1      -2.291  -0.672  24.116  0.00  0.00    -0.214 NA
ATOM     11  N   UNL     1      -3.328  -2.195  25.670  0.00  0.00    -0.223 NA
ATOM     19  C   UNL     1      -3.349  -1.111  24.848  0.00  0.00    +0.216 A 
ATOM     23  C   UNL     1      -1.152  -1.386  24.235  0.00  0.00    +0.076 A 
ATOM     24  C   UNL     1      -2.157  -2.861  25.741  0.00  0.00    +0.116 A 
ATOM     26  C   UNL     1      -1.025  -2.499  25.041  0.00  0.00    +0.048 A 
ATOM     38  H   UNL     1      -5.300  -0.708  25.340  0.00  0.00    +0.149 HD
BRANCH  23  28
ATOM      6  O   UNL     1       3.198   0.807  23.726  0.00  0.00    -0.453 OA
ATOM      7  O   UNL     1       3.179   0.523  21.334  0.00  0.00    -0.453 OA
ATOM     28  C   UNL     1      -0.041  -0.902  23.451  0.00  0.00    +0.004 A 
ATOM     31  C   UNL     1       1.037  -0.273  24.082  0.00  0.00    +0.059 A 
ATOM     32  C   UNL     1      -0.049  -1.066  22.052  0.00  0.00    +0.014 A 
ATOM     33  C   UNL     1       2.076   0.174  23.290  0.00  0.00    +0.167 A 
ATOM     34  C   UNL     1       2.064   0.012  21.923  0.00  0.00    +0.166 A 
ATOM     35  C   UNL     1       1.015  -0.605  21.273  0.00  0.00    +0.050 A 
ATOM     36  C   UNL     1       3.894   1.024  22.482  0.00  0.00    +0.466 C 
ENDBRANCH  23  28
ENDBRANCH  16   9
BRANCH  15   8
ATOM      8  N   UNL     1      -4.439   4.573  26.308  0.00  0.00    -0.182 NA
ATOM     37  H   UNL     1      -4.808   5.331  26.895  0.00  0.00    +0.148 HD
BRANCH   8   1
ATOM      1  S   UNL     1      -3.067   3.672  26.790  0.00  0.00    +0.060 S 
ATOM      4  O   UNL     1      -3.315   2.260  26.571  0.00  0.00    -0.153 OA
ATOM      5  O   UNL     1      -2.610   4.168  28.073  0.00  0.00    -0.153 OA
BRANCH   1  20
ATOM     20  C   UNL     1      -1.732   4.102  25.673  0.00  0.00    +0.123 A 
ATOM     21  C   UNL     1      -0.725   3.203  25.412  0.00  0.00    +0.078 A 
ATOM     22  C   UNL     1      -1.777   5.357  25.109  0.00  0.00    +0.030 A 
ATOM     25  C   UNL     1       0.294   3.578  24.538  0.00  0.00    +0.021 A 
ATOM     27  C   UNL     1      -0.757   5.732  24.235  0.00  0.00    +0.002 A 
ATOM     29  C   UNL     1       0.279   4.843  23.949  0.00  0.00    +0.001 A 
BRANCH  21  30
ATOM     12  N   UNL     1      -0.638   0.841  26.474  0.00  0.00    -0.191 NA
ATOM     30  C   UNL     1      -0.678   1.898  25.999  0.00  0.00    +0.101 C 
ENDBRANCH  21  30
ENDBRANCH   1  20
ENDBRANCH   8   1
ENDBRANCH  15   8
TORSDOF 6
ENDMDL
MODEL 8
REMARK VINA RESULT:       8.8      2.510      6.627
REMARK  Name = 11912192
REMARK  6 active torsions:
REMARK  status: ('A' for Active; 'I' for Inactive)
REMARK    1  A    between atoms: S_1  and  N_8
REMARK    2  A    between atoms: S_1  and  C_20
REMARK    3  A    between atoms: N_8  and  C_15
REMARK    4  A    between atoms: N_9  and  C_16
REMARK    5  A    between atoms: C_21  and  C_30
REMARK    6  A    between atoms: C_23  and  C_28
REMARK                            x       y       z     vdW  Elec       q    Type
REMARK                         _______ _______ _______ _____ _____    ______ ____
ROOT
ATOM      2  O   UNL     1      -2.043   4.138  26.265  0.00  0.00    -0.370 OA
ATOM      3  O   UNL     1      -0.072   2.222  24.779  0.00  0.00    -0.370 OA
ATOM     13  C   UNL     1      -1.369   2.749  24.454  0.00  0.00    +0.170 C 
ATOM     14  C   UNL     1      -2.168   2.806  25.742  0.00  0.00    +0.171 C 
ATOM     15  C   UNL     1      -1.254   4.193  24.027  0.00  0.00    +0.133 C 
ATOM     16  C   UNL     1      -1.475   1.819  26.651  0.00  0.00    +0.130 C 
ATOM     17  C   UNL     1      -1.278   4.936  25.349  0.00  0.00    +0.183 C 
ATOM     18  C   UNL     1      -0.036   1.878  26.171  0.00  0.00    +0.185 C 
ENDROOT
BRANCH  16   9
ATOM      9  N   UNL     1      -2.016   0.493  26.448  0.00  0.00    -0.306 N 
ATOM     10  N   UNL     1      -0.238  -0.139  25.052  0.00  0.00    -0.214 NA
ATOM     11  N   UNL     1      -2.023  -1.678  25.558  0.00  0.00    -0.223 NA
ATOM     19  C   UNL     1      -1.408  -0.470  25.663  0.00  0.00    +0.216 A 
ATOM     23  C   UNL     1       0.327  -1.102  24.294  0.00  0.00    +0.076 A 
ATOM     24  C   UNL     1      -1.403  -2.593  24.785  0.00  0.00    +0.116 A 
ATOM     26  C   UNL     1      -0.215  -2.360  24.123  0.00  0.00    +0.048 A 
ATOM     38  H   UNL     1      -2.858   0.218  26.940  0.00  0.00    +0.149 HD
BRANCH  23  28
ATOM      6  O   UNL     1       5.214  -0.992  23.999  0.00  0.00    -0.453 OA
ATOM      7  O   UNL     1       5.167   0.268  21.946  0.00  0.00    -0.453 OA
ATOM     28  C   UNL     1       1.567  -0.730  23.656  0.00  0.00    +0.004 A 
ATOM     31  C   UNL     1       2.786  -1.102  24.232  0.00  0.00    +0.059 A 
ATOM     32  C   UNL     1       1.543   0.006  22.457  0.00  0.00    +0.014 A 
ATOM     33  C   UNL     1       3.946  -0.723  23.586  0.00  0.00    +0.167 A 
ATOM     34  C   UNL     1       3.918  -0.003  22.414  0.00  0.00    +0.166 A 
ATOM     35  C   UNL     1       2.731   0.378  21.823  0.00  0.00    +0.050 A 
ATOM     36  C   UNL     1       5.983  -0.362  22.954  0.00  0.00    +0.466 C 
ENDBRANCH  23  28
ENDBRANCH  16   9
BRANCH  15   8
ATOM      8  N   UNL     1      -2.441   4.570  23.223  0.00  0.00    -0.182 NA
ATOM     37  H   UNL     1      -2.456   5.497  22.781  0.00  0.00    +0.148 HD
BRANCH   8   1
ATOM      1  S   UNL     1      -3.465   3.314  22.673  0.00  0.00    +0.060 S 
ATOM      4  O   UNL     1      -2.667   2.144  22.360  0.00  0.00    -0.153 OA
ATOM      5  O   UNL     1      -4.406   3.863  21.717  0.00  0.00    -0.153 OA
BRANCH   1  20
ATOM     20  C   UNL     1      -4.500   2.832  24.055  0.00  0.00    +0.123 A 
ATOM     21  C   UNL     1      -4.691   1.503  24.352  0.00  0.00    +0.078 A 
ATOM     22  C   UNL     1      -5.079   3.850  24.779  0.00  0.00    +0.030 A 
ATOM     25  C   UNL     1      -5.505   1.171  25.435  0.00  0.00    +0.021 A 
ATOM     27  C   UNL     1      -5.893   3.518  25.862  0.00  0.00    +0.002 A 
ATOM     29  C   UNL     1      -6.106   2.179  26.190  0.00  0.00    +0.001 A 
BRANCH  21  30
ATOM     12  N   UNL     1      -3.604  -0.413  22.988  0.00  0.00    -0.191 NA
ATOM     30  C   UNL     1      -4.090   0.444  23.598  0.00  0.00    +0.101 C 
ENDBRANCH  21  30
ENDBRANCH   1  20
ENDBRANCH   8   1
ENDBRANCH  15   8
TORSDOF 6
ENDMDL
MODEL 9
REMARK VINA RESULT:       8.9      2.234      5.224
REMARK  Name = 11912192
REMARK  6 active torsions:
REMARK  status: ('A' for Active; 'I' for Inactive)
REMARK    1  A    between atoms: S_1  and  N_8
REMARK    2  A    between atoms: S_1  and  C_20
REMARK    3  A    between atoms: N_8  and  C_15
REMARK    4  A    between atoms: N_9  and  C_16
REMARK    5  A    between atoms: C_21  and  C_30
REMARK    6  A    between atoms: C_23  and  C_28
REMARK                            x       y       z     vdW  Elec       q    Type
REMARK                         _______ _______ _______ _____ _____    ______ ____
ROOT
ATOM      2  O   UNL     1      -2.953  -1.217  26.101  0.00  0.00    -0.370 OA
ATOM      3  O   UNL     1      -4.911  -1.246  23.665  0.00  0.00    -0.370 OA
ATOM     13  C   UNL     1      -3.509  -0.959  23.801  0.00  0.00    +0.170 C 
ATOM     14  C   UNL     1      -3.323  -0.234  25.120  0.00  0.00    +0.171 C 
ATOM     15  C   UNL     1      -2.728  -2.240  23.971  0.00  0.00    +0.133 C 
ATOM     16  C   UNL     1      -4.691   0.326  25.431  0.00  0.00    +0.130 C 
ATOM     17  C   UNL     1      -2.824  -2.496  25.462  0.00  0.00    +0.183 C 
ATOM     18  C   UNL     1      -5.619  -0.682  24.778  0.00  0.00    +0.185 C 
ENDROOT
BRANCH  16   9
ATOM      9  N   UNL     1      -4.848   1.624  24.812  0.00  0.00    -0.306 N 
ATOM     10  N   UNL     1      -2.795   2.393  25.650  0.00  0.00    -0.214 NA
ATOM     11  N   UNL     1      -4.185   3.812  24.285  0.00  0.00    -0.223 NA
ATOM     19  C   UNL     1      -3.915   2.640  24.919  0.00  0.00    +0.216 A 
ATOM     23  C   UNL     1      -1.907   3.406  25.733  0.00  0.00    +0.076 A 
ATOM     24  C   UNL     1      -3.255   4.781  24.410  0.00  0.00    +0.116 A 
ATOM     26  C   UNL     1      -2.085   4.634  25.128  0.00  0.00    +0.048 A 
ATOM     38  H   UNL     1      -5.653   1.800  24.222  0.00  0.00    +0.149 HD
BRANCH  23  28
ATOM      6  O   UNL     1       0.432   2.575  29.954  0.00  0.00    -0.453 OA
ATOM      7  O   UNL     1       2.557   2.322  28.849  0.00  0.00    -0.453 OA
ATOM     28  C   UNL     1      -0.727   3.123  26.512  0.00  0.00    +0.004 A 
ATOM     31  C   UNL     1      -0.822   2.997  27.902  0.00  0.00    +0.059 A 
ATOM     32  C   UNL     1       0.517   2.975  25.870  0.00  0.00    +0.014 A 
ATOM     33  C   UNL     1       0.334   2.727  28.606  0.00  0.00    +0.167 A 
ATOM     34  C   UNL     1       1.548   2.584  27.973  0.00  0.00    +0.166 A 
ATOM     35  C   UNL     1       1.673   2.702  26.605  0.00  0.00    +0.050 A 
ATOM     36  C   UNL     1       1.843   2.317  30.101  0.00  0.00    +0.466 C 
ENDBRANCH  23  28
ENDBRANCH  16   9
BRANCH  15   8
ATOM      8  N   UNL     1      -1.311  -2.012  23.597  0.00  0.00    -0.182 NA
ATOM     37  H   UNL     1      -1.079  -1.912  22.602  0.00  0.00    +0.148 HD
BRANCH   8   1
ATOM      1  S   UNL     1      -0.246  -1.446  24.811  0.00  0.00    +0.060 S 
ATOM      4  O   UNL     1       0.255  -2.571  25.576  0.00  0.00    -0.153 OA
ATOM      5  O   UNL     1      -0.848  -0.299  25.462  0.00  0.00    -0.153 OA
BRANCH   1  20
ATOM     20  C   UNL     1       1.185  -0.756  23.981  0.00  0.00    +0.123 A 
ATOM     21  C   UNL     1       1.069   0.391  23.231  0.00  0.00    +0.078 A 
ATOM     22  C   UNL     1       2.374  -1.431  24.134  0.00  0.00    +0.030 A 
ATOM     25  C   UNL     1       2.207   0.893  22.600  0.00  0.00    +0.021 A 
ATOM     27  C   UNL     1       3.512  -0.929  23.503  0.00  0.00    +0.002 A 
ATOM     29  C   UNL     1       3.429   0.234  22.736  0.00  0.00    +0.001 A 
BRANCH  21  30
ATOM     12  N   UNL     1      -1.170   1.661  22.939  0.00  0.00    -0.191 NA
ATOM     30  C   UNL     1      -0.169   1.092  23.070  0.00  0.00    +0.101 C 
ENDBRANCH  21  30
ENDBRANCH   1  20
ENDBRANCH   8   1
ENDBRANCH  15   8
TORSDOF 6
ENDMDL
MODEL 10
REMARK VINA RESULT:       9.8      1.663      2.015
REMARK  Name = 11912192
REMARK  6 active torsions:
REMARK  status: ('A' for Active; 'I' for Inactive)
REMARK    1  A    between atoms: S_1  and  N_8
REMARK    2  A    between atoms: S_1  and  C_20
REMARK    3  A    between atoms: N_8  and  C_15
REMARK    4  A    between atoms: N_9  and  C_16
REMARK    5  A    between atoms: C_21  and  C_30
REMARK    6  A    between atoms: C_23  and  C_28
REMARK                            x       y       z     vdW  Elec       q    Type
REMARK                         _______ _______ _______ _____ _____    ______ ____
ROOT
ATOM      2  O   UNL     1       0.828   3.676  25.177  0.00  0.00    -0.370 OA
ATOM      3  O   UNL     1      -1.509   1.843  26.149  0.00  0.00    -0.370 OA
ATOM     13  C   UNL     1      -0.962   2.141  24.854  0.00  0.00    +0.170 C 
ATOM     14  C   UNL     1      -0.571   3.606  24.855  0.00  0.00    +0.171 C 
ATOM     15  C   UNL     1       0.345   1.410  24.660  0.00  0.00    +0.133 C 
ATOM     16  C   UNL     1      -1.396   4.207  25.970  0.00  0.00    +0.130 C 
ATOM     17  C   UNL     1       1.350   2.345  25.304  0.00  0.00    +0.183 C 
ATOM     18  C   UNL     1      -1.553   3.044  26.932  0.00  0.00    +0.185 C 
ENDROOT
BRANCH  16   9
ATOM      9  N   UNL     1      -2.687   4.617  25.464  0.00  0.00    -0.306 N 
ATOM     10  N   UNL     1      -3.408   2.401  25.193  0.00  0.00    -0.214 NA
ATOM     11  N   UNL     1      -4.848   4.249  24.627  0.00  0.00    -0.223 NA
ATOM     19  C   UNL     1      -3.677   3.729  25.084  0.00  0.00    +0.216 A 
ATOM     23  C   UNL     1      -4.396   1.564  24.813  0.00  0.00    +0.076 A 
ATOM     24  C   UNL     1      -5.791   3.355  24.265  0.00  0.00    +0.116 A 
ATOM     26  C   UNL     1      -5.620   1.988  24.337  0.00  0.00    +0.048 A 
ATOM     38  H   UNL     1      -2.918   5.604  25.429  0.00  0.00    +0.149 HD
BRANCH  23  28
ATOM      6  O   UNL     1      -4.253  -3.032  23.127  0.00  0.00    -0.453 OA
ATOM      7  O   UNL     1      -3.271  -3.861  25.165  0.00  0.00    -0.453 OA
ATOM     28  C   UNL     1      -4.090   0.159  24.938  0.00  0.00    +0.004 A 
ATOM     31  C   UNL     1      -4.365  -0.711  23.878  0.00  0.00    +0.059 A 
ATOM     32  C   UNL     1      -3.517  -0.329  26.127  0.00  0.00    +0.014 A 
ATOM     33  C   UNL     1      -4.055  -2.046  24.044  0.00  0.00    +0.167 A 
ATOM     34  C   UNL     1      -3.495  -2.519  25.209  0.00  0.00    +0.166 A 
ATOM     35  C   UNL     1      -3.213  -1.685  26.270  0.00  0.00    +0.050 A 
ATOM     36  C   UNL     1      -3.753  -4.179  23.844  0.00  0.00    +0.466 C 
ENDBRANCH  23  28
ENDBRANCH  16   9
BRANCH  15   8
ATOM      8  N   UNL     1       0.637   1.290  23.211  0.00  0.00    -0.182 NA
ATOM     37  H   UNL     1       0.780   2.150  22.669  0.00  0.00    +0.148 HD
BRANCH   8   1
ATOM      1  S   UNL     1       1.199  -0.220  22.633  0.00  0.00    +0.060 S 
ATOM      4  O   UNL     1       1.237  -0.199  21.184  0.00  0.00    -0.153 OA
ATOM      5  O   UNL     1       0.519  -1.278  23.355  0.00  0.00    -0.153 OA
BRANCH   1  20
ATOM     20  C   UNL     1       2.906  -0.384  23.155  0.00  0.00    +0.123 A 
ATOM     21  C   UNL     1       3.763   0.688  23.078  0.00  0.00    +0.078 A 
ATOM     22  C   UNL     1       3.294  -1.619  23.623  0.00  0.00    +0.030 A 
ATOM     25  C   UNL     1       5.084   0.517  23.493  0.00  0.00    +0.021 A 
ATOM     27  C   UNL     1       4.615  -1.790  24.037  0.00  0.00    +0.002 A 
ATOM     29  C   UNL     1       5.510  -0.722  23.973  0.00  0.00    +0.001 A 
BRANCH  21  30
ATOM     12  N   UNL     1       3.035   3.012  22.196  0.00  0.00    -0.191 NA
ATOM     30  C   UNL     1       3.360   1.972  22.591  0.00  0.00    +0.101 C 
ENDBRANCH  21  30
ENDBRANCH   1  20
ENDBRANCH   8   1
ENDBRANCH  15   8
TORSDOF 6
ENDMDL
