MODEL 1
REMARK VINA RESULT:      -4.6      0.000      0.000
REMARK  Name = 45784259
REMARK  4 active torsions:
REMARK  status: ('A' for Active; 'I' for Inactive)
REMARK    1  A    between atoms: N_5  and  C_13
REMARK    2  A    between atoms: C_8  and  C_12
REMARK    3  A    between atoms: C_13  and  C_14
REMARK    4  A    between atoms: C_21  and  C_25
REMARK                            x       y       z     vdW  Elec       q    Type
REMARK                         _______ _______ _______ _____ _____    ______ ____
ROOT
ATOM      6  N   UNL     1      11.221  -7.430  32.402  0.00  0.00    -0.342 N 
ATOM      7  N   UNL     1      12.379  -9.314  32.190  0.00  0.00    -0.232 NA
ATOM     12  C   UNL     1      12.453  -8.022  32.419  0.00  0.00    +0.113 A 
ATOM     15  C   UNL     1      10.291  -8.404  32.144  0.00  0.00    +0.067 A 
ATOM     16  C   UNL     1      11.039  -9.571  32.016  0.00  0.00    +0.089 A 
ATOM     17  C   UNL     1       8.902  -8.367  32.017  0.00  0.00    +0.040 A 
ATOM     18  C   UNL     1      10.379 -10.781  31.745  0.00  0.00    +0.030 A 
ATOM     21  C   UNL     1       8.262  -9.579  31.747  0.00  0.00    +0.057 A 
ATOM     22  C   UNL     1       8.984 -10.767  31.612  0.00  0.00    +0.014 A 
ATOM     27  H   UNL     1      11.026  -6.448  32.551  0.00  0.00    +0.167 HD
ENDROOT
BRANCH  12   8
ATOM      5  N   UNL     1      15.284  -5.834  31.633  0.00  0.00    -0.297 NA
ATOM      8  C   UNL     1      13.707  -7.220  32.677  0.00  0.00    +0.070 C 
ATOM      9  C   UNL     1      15.022  -7.994  32.480  0.00  0.00    +0.028 C 
ATOM     10  C   UNL     1      13.835  -5.997  31.759  0.00  0.00    +0.096 C 
ATOM     11  C   UNL     1      15.802  -7.190  31.448  0.00  0.00    +0.085 C 
BRANCH   5  13
ATOM     13  C   UNL     1      15.651  -4.946  30.539  0.00  0.00    +0.119 C 
BRANCH  13  14
ATOM      1 CL   UNL     1      17.324   0.482  32.518  0.00  0.00    -0.084 Cl
ATOM     14  C   UNL     1      16.070  -3.589  31.035  0.00  0.00    -0.033 A 
ATOM     19  C   UNL     1      16.490  -2.615  30.129  0.00  0.00    +0.006 A 
ATOM     20  C   UNL     1      16.038  -3.304  32.400  0.00  0.00    +0.006 A 
ATOM     23  C   UNL     1      16.879  -1.356  30.587  0.00  0.00    +0.020 A 
ATOM     24  C   UNL     1      16.427  -2.045  32.859  0.00  0.00    +0.020 A 
ATOM     26  C   UNL     1      16.848  -1.071  31.952  0.00  0.00    +0.041 A 
ENDBRANCH  13  14
ENDBRANCH   5  13
ENDBRANCH  12   8
BRANCH  21  25
ATOM      2  F   UNL     1       6.379  -9.592  30.294  0.00  0.00    -0.166 F 
ATOM      3  F   UNL     1       6.191 -10.707  32.151  0.00  0.00    -0.166 F 
ATOM      4  F   UNL     1       6.152  -8.539  32.182  0.00  0.00    -0.166 F 
ATOM     25  C   UNL     1       6.775  -9.605  31.599  0.00  0.00    +0.417 C 
ENDBRANCH  21  25
TORSDOF 4
ENDMDL
MODEL 2
REMARK VINA RESULT:      -3.6      2.581      3.456
REMARK  Name = 45784259
REMARK  4 active torsions:
REMARK  status: ('A' for Active; 'I' for Inactive)
REMARK    1  A    between atoms: N_5  and  C_13
REMARK    2  A    between atoms: C_8  and  C_12
REMARK    3  A    between atoms: C_13  and  C_14
REMARK    4  A    between atoms: C_21  and  C_25
REMARK                            x       y       z     vdW  Elec       q    Type
REMARK                         _______ _______ _______ _____ _____    ______ ____
ROOT
ATOM      6  N   UNL     1      11.247  -7.166  32.425  0.00  0.00    -0.342 N 
ATOM      7  N   UNL     1      12.403  -9.063  32.449  0.00  0.00    -0.232 NA
ATOM     12  C   UNL     1      12.469  -7.757  32.582  0.00  0.00    +0.113 A 
ATOM     15  C   UNL     1      10.331  -8.155  32.173  0.00  0.00    +0.067 A 
ATOM     16  C   UNL     1      11.078  -9.330  32.194  0.00  0.00    +0.089 A 
ATOM     17  C   UNL     1       8.957  -8.126  31.936  0.00  0.00    +0.040 A 
ATOM     18  C   UNL     1      10.431 -10.557  31.967  0.00  0.00    +0.030 A 
ATOM     21  C   UNL     1       8.330  -9.355  31.713  0.00  0.00    +0.057 A 
ATOM     22  C   UNL     1       9.051 -10.551  31.726  0.00  0.00    +0.014 A 
ATOM     27  H   UNL     1      11.049  -6.175  32.483  0.00  0.00    +0.167 HD
ENDROOT
BRANCH  12   8
ATOM      5  N   UNL     1      15.331  -5.587  31.860  0.00  0.00    -0.297 NA
ATOM      8  C   UNL     1      13.706  -6.940  32.873  0.00  0.00    +0.070 C 
ATOM      9  C   UNL     1      15.032  -7.714  32.774  0.00  0.00    +0.028 C 
ATOM     10  C   UNL     1      13.877  -5.752  31.917  0.00  0.00    +0.096 C 
ATOM     11  C   UNL     1      15.861  -6.946  31.754  0.00  0.00    +0.085 C 
BRANCH   5  13
ATOM     13  C   UNL     1      15.750  -4.739  30.753  0.00  0.00    +0.119 C 
BRANCH  13  14
ATOM      1 CL   UNL     1      16.637  -7.910  25.718  0.00  0.00    -0.084 Cl
ATOM     14  C   UNL     1      15.971  -5.532  29.492  0.00  0.00    -0.033 A 
ATOM     19  C   UNL     1      17.200  -5.468  28.835  0.00  0.00    +0.006 A 
ATOM     20  C   UNL     1      14.948  -6.332  28.983  0.00  0.00    +0.006 A 
ATOM     23  C   UNL     1      17.405  -6.203  27.667  0.00  0.00    +0.020 A 
ATOM     24  C   UNL     1      15.154  -7.067  27.815  0.00  0.00    +0.020 A 
ATOM     26  C   UNL     1      16.383  -7.001  27.157  0.00  0.00    +0.041 A 
ENDBRANCH  13  14
ENDBRANCH   5  13
ENDBRANCH  12   8
BRANCH  21  25
ATOM      2  F   UNL     1       6.296  -8.147  31.466  0.00  0.00    -0.166 F 
ATOM      3  F   UNL     1       6.531  -9.931  30.244  0.00  0.00    -0.166 F 
ATOM      4  F   UNL     1       6.160 -10.118  32.372  0.00  0.00    -0.166 F 
ATOM     25  C   UNL     1       6.859  -9.389  31.453  0.00  0.00    +0.417 C 
ENDBRANCH  21  25
TORSDOF 4
ENDMDL
MODEL 3
REMARK VINA RESULT:      -2.4      4.327      5.322
REMARK  Name = 45784259
REMARK  4 active torsions:
REMARK  status: ('A' for Active; 'I' for Inactive)
REMARK    1  A    between atoms: N_5  and  C_13
REMARK    2  A    between atoms: C_8  and  C_12
REMARK    3  A    between atoms: C_13  and  C_14
REMARK    4  A    between atoms: C_21  and  C_25
REMARK                            x       y       z     vdW  Elec       q    Type
REMARK                         _______ _______ _______ _____ _____    ______ ____
ROOT
ATOM      6  N   UNL     1      14.321  -6.766  29.426  0.00  0.00    -0.342 N 
ATOM      7  N   UNL     1      15.277  -8.744  29.761  0.00  0.00    -0.232 NA
ATOM     12  C   UNL     1      15.404  -7.567  29.190  0.00  0.00    +0.113 A 
ATOM     15  C   UNL     1      13.437  -7.473  30.200  0.00  0.00    +0.067 A 
ATOM     16  C   UNL     1      14.057  -8.704  30.396  0.00  0.00    +0.089 A 
ATOM     17  C   UNL     1      12.187  -7.152  30.730  0.00  0.00    +0.040 A 
ATOM     18  C   UNL     1      13.406  -9.684  31.164  0.00  0.00    +0.030 A 
ATOM     21  C   UNL     1      11.553  -8.138  31.491  0.00  0.00    +0.057 A 
ATOM     22  C   UNL     1      12.149  -9.384  31.705  0.00  0.00    +0.014 A 
ATOM     27  H   UNL     1      14.191  -5.820  29.090  0.00  0.00    +0.167 HD
ENDROOT
BRANCH  12   8
ATOM      5  N   UNL     1      17.179  -6.446  26.188  0.00  0.00    -0.297 NA
ATOM      8  C   UNL     1      16.571  -7.086  28.360  0.00  0.00    +0.070 C 
ATOM      9  C   UNL     1      17.405  -8.203  27.710  0.00  0.00    +0.028 C 
ATOM     10  C   UNL     1      16.145  -6.188  27.192  0.00  0.00    +0.096 C 
ATOM     11  C   UNL     1      17.381  -7.895  26.218  0.00  0.00    +0.085 C 
BRANCH   5  13
ATOM     13  C   UNL     1      16.803  -5.966  24.866  0.00  0.00    +0.119 C 
BRANCH  13  14
ATOM      1 CL   UNL     1      17.046   0.034  24.506  0.00  0.00    -0.084 Cl
ATOM     14  C   UNL     1      16.865  -4.464  24.777  0.00  0.00    -0.033 A 
ATOM     19  C   UNL     1      16.593  -3.827  23.566  0.00  0.00    +0.006 A 
ATOM     20  C   UNL     1      17.193  -3.711  25.904  0.00  0.00    +0.006 A 
ATOM     23  C   UNL     1      16.650  -2.435  23.482  0.00  0.00    +0.020 A 
ATOM     24  C   UNL     1      17.251  -2.319  25.820  0.00  0.00    +0.020 A 
ATOM     26  C   UNL     1      16.979  -1.682  24.608  0.00  0.00    +0.041 A 
ENDBRANCH  13  14
ENDBRANCH   5  13
ENDBRANCH  12   8
BRANCH  21  25
ATOM      2  F   UNL     1       9.763  -8.874  32.874  0.00  0.00    -0.166 F 
ATOM      3  F   UNL     1      10.189  -6.741  32.873  0.00  0.00    -0.166 F 
ATOM      4  F   UNL     1       9.235  -7.654  31.153  0.00  0.00    -0.166 F 
ATOM     25  C   UNL     1      10.212  -7.855  32.085  0.00  0.00    +0.417 C 
ENDBRANCH  21  25
TORSDOF 4
ENDMDL
MODEL 4
REMARK VINA RESULT:      -1.8      3.603      4.489
REMARK  Name = 45784259
REMARK  4 active torsions:
REMARK  status: ('A' for Active; 'I' for Inactive)
REMARK    1  A    between atoms: N_5  and  C_13
REMARK    2  A    between atoms: C_8  and  C_12
REMARK    3  A    between atoms: C_13  and  C_14
REMARK    4  A    between atoms: C_21  and  C_25
REMARK                            x       y       z     vdW  Elec       q    Type
REMARK                         _______ _______ _______ _____ _____    ______ ____
ROOT
ATOM      6  N   UNL     1      13.985  -7.283  30.424  0.00  0.00    -0.342 N 
ATOM      7  N   UNL     1      14.792  -9.350  30.541  0.00  0.00    -0.232 NA
ATOM     12  C   UNL     1      15.062  -8.102  30.231  0.00  0.00    +0.113 A 
ATOM     15  C   UNL     1      12.950  -8.053  30.889  0.00  0.00    +0.067 A 
ATOM     16  C   UNL     1      13.480  -9.339  30.954  0.00  0.00    +0.089 A 
ATOM     17  C   UNL     1      11.638  -7.747  31.249  0.00  0.00    +0.040 A 
ATOM     18  C   UNL     1      12.665 -10.394  31.401  0.00  0.00    +0.030 A 
ATOM     21  C   UNL     1      10.841  -8.807  31.691  0.00  0.00    +0.057 A 
ATOM     22  C   UNL     1      11.343 -10.108  31.766  0.00  0.00    +0.014 A 
ATOM     27  H   UNL     1      13.952  -6.286  30.255  0.00  0.00    +0.167 HD
ENDROOT
BRANCH  12   8
ATOM      5  N   UNL     1      17.391  -5.638  28.842  0.00  0.00    -0.297 NA
ATOM      8  C   UNL     1      16.377  -7.562  29.718  0.00  0.00    +0.070 C 
ATOM      9  C   UNL     1      16.605  -7.743  28.208  0.00  0.00    +0.028 C 
ATOM     10  C   UNL     1      16.540  -6.056  29.958  0.00  0.00    +0.096 C 
ATOM     11  C   UNL     1      16.854  -6.338  27.675  0.00  0.00    +0.085 C 
BRANCH   5  13
ATOM     13  C   UNL     1      17.405  -4.193  28.664  0.00  0.00    +0.119 C 
BRANCH  13  14
ATOM      1 CL   UNL     1      17.214  -2.653  22.852  0.00  0.00    -0.084 Cl
ATOM     14  C   UNL     1      17.358  -3.807  27.210  0.00  0.00    -0.033 A 
ATOM     19  C   UNL     1      17.275  -4.796  26.229  0.00  0.00    +0.006 A 
ATOM     20  C   UNL     1      17.398  -2.462  26.844  0.00  0.00    +0.006 A 
ATOM     23  C   UNL     1      17.231  -4.438  24.881  0.00  0.00    +0.020 A 
ATOM     24  C   UNL     1      17.354  -2.105  25.496  0.00  0.00    +0.020 A 
ATOM     26  C   UNL     1      17.271  -3.094  24.514  0.00  0.00    +0.041 A 
ENDBRANCH  13  14
ENDBRANCH   5  13
ENDBRANCH  12   8
BRANCH  21  25
ATOM      2  F   UNL     1       8.592  -8.428  31.017  0.00  0.00    -0.166 F 
ATOM      3  F   UNL     1       8.888  -9.522  32.873  0.00  0.00    -0.166 F 
ATOM      4  F   UNL     1       9.268  -7.388  32.803  0.00  0.00    -0.166 F 
ATOM     25  C   UNL     1       9.426  -8.542  32.090  0.00  0.00    +0.417 C 
ENDBRANCH  21  25
TORSDOF 4
ENDMDL
MODEL 5
REMARK VINA RESULT:      -0.8     15.149     17.896
REMARK  Name = 45784259
REMARK  4 active torsions:
REMARK  status: ('A' for Active; 'I' for Inactive)
REMARK    1  A    between atoms: N_5  and  C_13
REMARK    2  A    between atoms: C_8  and  C_12
REMARK    3  A    between atoms: C_13  and  C_14
REMARK    4  A    between atoms: C_21  and  C_25
REMARK                            x       y       z     vdW  Elec       q    Type
REMARK                         _______ _______ _______ _____ _____    ______ ____
ROOT
ATOM      6  N   UNL     1       1.080  -1.476  23.924  0.00  0.00    -0.342 N 
ATOM      7  N   UNL     1       0.391   0.454  23.064  0.00  0.00    -0.232 NA
ATOM     12  C   UNL     1       0.013  -0.699  23.569  0.00  0.00    +0.113 A 
ATOM     15  C   UNL     1       2.223  -0.778  23.628  0.00  0.00    +0.067 A 
ATOM     16  C   UNL     1       1.766   0.423  23.093  0.00  0.00    +0.089 A 
ATOM     17  C   UNL     1       3.576  -1.084  23.778  0.00  0.00    +0.040 A 
ATOM     18  C   UNL     1       2.700   1.388  22.678  0.00  0.00    +0.030 A 
ATOM     21  C   UNL     1       4.491  -0.113  23.360  0.00  0.00    +0.057 A 
ATOM     22  C   UNL     1       4.064   1.101  22.819  0.00  0.00    +0.014 A 
ATOM     27  H   UNL     1       1.039  -2.401  24.331  0.00  0.00    +0.167 HD
ENDROOT
BRANCH  12   8
ATOM      5  N   UNL     1      -3.491  -0.541  24.629  0.00  0.00    -0.297 NA
ATOM      8  C   UNL     1      -1.407  -1.179  23.764  0.00  0.00    +0.070 C 
ATOM      9  C   UNL     1      -1.663  -1.920  25.088  0.00  0.00    +0.028 C 
ATOM     10  C   UNL     1      -2.431  -0.037  23.753  0.00  0.00    +0.096 C 
ATOM     11  C   UNL     1      -2.789  -1.145  25.761  0.00  0.00    +0.085 C 
BRANCH   5  13
ATOM     13  C   UNL     1      -4.414   0.506  25.044  0.00  0.00    +0.119 C 
BRANCH  13  14
ATOM      1 CL   UNL     1      -1.793   5.921  25.061  0.00  0.00    -0.084 Cl
ATOM     14  C   UNL     1      -3.759   1.861  25.049  0.00  0.00    -0.033 A 
ATOM     19  C   UNL     1      -2.545   2.047  25.711  0.00  0.00    +0.006 A 
ATOM     20  C   UNL     1      -4.365   2.931  24.390  0.00  0.00    +0.006 A 
ATOM     23  C   UNL     1      -1.938   3.303  25.715  0.00  0.00    +0.020 A 
ATOM     24  C   UNL     1      -3.758   4.187  24.395  0.00  0.00    +0.020 A 
ATOM     26  C   UNL     1      -2.544   4.373  25.058  0.00  0.00    +0.041 A 
ENDBRANCH  13  14
ENDBRANCH   5  13
ENDBRANCH  12   8
BRANCH  21  25
ATOM      2  F   UNL     1       6.218  -1.479  24.261  0.00  0.00    -0.166 F 
ATOM      3  F   UNL     1       6.580  -0.605  22.302  0.00  0.00    -0.166 F 
ATOM      4  F   UNL     1       6.646   0.644  24.073  0.00  0.00    -0.166 F 
ATOM     25  C   UNL     1       5.955  -0.382  23.494  0.00  0.00    +0.417 C 
ENDBRANCH  21  25
TORSDOF 4
ENDMDL
