MODEL 1
REMARK VINA RESULT:      -1.3      0.000      0.000
REMARK  Name = 25389088
REMARK  8 active torsions:
REMARK  status: ('A' for Active; 'I' for Inactive)
REMARK    1  A    between atoms: N_3  and  C_23
REMARK    2  A    between atoms: N_4  and  C_15
REMARK    3  A    between atoms: N_6  and  C_25
REMARK    4  A    between atoms: C_8  and  C_14
REMARK    5  A    between atoms: C_9  and  C_15
REMARK    6  A    between atoms: C_17  and  C_18
REMARK    7  A    between atoms: C_25  and  C_26
REMARK    8  A    between atoms: C_25  and  C_27
REMARK                            x       y       z     vdW  Elec       q    Type
REMARK                         _______ _______ _______ _____ _____    ______ ____
ROOT
ATOM      2  N   UNL     1      -2.866  -2.055  23.643  0.00  0.00    -0.297 NA
ATOM      7  C   UNL     1      -2.855  -1.115  26.072  0.00  0.00    +0.002 C 
ATOM      8  C   UNL     1      -3.824  -0.295  25.175  0.00  0.00    +0.055 C 
ATOM      9  C   UNL     1      -1.467  -1.841  24.100  0.00  0.00    +0.074 C 
ATOM     10  C   UNL     1      -1.442  -1.094  25.450  0.00  0.00    +0.024 C 
ATOM     11  C   UNL     1      -3.623  -0.782  23.711  0.00  0.00    +0.094 C 
ATOM     12  C   UNL     1      -3.345  -2.578  26.034  0.00  0.00    +0.019 C 
ATOM     13  C   UNL     1      -3.502  -3.022  24.569  0.00  0.00    +0.085 C 
ENDROOT
BRANCH   8  14
ATOM      3  N   UNL     1      -4.923   1.990  25.296  0.00  0.00    -0.271 N 
ATOM      5  N   UNL     1      -4.684   3.307  25.404  0.00  0.00    -0.176 NA
ATOM     14  C   UNL     1      -3.795   1.223  25.288  0.00  0.00    +0.044 A 
ATOM     16  C   UNL     1      -2.744   2.100  25.398  0.00  0.00    +0.048 A 
ATOM     18  C   UNL     1      -3.350   3.369  25.465  0.00  0.00    +0.066 A 
ATOM     23  C   UNL     1      -6.288   1.527  25.202  0.00  0.00    +0.172 C 
BRANCH  18  17
ATOM     17  C   UNL     1      -2.667   4.712  25.595  0.00  0.00    +0.040 C 
ATOM     19  C   UNL     1      -1.132   4.597  25.560  0.00  0.00    +0.010 C 
ATOM     20  C   UNL     1      -3.034   5.725  24.491  0.00  0.00    +0.010 C 
ATOM     21  C   UNL     1      -0.668   5.845  24.825  0.00  0.00    +0.001 C 
ATOM     22  C   UNL     1      -1.733   6.032  23.759  0.00  0.00    +0.001 C 
ENDBRANCH  18  17
ENDBRANCH   8  14
BRANCH   9  15
ATOM     15  C   UNL     1      -0.610  -1.138  23.044  0.00  0.00    +0.124 C 
BRANCH  15   4
ATOM      1  O   UNL     1       1.689  -0.297  21.516  0.00  0.00    -0.253 OA
ATOM      4  N   UNL     1       0.711  -0.896  23.537  0.00  0.00    -0.298 N 
ATOM      6  N   UNL     1       2.950  -0.327  23.463  0.00  0.00    -0.297 N 
ATOM     24  C   UNL     1       1.779  -0.489  22.728  0.00  0.00    +0.300 C 
ATOM     28  H   UNL     1       0.886  -1.033  24.527  0.00  0.00    +0.150 HD
ATOM     29  H   UNL     1       2.904  -0.435  24.473  0.00  0.00    +0.150 HD
BRANCH   6  25
ATOM     25  C   UNL     1       4.197   0.088  22.867  0.00  0.00    +0.068 C 
ATOM     26  C   UNL     1       5.362  -0.235  23.795  0.00  0.00    +0.027 C 
ATOM     27  C   UNL     1       4.160   1.573  22.526  0.00  0.00    +0.027 C 
ENDBRANCH   6  25
ENDBRANCH  15   4
ENDBRANCH   9  15
TORSDOF 5
ENDMDL
MODEL 2
REMARK VINA RESULT:      -0.2      1.717      5.444
REMARK  Name = 25389088
REMARK  8 active torsions:
REMARK  status: ('A' for Active; 'I' for Inactive)
REMARK    1  A    between atoms: N_3  and  C_23
REMARK    2  A    between atoms: N_4  and  C_15
REMARK    3  A    between atoms: N_6  and  C_25
REMARK    4  A    between atoms: C_8  and  C_14
REMARK    5  A    between atoms: C_9  and  C_15
REMARK    6  A    between atoms: C_17  and  C_18
REMARK    7  A    between atoms: C_25  and  C_26
REMARK    8  A    between atoms: C_25  and  C_27
REMARK                            x       y       z     vdW  Elec       q    Type
REMARK                         _______ _______ _______ _____ _____    ______ ____
ROOT
ATOM      2  N   UNL     1      -2.068   4.761  25.874  0.00  0.00    -0.297 NA
ATOM      7  C   UNL     1      -3.186   3.843  23.708  0.00  0.00    +0.002 C 
ATOM      8  C   UNL     1      -3.879   3.256  24.969  0.00  0.00    +0.055 C 
ATOM      9  C   UNL     1      -1.029   4.244  24.944  0.00  0.00    +0.074 C 
ATOM     10  C   UNL     1      -1.679   3.511  23.752  0.00  0.00    +0.024 C 
ATOM     11  C   UNL     1      -3.035   3.685  26.203  0.00  0.00    +0.094 C 
ATOM     12  C   UNL     1      -3.315   5.378  23.804  0.00  0.00    +0.019 C 
ATOM     13  C   UNL     1      -2.801   5.845  25.177  0.00  0.00    +0.085 C 
ENDROOT
BRANCH   8  14
ATOM      3  N   UNL     1      -5.481   1.287  24.942  0.00  0.00    -0.271 N 
ATOM      5  N   UNL     1      -5.555  -0.054  24.961  0.00  0.00    -0.176 NA
ATOM     14  C   UNL     1      -4.205   1.769  24.982  0.00  0.00    +0.044 A 
ATOM     16  C   UNL     1      -3.388   0.666  25.031  0.00  0.00    +0.048 A 
ATOM     18  C   UNL     1      -4.274  -0.429  25.016  0.00  0.00    +0.066 A 
ATOM     23  C   UNL     1      -6.700   2.060  24.885  0.00  0.00    +0.172 C 
BRANCH  18  17
ATOM     17  C   UNL     1      -3.922  -1.899  25.053  0.00  0.00    +0.040 C 
ATOM     19  C   UNL     1      -4.054  -2.570  23.674  0.00  0.00    +0.010 C 
ATOM     20  C   UNL     1      -2.486  -2.202  25.529  0.00  0.00    +0.010 C 
ATOM     21  C   UNL     1      -2.930  -3.594  23.634  0.00  0.00    +0.001 C 
ATOM     22  C   UNL     1      -1.796  -2.887  24.355  0.00  0.00    +0.001 C 
ENDBRANCH  18  17
ENDBRANCH   8  14
BRANCH   9  15
ATOM     15  C   UNL     1       0.006   3.369  25.656  0.00  0.00    +0.124 C 
BRANCH  15   4
ATOM      1  O   UNL     1       0.148   0.625  24.775  0.00  0.00    -0.253 OA
ATOM      4  N   UNL     1       0.933   2.811  24.719  0.00  0.00    -0.298 N 
ATOM      6  N   UNL     1       1.942   1.190  23.417  0.00  0.00    -0.297 N 
ATOM     24  C   UNL     1       0.937   1.463  24.341  0.00  0.00    +0.300 C 
ATOM     28  H   UNL     1       1.629   3.425  24.309  0.00  0.00    +0.150 HD
ATOM     29  H   UNL     1       2.495   1.966  23.063  0.00  0.00    +0.150 HD
BRANCH   6  25
ATOM     25  C   UNL     1       2.163  -0.125  22.866  0.00  0.00    +0.068 C 
ATOM     26  C   UNL     1       3.651  -0.363  22.640  0.00  0.00    +0.027 C 
ATOM     27  C   UNL     1       1.374  -0.303  21.574  0.00  0.00    +0.027 C 
ENDBRANCH   6  25
ENDBRANCH  15   4
ENDBRANCH   9  15
TORSDOF 5
ENDMDL
MODEL 3
REMARK VINA RESULT:       0.2      2.215      5.965
REMARK  Name = 25389088
REMARK  8 active torsions:
REMARK  status: ('A' for Active; 'I' for Inactive)
REMARK    1  A    between atoms: N_3  and  C_23
REMARK    2  A    between atoms: N_4  and  C_15
REMARK    3  A    between atoms: N_6  and  C_25
REMARK    4  A    between atoms: C_8  and  C_14
REMARK    5  A    between atoms: C_9  and  C_15
REMARK    6  A    between atoms: C_17  and  C_18
REMARK    7  A    between atoms: C_25  and  C_26
REMARK    8  A    between atoms: C_25  and  C_27
REMARK                            x       y       z     vdW  Elec       q    Type
REMARK                         _______ _______ _______ _____ _____    ______ ____
ROOT
ATOM      2  N   UNL     1      -5.568   3.204  24.502  0.00  0.00    -0.297 NA
ATOM      7  C   UNL     1      -3.615   3.940  26.060  0.00  0.00    +0.002 C 
ATOM      8  C   UNL     1      -3.112   3.770  24.600  0.00  0.00    +0.055 C 
ATOM      9  C   UNL     1      -5.523   2.334  25.707  0.00  0.00    +0.074 C 
ATOM     10  C   UNL     1      -4.253   2.617  26.537  0.00  0.00    +0.024 C 
ATOM     11  C   UNL     1      -4.274   3.140  23.780  0.00  0.00    +0.094 C 
ATOM     12  C   UNL     1      -4.739   4.998  26.024  0.00  0.00    +0.019 C 
ATOM     13  C   UNL     1      -5.775   4.599  24.958  0.00  0.00    +0.085 C 
ENDROOT
BRANCH   8  14
ATOM      3  N   UNL     1      -0.578   3.667  24.482  0.00  0.00    -0.271 N 
ATOM      5  N   UNL     1       0.467   2.857  24.247  0.00  0.00    -0.176 NA
ATOM     14  C   UNL     1      -1.790   3.050  24.375  0.00  0.00    +0.044 A 
ATOM     16  C   UNL     1      -1.518   1.744  24.046  0.00  0.00    +0.048 A 
ATOM     18  C   UNL     1      -0.113   1.683  23.980  0.00  0.00    +0.066 A 
ATOM     23  C   UNL     1      -0.336   5.053  24.811  0.00  0.00    +0.172 C 
BRANCH  18  17
ATOM     17  C   UNL     1       0.743   0.479  23.656  0.00  0.00    +0.040 C 
ATOM     19  C   UNL     1       0.369  -0.162  22.308  0.00  0.00    +0.010 C 
ATOM     20  C   UNL     1       2.255   0.774  23.572  0.00  0.00    +0.010 C 
ATOM     21  C   UNL     1       1.691  -0.644  21.729  0.00  0.00    +0.001 C 
ATOM     22  C   UNL     1       2.663   0.448  22.140  0.00  0.00    +0.001 C 
ENDBRANCH  18  17
ENDBRANCH   8  14
BRANCH   9  15
ATOM     15  C   UNL     1      -5.655   0.849  25.358  0.00  0.00    +0.124 C 
BRANCH  15   4
ATOM      1  O   UNL     1      -4.000  -0.700  23.572  0.00  0.00    -0.253 OA
ATOM      4  N   UNL     1      -4.458   0.138  25.690  0.00  0.00    -0.298 N 
ATOM      6  N   UNL     1      -2.592  -1.184  25.352  0.00  0.00    -0.297 N 
ATOM     24  C   UNL     1      -3.707  -0.593  24.762  0.00  0.00    +0.300 C 
ATOM     28  H   UNL     1      -4.137   0.162  26.653  0.00  0.00    +0.150 HD
ATOM     29  H   UNL     1      -2.395  -0.974  26.327  0.00  0.00    +0.150 HD
BRANCH   6  25
ATOM     25  C   UNL     1      -1.653  -1.994  24.614  0.00  0.00    +0.068 C 
ATOM     26  C   UNL     1      -2.266  -3.348  24.283  0.00  0.00    +0.027 C 
ATOM     27  C   UNL     1      -0.354  -2.152  25.395  0.00  0.00    +0.027 C 
ENDBRANCH   6  25
ENDBRANCH  15   4
ENDBRANCH   9  15
TORSDOF 5
ENDMDL
MODEL 4
REMARK VINA RESULT:       0.5      1.849      6.567
REMARK  Name = 25389088
REMARK  8 active torsions:
REMARK  status: ('A' for Active; 'I' for Inactive)
REMARK    1  A    between atoms: N_3  and  C_23
REMARK    2  A    between atoms: N_4  and  C_15
REMARK    3  A    between atoms: N_6  and  C_25
REMARK    4  A    between atoms: C_8  and  C_14
REMARK    5  A    between atoms: C_9  and  C_15
REMARK    6  A    between atoms: C_17  and  C_18
REMARK    7  A    between atoms: C_25  and  C_26
REMARK    8  A    between atoms: C_25  and  C_27
REMARK                            x       y       z     vdW  Elec       q    Type
REMARK                         _______ _______ _______ _____ _____    ______ ____
ROOT
ATOM      2  N   UNL     1      -3.496   4.009  24.158  0.00  0.00    -0.297 NA
ATOM      7  C   UNL     1      -1.734   3.402  25.978  0.00  0.00    +0.002 C 
ATOM      8  C   UNL     1      -1.089   3.371  24.565  0.00  0.00    +0.055 C 
ATOM      9  C   UNL     1      -4.036   2.957  25.059  0.00  0.00    +0.074 C 
ATOM     10  C   UNL     1      -2.939   2.437  26.011  0.00  0.00    +0.024 C 
ATOM     11  C   UNL     1      -2.237   3.541  23.529  0.00  0.00    +0.094 C 
ATOM     12  C   UNL     1      -2.290   4.828  26.182  0.00  0.00    +0.019 C 
ATOM     13  C   UNL     1      -3.185   5.199  24.986  0.00  0.00    +0.085 C 
ENDROOT
BRANCH   8  14
ATOM      3  N   UNL     1      -0.328   0.956  24.736  0.00  0.00    -0.271 N 
ATOM      5  N   UNL     1       0.588   0.072  24.307  0.00  0.00    -0.176 NA
ATOM     14  C   UNL     1      -0.169   2.209  24.221  0.00  0.00    +0.044 A 
ATOM     16  C   UNL     1       0.927   2.139  23.396  0.00  0.00    +0.048 A 
ATOM     18  C   UNL     1       1.353   0.800  23.488  0.00  0.00    +0.066 A 
ATOM     23  C   UNL     1      -1.348   0.521  25.662  0.00  0.00    +0.172 C 
BRANCH  18  17
ATOM     17  C   UNL     1       2.526   0.154  22.784  0.00  0.00    +0.040 C 
ATOM     19  C   UNL     1       3.735   1.099  22.669  0.00  0.00    +0.010 C 
ATOM     20  C   UNL     1       3.057  -1.122  23.468  0.00  0.00    +0.010 C 
ATOM     21  C   UNL     1       4.948   0.194  22.822  0.00  0.00    +0.001 C 
ATOM     22  C   UNL     1       4.496  -0.812  23.866  0.00  0.00    +0.001 C 
ENDBRANCH  18  17
ENDBRANCH   8  14
BRANCH   9  15
ATOM     15  C   UNL     1      -4.707   1.817  24.287  0.00  0.00    +0.124 C 
BRANCH  15   4
ATOM      1  O   UNL     1      -3.625  -0.603  23.146  0.00  0.00    -0.253 OA
ATOM      4  N   UNL     1      -4.508   0.565  24.951  0.00  0.00    -0.298 N 
ATOM      6  N   UNL     1      -3.889  -1.648  25.201  0.00  0.00    -0.297 N 
ATOM     24  C   UNL     1      -3.975  -0.568  24.325  0.00  0.00    +0.300 C 
ATOM     28  H   UNL     1      -4.771   0.493  25.928  0.00  0.00    +0.150 HD
ATOM     29  H   UNL     1      -4.133  -1.498  26.176  0.00  0.00    +0.150 HD
BRANCH   6  25
ATOM     25  C   UNL     1      -3.375  -2.937  24.806  0.00  0.00    +0.068 C 
ATOM     26  C   UNL     1      -1.891  -2.838  24.475  0.00  0.00    +0.027 C 
ATOM     27  C   UNL     1      -4.166  -3.491  23.627  0.00  0.00    +0.027 C 
ENDBRANCH   6  25
ENDBRANCH  15   4
ENDBRANCH   9  15
TORSDOF 5
ENDMDL
MODEL 5
REMARK VINA RESULT:       0.6      2.160      6.025
REMARK  Name = 25389088
REMARK  8 active torsions:
REMARK  status: ('A' for Active; 'I' for Inactive)
REMARK    1  A    between atoms: N_3  and  C_23
REMARK    2  A    between atoms: N_4  and  C_15
REMARK    3  A    between atoms: N_6  and  C_25
REMARK    4  A    between atoms: C_8  and  C_14
REMARK    5  A    between atoms: C_9  and  C_15
REMARK    6  A    between atoms: C_17  and  C_18
REMARK    7  A    between atoms: C_25  and  C_26
REMARK    8  A    between atoms: C_25  and  C_27
REMARK                            x       y       z     vdW  Elec       q    Type
REMARK                         _______ _______ _______ _____ _____    ______ ____
ROOT
ATOM      2  N   UNL     1      -3.982  -0.438  25.628  0.00  0.00    -0.297 NA
ATOM      7  C   UNL     1      -2.271  -2.133  24.636  0.00  0.00    +0.002 C 
ATOM      8  C   UNL     1      -1.531  -0.986  25.378  0.00  0.00    +0.055 C 
ATOM      9  C   UNL     1      -4.292  -0.696  24.197  0.00  0.00    +0.074 C 
ATOM     10  C   UNL     1      -3.175  -1.531  23.538  0.00  0.00    +0.024 C 
ATOM     11  C   UNL     1      -2.598   0.080  25.762  0.00  0.00    +0.094 C 
ATOM     12  C   UNL     1      -3.200  -2.806  25.669  0.00  0.00    +0.019 C 
ATOM     13  C   UNL     1      -4.064  -1.730  26.350  0.00  0.00    +0.085 C 
ENDROOT
BRANCH   8  14
ATOM      3  N   UNL     1       0.069   0.928  24.909  0.00  0.00    -0.271 N 
ATOM      5  N   UNL     1       1.173   1.280  24.230  0.00  0.00    -0.176 NA
ATOM     14  C   UNL     1      -0.312  -0.367  24.711  0.00  0.00    +0.044 A 
ATOM     16  C   UNL     1       0.609  -0.899  23.841  0.00  0.00    +0.048 A 
ATOM     18  C   UNL     1       1.499   0.159  23.579  0.00  0.00    +0.066 A 
ATOM     23  C   UNL     1      -0.586   1.907  25.746  0.00  0.00    +0.172 C 
BRANCH  18  17
ATOM     17  C   UNL     1       2.716   0.140  22.681  0.00  0.00    +0.040 C 
ATOM     19  C   UNL     1       3.526   1.446  22.760  0.00  0.00    +0.010 C 
ATOM     20  C   UNL     1       3.719  -0.992  22.989  0.00  0.00    +0.010 C 
ATOM     21  C   UNL     1       4.977   1.011  22.621  0.00  0.00    +0.001 C 
ATOM     22  C   UNL     1       5.017  -0.299  23.389  0.00  0.00    +0.001 C 
ENDBRANCH  18  17
ENDBRANCH   8  14
BRANCH   9  15
ATOM     15  C   UNL     1      -4.573   0.593  23.420  0.00  0.00    +0.124 C 
BRANCH  15   4
ATOM      1  O   UNL     1      -4.858   3.094  24.832  0.00  0.00    -0.253 OA
ATOM      4  N   UNL     1      -3.553   1.567  23.663  0.00  0.00    -0.298 N 
ATOM      6  N   UNL     1      -2.610   3.524  24.452  0.00  0.00    -0.297 N 
ATOM     24  C   UNL     1      -3.771   2.762  24.360  0.00  0.00    +0.300 C 
ATOM     28  H   UNL     1      -2.620   1.385  23.307  0.00  0.00    +0.150 HD
ATOM     29  H   UNL     1      -1.744   3.129  24.096  0.00  0.00    +0.150 HD
BRANCH   6  25
ATOM     25  C   UNL     1      -2.563   4.802  25.121  0.00  0.00    +0.068 C 
ATOM     26  C   UNL     1      -1.185   5.432  24.967  0.00  0.00    +0.027 C 
ATOM     27  C   UNL     1      -2.938   4.651  26.591  0.00  0.00    +0.027 C 
ENDBRANCH   6  25
ENDBRANCH  15   4
ENDBRANCH   9  15
TORSDOF 5
ENDMDL
MODEL 6
REMARK VINA RESULT:       0.6      1.750      5.219
REMARK  Name = 25389088
REMARK  8 active torsions:
REMARK  status: ('A' for Active; 'I' for Inactive)
REMARK    1  A    between atoms: N_3  and  C_23
REMARK    2  A    between atoms: N_4  and  C_15
REMARK    3  A    between atoms: N_6  and  C_25
REMARK    4  A    between atoms: C_8  and  C_14
REMARK    5  A    between atoms: C_9  and  C_15
REMARK    6  A    between atoms: C_17  and  C_18
REMARK    7  A    between atoms: C_25  and  C_26
REMARK    8  A    between atoms: C_25  and  C_27
REMARK                            x       y       z     vdW  Elec       q    Type
REMARK                         _______ _______ _______ _____ _____    ______ ____
ROOT
ATOM      2  N   UNL     1       0.295   3.245  25.176  0.00  0.00    -0.297 NA
ATOM      7  C   UNL     1      -2.121   3.881  24.439  0.00  0.00    +0.002 C 
ATOM      8  C   UNL     1      -2.160   2.815  25.569  0.00  0.00    +0.055 C 
ATOM      9  C   UNL     1       0.178   3.171  23.696  0.00  0.00    +0.074 C 
ATOM     10  C   UNL     1      -1.291   3.341  23.255  0.00  0.00    +0.024 C 
ATOM     11  C   UNL     1      -0.697   2.343  25.810  0.00  0.00    +0.094 C 
ATOM     12  C   UNL     1      -1.362   5.101  25.005  0.00  0.00    +0.019 C 
ATOM     13  C   UNL     1      -0.016   4.635  25.586  0.00  0.00    +0.085 C 
ENDROOT
BRANCH   8  14
ATOM      3  N   UNL     1      -4.480   1.788  25.513  0.00  0.00    -0.271 N 
ATOM      5  N   UNL     1      -5.157   0.639  25.354  0.00  0.00    -0.176 NA
ATOM     14  C   UNL     1      -3.126   1.649  25.423  0.00  0.00    +0.044 A 
ATOM     16  C   UNL     1      -2.902   0.314  25.188  0.00  0.00    +0.048 A 
ATOM     18  C   UNL     1      -4.187  -0.259  25.156  0.00  0.00    +0.066 A 
ATOM     23  C   UNL     1      -5.213   3.010  25.756  0.00  0.00    +0.172 C 
BRANCH  18  17
ATOM     17  C   UNL     1      -4.544  -1.711  24.930  0.00  0.00    +0.040 C 
ATOM     19  C   UNL     1      -4.683  -2.057  23.437  0.00  0.00    +0.010 C 
ATOM     20  C   UNL     1      -3.520  -2.717  25.497  0.00  0.00    +0.010 C 
ATOM     21  C   UNL     1      -4.151  -3.477  23.318  0.00  0.00    +0.001 C 
ATOM     22  C   UNL     1      -2.989  -3.491  24.296  0.00  0.00    +0.001 C 
ENDBRANCH  18  17
ENDBRANCH   8  14
BRANCH   9  15
ATOM     15  C   UNL     1       0.800   1.893  23.126  0.00  0.00    +0.124 C 
BRANCH  15   4
ATOM      1  O   UNL     1       2.677  -0.138  22.303  0.00  0.00    -0.253 OA
ATOM      4  N   UNL     1       2.164   1.761  23.539  0.00  0.00    -0.298 N 
ATOM      6  N   UNL     1       4.286   0.852  23.650  0.00  0.00    -0.297 N 
ATOM     24  C   UNL     1       3.015   0.743  23.092  0.00  0.00    +0.300 C 
ATOM     28  H   UNL     1       2.534   2.441  24.195  0.00  0.00    +0.150 HD
ATOM     29  H   UNL     1       4.489   1.660  24.233  0.00  0.00    +0.150 HD
BRANCH   6  25
ATOM     25  C   UNL     1       5.353  -0.074  23.354  0.00  0.00    +0.068 C 
ATOM     26  C   UNL     1       5.045  -1.444  23.944  0.00  0.00    +0.027 C 
ATOM     27  C   UNL     1       6.684   0.462  23.868  0.00  0.00    +0.027 C 
ENDBRANCH   6  25
ENDBRANCH  15   4
ENDBRANCH   9  15
TORSDOF 5
ENDMDL
MODEL 7
REMARK VINA RESULT:       1.6      2.543      5.442
REMARK  Name = 25389088
REMARK  8 active torsions:
REMARK  status: ('A' for Active; 'I' for Inactive)
REMARK    1  A    between atoms: N_3  and  C_23
REMARK    2  A    between atoms: N_4  and  C_15
REMARK    3  A    between atoms: N_6  and  C_25
REMARK    4  A    between atoms: C_8  and  C_14
REMARK    5  A    between atoms: C_9  and  C_15
REMARK    6  A    between atoms: C_17  and  C_18
REMARK    7  A    between atoms: C_25  and  C_26
REMARK    8  A    between atoms: C_25  and  C_27
REMARK                            x       y       z     vdW  Elec       q    Type
REMARK                         _______ _______ _______ _____ _____    ______ ____
ROOT
ATOM      2  N   UNL     1      -3.686  -2.092  25.645  0.00  0.00    -0.297 NA
ATOM      7  C   UNL     1      -1.764  -1.946  23.893  0.00  0.00    +0.002 C 
ATOM      8  C   UNL     1      -1.421  -1.098  25.149  0.00  0.00    +0.055 C 
ATOM      9  C   UNL     1      -4.241  -1.759  24.307  0.00  0.00    +0.074 C 
ATOM     10  C   UNL     1      -3.107  -1.465  23.303  0.00  0.00    +0.024 C 
ATOM     11  C   UNL     1      -2.689  -1.071  26.050  0.00  0.00    +0.094 C 
ATOM     12  C   UNL     1      -1.977  -3.396  24.380  0.00  0.00    +0.019 C 
ATOM     13  C   UNL     1      -2.993  -3.398  25.536  0.00  0.00    +0.085 C 
ENDROOT
BRANCH   8  14
ATOM      3  N   UNL     1       0.122   0.560  24.003  0.00  0.00    -0.271 N 
ATOM      5  N   UNL     1       0.508   1.846  23.976  0.00  0.00    -0.176 NA
ATOM     14  C   UNL     1      -0.833   0.290  24.939  0.00  0.00    +0.044 A 
ATOM     16  C   UNL     1      -1.088   1.483  25.570  0.00  0.00    +0.048 A 
ATOM     18  C   UNL     1      -0.234   2.406  24.936  0.00  0.00    +0.066 A 
ATOM     23  C   UNL     1       0.724  -0.376  23.082  0.00  0.00    +0.172 C 
BRANCH  18  17
ATOM     17  C   UNL     1      -0.094   3.883  25.228  0.00  0.00    +0.040 C 
ATOM     19  C   UNL     1       0.056   4.724  23.948  0.00  0.00    +0.010 C 
ATOM     20  C   UNL     1      -1.283   4.499  25.995  0.00  0.00    +0.010 C 
ATOM     21  C   UNL     1      -0.681   6.021  24.249  0.00  0.00    +0.001 C 
ATOM     22  C   UNL     1      -1.872   5.556  25.068  0.00  0.00    +0.001 C 
ENDBRANCH  18  17
ENDBRANCH   8  14
BRANCH   9  15
ATOM     15  C   UNL     1      -5.260  -0.617  24.367  0.00  0.00    +0.124 C 
BRANCH  15   4
ATOM      1  O   UNL     1      -6.027   1.749  25.830  0.00  0.00    -0.253 OA
ATOM      4  N   UNL     1      -4.601   0.654  24.358  0.00  0.00    -0.298 N 
ATOM      6  N   UNL     1      -4.215   2.865  24.908  0.00  0.00    -0.297 N 
ATOM     24  C   UNL     1      -5.037   1.758  25.099  0.00  0.00    +0.300 C 
ATOM     28  H   UNL     1      -3.775   0.762  23.779  0.00  0.00    +0.150 HD
ATOM     29  H   UNL     1      -3.378   2.751  24.343  0.00  0.00    +0.150 HD
BRANCH   6  25
ATOM     25  C   UNL     1      -4.445   4.133  25.557  0.00  0.00    +0.068 C 
ATOM     26  C   UNL     1      -4.004   4.072  27.014  0.00  0.00    +0.027 C 
ATOM     27  C   UNL     1      -5.911   4.535  25.441  0.00  0.00    +0.027 C 
ENDBRANCH   6  25
ENDBRANCH  15   4
ENDBRANCH   9  15
TORSDOF 5
ENDMDL
MODEL 8
REMARK VINA RESULT:       2.6      2.974      5.442
REMARK  Name = 25389088
REMARK  8 active torsions:
REMARK  status: ('A' for Active; 'I' for Inactive)
REMARK    1  A    between atoms: N_3  and  C_23
REMARK    2  A    between atoms: N_4  and  C_15
REMARK    3  A    between atoms: N_6  and  C_25
REMARK    4  A    between atoms: C_8  and  C_14
REMARK    5  A    between atoms: C_9  and  C_15
REMARK    6  A    between atoms: C_17  and  C_18
REMARK    7  A    between atoms: C_25  and  C_26
REMARK    8  A    between atoms: C_25  and  C_27
REMARK                            x       y       z     vdW  Elec       q    Type
REMARK                         _______ _______ _______ _____ _____    ______ ____
ROOT
ATOM      2  N   UNL     1      -4.041  -1.566  25.204  0.00  0.00    -0.297 NA
ATOM      7  C   UNL     1      -1.820  -1.169  23.903  0.00  0.00    +0.002 C 
ATOM      8  C   UNL     1      -1.610  -0.927  25.423  0.00  0.00    +0.055 C 
ATOM      9  C   UNL     1      -4.283  -0.663  24.049  0.00  0.00    +0.074 C 
ATOM     10  C   UNL     1      -2.950  -0.250  23.390  0.00  0.00    +0.024 C 
ATOM     11  C   UNL     1      -3.010  -0.983  26.098  0.00  0.00    +0.094 C 
ATOM     12  C   UNL     1      -2.314  -2.623  23.748  0.00  0.00    +0.019 C 
ATOM     13  C   UNL     1      -3.521  -2.850  24.675  0.00  0.00    +0.085 C 
ENDROOT
BRANCH   8  14
ATOM      3  N   UNL     1      -0.164   1.109  24.968  0.00  0.00    -0.271 N 
ATOM      5  N   UNL     1       0.482   2.135  25.547  0.00  0.00    -0.176 NA
ATOM     14  C   UNL     1      -0.812   0.296  25.851  0.00  0.00    +0.044 A 
ATOM     16  C   UNL     1      -0.572   0.827  27.096  0.00  0.00    +0.048 A 
ATOM     18  C   UNL     1       0.230   1.958  26.847  0.00  0.00    +0.066 A 
ATOM     23  C   UNL     1      -0.115   0.966  23.532  0.00  0.00    +0.172 C 
BRANCH  18  17
ATOM     17  C   UNL     1       0.794   2.928  27.861  0.00  0.00    +0.040 C 
ATOM     19  C   UNL     1       0.204   2.720  29.267  0.00  0.00    +0.010 C 
ATOM     20  C   UNL     1       2.325   2.852  28.035  0.00  0.00    +0.010 C 
ATOM     21  C   UNL     1       1.355   3.017  30.216  0.00  0.00    +0.001 C 
ATOM     22  C   UNL     1       2.558   2.446  29.486  0.00  0.00    +0.001 C 
ENDBRANCH  18  17
ENDBRANCH   8  14
BRANCH   9  15
ATOM     15  C   UNL     1      -5.131   0.554  24.429  0.00  0.00    +0.124 C 
BRANCH  15   4
ATOM      1  O   UNL     1      -3.779   2.381  26.207  0.00  0.00    -0.253 OA
ATOM      4  N   UNL     1      -4.466   1.770  24.073  0.00  0.00    -0.298 N 
ATOM      6  N   UNL     1      -3.265   3.720  24.384  0.00  0.00    -0.297 N 
ATOM     24  C   UNL     1      -3.830   2.606  24.998  0.00  0.00    +0.300 C 
ATOM     28  H   UNL     1      -4.458   2.045  23.096  0.00  0.00    +0.150 HD
ATOM     29  H   UNL     1      -3.295   3.778  23.369  0.00  0.00    +0.150 HD
BRANCH   6  25
ATOM     25  C   UNL     1      -2.551   4.740  25.114  0.00  0.00    +0.068 C 
ATOM     26  C   UNL     1      -1.082   4.753  24.710  0.00  0.00    +0.027 C 
ATOM     27  C   UNL     1      -2.707   4.530  26.616  0.00  0.00    +0.027 C 
ENDBRANCH   6  25
ENDBRANCH  15   4
ENDBRANCH   9  15
TORSDOF 5
ENDMDL
