MODEL 1
REMARK VINA RESULT:      -3.1      0.000      0.000
REMARK  Name = 25339565
REMARK  13 active torsions:
REMARK  status: ('A' for Active; 'I' for Inactive)
REMARK    1  A    between atoms: O_1  and  C_13
REMARK    2  A    between atoms: N_3  and  C_9
REMARK    3  A    between atoms: N_3  and  C_20
REMARK    4  A    between atoms: N_4  and  C_28
REMARK    5  A    between atoms: C_6  and  C_14
REMARK    6  A    between atoms: C_8  and  C_16
REMARK    7  A    between atoms: C_8  and  C_17
REMARK    8  A    between atoms: C_13  and  C_19
REMARK    9  A    between atoms: C_14  and  C_18
REMARK   10  A    between atoms: C_18  and  C_22
REMARK   11  A    between atoms: C_20  and  C_21
REMARK   12  A    between atoms: C_28  and  C_29
REMARK   13  A    between atoms: C_29  and  C_30
REMARK                            x       y       z     vdW  Elec       q    Type
REMARK                         _______ _______ _______ _____ _____    ______ ____
ROOT
ATOM      6  C   UNL     1      14.014  -6.855  31.317  0.00  0.00    -0.010 C 
ATOM      7  C   UNL     1      15.579  -6.799  31.305  0.00  0.00    +0.005 C 
ATOM      8  C   UNL     1      16.045  -8.195  31.882  0.00  0.00    -0.030 C 
ATOM      9  C   UNL     1      13.773  -7.617  32.641  0.00  0.00    +0.061 C 
ATOM     10  C   UNL     1      14.792  -8.765  32.601  0.00  0.00    +0.026 C 
ATOM     11  C   UNL     1      13.331  -5.469  31.253  0.00  0.00    +0.011 C 
ATOM     12  C   UNL     1      16.149  -5.604  32.110  0.00  0.00    +0.039 C 
ATOM     13  C   UNL     1      15.475  -4.265  31.805  0.00  0.00    +0.064 C 
ATOM     15  C   UNL     1      13.979  -4.381  32.099  0.00  0.00    +0.035 C 
ATOM     16  C   UNL     1      16.494  -9.126  30.736  0.00  0.00    +0.011 C 
ATOM     17  C   UNL     1      17.226  -8.143  32.873  0.00  0.00    +0.011 C 
ATOM     19  C   UNL     1      16.104  -3.147  32.639  0.00  0.00    +0.041 C 
ENDROOT
BRANCH  13   1
ATOM      1  O   UNL     1      15.682  -3.954  30.427  0.00  0.00    -0.389 OA
ATOM     39  H   UNL     1      15.532  -4.765  29.909  0.00  0.00    +0.210 HD
ENDBRANCH  13   1
BRANCH   9   3
ATOM      3  N   UNL     1      12.416  -8.106  32.844  0.00  0.00    -0.312 NA
ATOM     38  H   UNL     1      12.289  -8.409  33.808  0.00  0.00    +0.122 HD
BRANCH   3  20
ATOM     20  C   UNL     1      12.161  -9.237  31.955  0.00  0.00    +0.084 C 
BRANCH  20  21
ATOM     21  C   UNL     1      10.704  -9.689  32.041  0.00  0.00    +0.003 C 
ATOM     23  C   UNL     1       9.788  -8.503  32.371  0.00  0.00    +0.005 C 
ATOM     24  C   UNL     1      10.270 -10.368  30.735  0.00  0.00    +0.005 C 
ATOM     25  C   UNL     1       8.319  -8.920  32.410  0.00  0.00    +0.000 C 
ATOM     26  C   UNL     1       8.801 -10.781  30.777  0.00  0.00    +0.000 C 
ATOM     27  C   UNL     1       7.893  -9.602  31.114  0.00  0.00    +0.000 C 
ENDBRANCH  20  21
ENDBRANCH   3  20
ENDBRANCH   9   3
BRANCH   6  14
ATOM     14  C   UNL     1      13.462  -7.646  30.101  0.00  0.00    +0.018 C 
BRANCH  14  18
ATOM     18  C   UNL     1      13.982  -7.055  28.807  0.00  0.00    +0.096 C 
BRANCH  18  22
ATOM      2  O   UNL     1      14.508  -9.310  28.098  0.00  0.00    -0.276 OA
ATOM      4  N   UNL     1      15.557  -7.523  27.051  0.00  0.00    -0.315 N 
ATOM     22  C   UNL     1      14.691  -8.103  27.967  0.00  0.00    +0.213 C 
ATOM     40  H   UNL     1      15.619  -6.511  26.990  0.00  0.00    +0.149 HD
BRANCH   4  28
ATOM     28  C   UNL     1      16.351  -8.309  26.136  0.00  0.00    +0.109 C 
BRANCH  28  29
ATOM     29  C   UNL     1      17.077  -7.450  25.104  0.00  0.00    +0.056 C 
BRANCH  29  30
ATOM      5  N   UNL     1      17.405  -4.181  26.768  0.00  0.00    -0.360 N 
ATOM     30  C   UNL     1      17.195  -6.004  25.519  0.00  0.00    -0.021 A 
ATOM     31  C   UNL     1      17.189  -4.871  24.658  0.00  0.00    +0.003 A 
ATOM     32  C   UNL     1      17.330  -5.548  26.810  0.00  0.00    +0.087 A 
ATOM     33  C   UNL     1      17.322  -3.741  25.466  0.00  0.00    +0.047 A 
ATOM     34  C   UNL     1      17.083  -4.700  23.263  0.00  0.00    +0.010 A 
ATOM     35  C   UNL     1      17.354  -2.441  24.947  0.00  0.00    +0.026 A 
ATOM     36  C   UNL     1      17.113  -3.406  22.730  0.00  0.00    +0.001 A 
ATOM     37  C   UNL     1      17.247  -2.296  23.562  0.00  0.00    +0.002 A 
ATOM     41  H   UNL     1      17.506  -3.581  27.575  0.00  0.00    +0.165 HD
ENDBRANCH  29  30
ENDBRANCH  28  29
ENDBRANCH   4  28
ENDBRANCH  18  22
ENDBRANCH  14  18
ENDBRANCH   6  14
TORSDOF 10
ENDMDL
