MODEL 1
REMARK VINA RESULT:      14.8      0.000      0.000
REMARK  Name = 11879647
REMARK  8 active torsions:
REMARK  status: ('A' for Active; 'I' for Inactive)
REMARK    1  A    between atoms: O_3  and  C_20
REMARK    2  A    between atoms: O_3  and  C_23
REMARK    3  A    between atoms: O_5  and  C_33
REMARK    4  A    between atoms: O_5  and  C_36
REMARK    5  A    between atoms: N_6  and  C_16
REMARK    6  A    between atoms: N_7  and  C_17
REMARK    7  A    between atoms: N_11  and  C_22
REMARK    8  A    between atoms: N_12  and  C_32
REMARK                            x       y       z     vdW  Elec       q    Type
REMARK                         _______ _______ _______ _____ _____    ______ ____
ROOT
ATOM      1  O   UNL     1      -4.531  -1.137  23.844  0.00  0.00    -0.370 OA
ATOM      2  O   UNL     1      -2.144  -0.599  25.820  0.00  0.00    -0.370 OA
ATOM     14  C   UNL     1      -2.869   0.220  24.886  0.00  0.00    +0.176 C 
ATOM     15  C   UNL     1      -3.189  -0.648  23.684  0.00  0.00    +0.172 C 
ATOM     16  C   UNL     1      -4.222   0.589  25.465  0.00  0.00    +0.171 C 
ATOM     17  C   UNL     1      -2.201  -1.789  23.775  0.00  0.00    +0.131 C 
ATOM     18  C   UNL     1      -5.111  -0.570  25.026  0.00  0.00    +0.190 C 
ATOM     19  C   UNL     1      -1.987  -1.915  25.271  0.00  0.00    +0.185 C 
ENDROOT
BRANCH  17   7
ATOM      4  O   UNL     1       0.247  -0.923  24.984  0.00  0.00    -0.252 OA
ATOM      7  N   UNL     1      -0.970  -1.468  23.095  0.00  0.00    -0.292 N 
ATOM     11  N   UNL     1       1.217  -0.811  22.849  0.00  0.00    -0.269 N 
ATOM     21  C   UNL     1       0.187  -1.050  23.764  0.00  0.00    +0.304 C 
ATOM     43  H   UNL     1      -0.920  -1.613  22.091  0.00  0.00    +0.151 HD
ATOM     44  H   UNL     1       1.001  -0.963  21.867  0.00  0.00    +0.156 HD
BRANCH  11  22
ATOM     22  C   UNL     1       2.537  -0.378  23.122  0.00  0.00    +0.035 A 
ATOM     26  C   UNL     1       2.929   0.917  22.783  0.00  0.00    +0.027 A 
ATOM     27  C   UNL     1       3.445  -1.247  23.728  0.00  0.00    +0.027 A 
ATOM     30  C   UNL     1       4.230   1.343  23.050  0.00  0.00    +0.048 A 
ATOM     31  C   UNL     1       4.746  -0.819  23.995  0.00  0.00    +0.048 A 
ATOM     33  C   UNL     1       5.138   0.475  23.657  0.00  0.00    +0.129 A 
BRANCH  33   5
ATOM      5  O   UNL     1       6.408   0.891  23.916  0.00  0.00    -0.456 OA
BRANCH   5  36
ATOM     36  C   UNL     1       7.449   0.159  23.367  0.00  0.00    +0.128 A 
ATOM     38  C   UNL     1       7.178  -0.983  22.615  0.00  0.00    +0.046 A 
ATOM     39  C   UNL     1       8.768   0.565  23.568  0.00  0.00    +0.046 A 
ATOM     40  C   UNL     1       8.226  -1.720  22.063  0.00  0.00    +0.004 A 
ATOM     41  C   UNL     1       9.816  -0.172  23.017  0.00  0.00    +0.004 A 
ATOM     42  C   UNL     1       9.545  -1.314  22.264  0.00  0.00    +0.000 A 
ENDBRANCH   5  36
ENDBRANCH  33   5
ENDBRANCH  11  22
ENDBRANCH  17   7
BRANCH  16   6
ATOM      6  N   UNL     1      -4.674   1.915  25.036  0.00  0.00    -0.187 N 
ATOM      8  N   UNL     1      -5.934   2.321  25.249  0.00  0.00    -0.041 NA
ATOM      9  N   UNL     1      -4.776   3.917  24.208  0.00  0.00    -0.071 NA
ATOM     10  N   UNL     1      -5.989   3.547  24.742  0.00  0.00    -0.020 NA
ATOM     20  C   UNL     1      -3.977   2.894  24.401  0.00  0.00    +0.342 A 
BRANCH  20   3
ATOM      3  O   UNL     1      -2.709   2.805  24.047  0.00  0.00    -0.423 OA
BRANCH   3  23
ATOM     23  C   UNL     1      -1.719   2.775  25.044  0.00  0.00    +0.132 A 
ATOM     24  C   UNL     1      -0.429   2.346  24.734  0.00  0.00    +0.048 A 
ATOM     25  C   UNL     1      -2.028   3.174  26.345  0.00  0.00    +0.048 A 
ATOM     28  C   UNL     1       0.553   2.316  25.724  0.00  0.00    +0.030 A 
ATOM     29  C   UNL     1      -1.046   3.144  27.335  0.00  0.00    +0.030 A 
ATOM     32  C   UNL     1       0.245   2.715  27.024  0.00  0.00    +0.048 A 
BRANCH  32  12
ATOM     12  N   UNL     1       1.219   2.686  28.006  0.00  0.00    -0.306 N 
ATOM     13  N   UNL     1       3.199   2.936  28.981  0.00  0.00    -0.244 NA
ATOM     34  C   UNL     1       1.058   2.257  29.292  0.00  0.00    +0.112 A 
ATOM     35  C   UNL     1       2.520   3.083  27.865  0.00  0.00    +0.204 A 
ATOM     37  C   UNL     1       2.293   2.421  29.874  0.00  0.00    +0.130 A 
ENDBRANCH  32  12
ENDBRANCH   3  23
ENDBRANCH  20   3
ENDBRANCH  16   6
TORSDOF 8
ENDMDL
MODEL 2
REMARK VINA RESULT:      14.8      1.398      2.075
REMARK  Name = 11879647
REMARK  8 active torsions:
REMARK  status: ('A' for Active; 'I' for Inactive)
REMARK    1  A    between atoms: O_3  and  C_20
REMARK    2  A    between atoms: O_3  and  C_23
REMARK    3  A    between atoms: O_5  and  C_33
REMARK    4  A    between atoms: O_5  and  C_36
REMARK    5  A    between atoms: N_6  and  C_16
REMARK    6  A    between atoms: N_7  and  C_17
REMARK    7  A    between atoms: N_11  and  C_22
REMARK    8  A    between atoms: N_12  and  C_32
REMARK                            x       y       z     vdW  Elec       q    Type
REMARK                         _______ _______ _______ _____ _____    ______ ____
ROOT
ATOM      1  O   UNL     1      -6.285   0.430  24.489  0.00  0.00    -0.370 OA
ATOM      2  O   UNL     1      -3.669   0.153  26.213  0.00  0.00    -0.370 OA
ATOM     14  C   UNL     1      -4.148   1.136  25.279  0.00  0.00    +0.176 C 
ATOM     15  C   UNL     1      -4.882   0.390  24.180  0.00  0.00    +0.172 C 
ATOM     16  C   UNL     1      -5.210   1.997  25.935  0.00  0.00    +0.171 C 
ATOM     17  C   UNL     1      -4.363  -1.026  24.281  0.00  0.00    +0.131 C 
ATOM     18  C   UNL     1      -6.495   1.222  25.666  0.00  0.00    +0.190 C 
ATOM     19  C   UNL     1      -4.051  -1.153  25.760  0.00  0.00    +0.185 C 
ENDROOT
BRANCH  17   7
ATOM      4  O   UNL     1      -1.866   0.344  24.585  0.00  0.00    -0.252 OA
ATOM      7  N   UNL     1      -3.177  -1.206  23.478  0.00  0.00    -0.292 N 
ATOM     11  N   UNL     1      -1.019  -0.874  22.766  0.00  0.00    -0.269 N 
ATOM     21  C   UNL     1      -1.992  -0.492  23.694  0.00  0.00    +0.304 C 
ATOM     43  H   UNL     1      -3.181  -1.928  22.765  0.00  0.00    +0.151 HD
ATOM     44  H   UNL     1      -1.287  -1.584  22.089  0.00  0.00    +0.156 HD
BRANCH  11  22
ATOM     22  C   UNL     1       0.306  -0.391  22.649  0.00  0.00    +0.035 A 
ATOM     26  C   UNL     1       1.108  -0.809  21.588  0.00  0.00    +0.027 A 
ATOM     27  C   UNL     1       0.808   0.503  23.595  0.00  0.00    +0.027 A 
ATOM     30  C   UNL     1       2.415  -0.334  21.473  0.00  0.00    +0.048 A 
ATOM     31  C   UNL     1       2.115   0.978  23.479  0.00  0.00    +0.048 A 
ATOM     33  C   UNL     1       2.918   0.560  22.419  0.00  0.00    +0.129 A 
BRANCH  33   5
ATOM      5  O   UNL     1       4.193   1.023  22.308  0.00  0.00    -0.456 OA
BRANCH   5  36
ATOM     36  C   UNL     1       5.188   0.334  22.982  0.00  0.00    +0.128 A 
ATOM     38  C   UNL     1       5.016  -0.004  24.324  0.00  0.00    +0.046 A 
ATOM     39  C   UNL     1       6.363  -0.020  22.319  0.00  0.00    +0.046 A 
ATOM     40  C   UNL     1       6.018  -0.697  25.003  0.00  0.00    +0.004 A 
ATOM     41  C   UNL     1       7.365  -0.713  22.998  0.00  0.00    +0.004 A 
ATOM     42  C   UNL     1       7.193  -1.052  24.340  0.00  0.00    +0.000 A 
ENDBRANCH   5  36
ENDBRANCH  33   5
ENDBRANCH  11  22
ENDBRANCH  17   7
BRANCH  16   6
ATOM      6  N   UNL     1      -5.201   3.376  25.439  0.00  0.00    -0.187 N 
ATOM      8  N   UNL     1      -6.231   4.203  25.670  0.00  0.00    -0.041 NA
ATOM      9  N   UNL     1      -4.653   5.249  24.492  0.00  0.00    -0.071 NA
ATOM     10  N   UNL     1      -5.889   5.346  25.089  0.00  0.00    -0.020 NA
ATOM     20  C   UNL     1      -4.245   4.022  24.721  0.00  0.00    +0.342 A 
BRANCH  20   3
ATOM      3  O   UNL     1      -3.106   3.483  24.330  0.00  0.00    -0.423 OA
BRANCH   3  23
ATOM     23  C   UNL     1      -2.077   3.300  25.269  0.00  0.00    +0.132 A 
ATOM     24  C   UNL     1      -0.778   3.032  24.837  0.00  0.00    +0.048 A 
ATOM     25  C   UNL     1      -2.354   3.386  26.633  0.00  0.00    +0.048 A 
ATOM     28  C   UNL     1       0.244   2.850  25.768  0.00  0.00    +0.030 A 
ATOM     29  C   UNL     1      -1.332   3.203  27.565  0.00  0.00    +0.030 A 
ATOM     32  C   UNL     1      -0.033   2.935  27.133  0.00  0.00    +0.048 A 
BRANCH  32  12
ATOM     12  N   UNL     1       0.980   2.756  28.057  0.00  0.00    -0.306 N 
ATOM     13  N   UNL     1       3.021   2.752  28.932  0.00  0.00    -0.244 NA
ATOM     34  C   UNL     1       0.840   2.277  29.328  0.00  0.00    +0.112 A 
ATOM     35  C   UNL     1       2.306   3.026  27.864  0.00  0.00    +0.204 A 
ATOM     37  C   UNL     1       2.112   2.283  29.848  0.00  0.00    +0.130 A 
ENDBRANCH  32  12
ENDBRANCH   3  23
ENDBRANCH  20   3
ENDBRANCH  16   6
TORSDOF 8
ENDMDL
MODEL 3
REMARK VINA RESULT:      17.1      5.093      8.567
REMARK  Name = 11879647
REMARK  8 active torsions:
REMARK  status: ('A' for Active; 'I' for Inactive)
REMARK    1  A    between atoms: O_3  and  C_20
REMARK    2  A    between atoms: O_3  and  C_23
REMARK    3  A    between atoms: O_5  and  C_33
REMARK    4  A    between atoms: O_5  and  C_36
REMARK    5  A    between atoms: N_6  and  C_16
REMARK    6  A    between atoms: N_7  and  C_17
REMARK    7  A    between atoms: N_11  and  C_22
REMARK    8  A    between atoms: N_12  and  C_32
REMARK                            x       y       z     vdW  Elec       q    Type
REMARK                         _______ _______ _______ _____ _____    ______ ____
ROOT
ATOM      1  O   UNL     1       6.077  -0.783  23.063  0.00  0.00    -0.370 OA
ATOM      2  O   UNL     1       5.056   1.251  25.234  0.00  0.00    -0.370 OA
ATOM     14  C   UNL     1       4.666   0.957  23.881  0.00  0.00    +0.176 C 
ATOM     15  C   UNL     1       5.933   0.646  23.107  0.00  0.00    +0.172 C 
ATOM     16  C   UNL     1       3.866  -0.331  23.843  0.00  0.00    +0.171 C 
ATOM     17  C   UNL     1       7.037   1.259  23.938  0.00  0.00    +0.131 C 
ATOM     18  C   UNL     1       4.942  -1.400  23.687  0.00  0.00    +0.190 C 
ATOM     19  C   UNL     1       6.483   1.150  25.346  0.00  0.00    +0.185 C 
ENDROOT
BRANCH  17   7
ATOM      4  O   UNL     1       9.539   2.445  23.201  0.00  0.00    -0.252 OA
ATOM      7  N   UNL     1       7.265   2.635  23.569  0.00  0.00    -0.292 N 
ATOM     11  N   UNL     1       8.439   4.497  22.914  0.00  0.00    -0.269 N 
ATOM     21  C   UNL     1       8.525   3.137  23.221  0.00  0.00    +0.304 C 
ATOM     43  H   UNL     1       6.463   3.254  23.497  0.00  0.00    +0.151 HD
ATOM     44  H   UNL     1       7.518   4.924  22.982  0.00  0.00    +0.156 HD
BRANCH  11  22
ATOM     22  C   UNL     1       9.483   5.366  22.518  0.00  0.00    +0.035 A 
ATOM     26  C   UNL     1       9.364   6.740  22.727  0.00  0.00    +0.027 A 
ATOM     27  C   UNL     1      10.632   4.847  21.918  0.00  0.00    +0.027 A 
ATOM     30  C   UNL     1      10.393   7.596  22.335  0.00  0.00    +0.048 A 
ATOM     31  C   UNL     1      11.661   5.704  21.527  0.00  0.00    +0.048 A 
ATOM     33  C   UNL     1      11.541   7.078  21.735  0.00  0.00    +0.129 A 
BRANCH  33   5
ATOM      5  O   UNL     1      12.545   7.914  21.351  0.00  0.00    -0.456 OA
BRANCH   5  36
ATOM     36  C   UNL     1      12.955   7.861  20.029  0.00  0.00    +0.128 A 
ATOM     38  C   UNL     1      12.077   8.229  19.011  0.00  0.00    +0.046 A 
ATOM     39  C   UNL     1      14.247   7.439  19.717  0.00  0.00    +0.046 A 
ATOM     40  C   UNL     1      12.490   8.175  17.680  0.00  0.00    +0.004 A 
ATOM     41  C   UNL     1      14.661   7.385  18.386  0.00  0.00    +0.004 A 
ATOM     42  C   UNL     1      13.783   7.753  17.367  0.00  0.00    +0.000 A 
ENDBRANCH   5  36
ENDBRANCH  33   5
ENDBRANCH  11  22
ENDBRANCH  17   7
BRANCH  16   6
ATOM      6  N   UNL     1       2.840  -0.325  22.796  0.00  0.00    -0.187 N 
ATOM      8  N   UNL     1       3.163  -0.131  21.510  0.00  0.00    -0.041 NA
ATOM      9  N   UNL     1       0.961  -0.415  21.717  0.00  0.00    -0.071 NA
ATOM     10  N   UNL     1       2.010  -0.188  20.855  0.00  0.00    -0.020 NA
ATOM     20  C   UNL     1       1.497  -0.497  22.912  0.00  0.00    +0.342 A 
BRANCH  20   3
ATOM      3  O   UNL     1       0.861  -0.708  24.049  0.00  0.00    -0.423 OA
BRANCH   3  23
ATOM     23  C   UNL     1      -0.340  -0.024  24.300  0.00  0.00    +0.132 A 
ATOM     24  C   UNL     1      -0.350   1.370  24.358  0.00  0.00    +0.048 A 
ATOM     25  C   UNL     1      -1.522  -0.739  24.492  0.00  0.00    +0.048 A 
ATOM     28  C   UNL     1      -1.542   2.049  24.607  0.00  0.00    +0.030 A 
ATOM     29  C   UNL     1      -2.714  -0.059  24.741  0.00  0.00    +0.030 A 
ATOM     32  C   UNL     1      -2.725   1.335  24.799  0.00  0.00    +0.048 A 
BRANCH  32  12
ATOM     12  N   UNL     1      -3.907   2.008  25.046  0.00  0.00    -0.306 N 
ATOM     13  N   UNL     1      -6.087   2.376  25.259  0.00  0.00    -0.244 NA
ATOM     34  C   UNL     1      -4.030   3.316  25.419  0.00  0.00    +0.112 A 
ATOM     35  C   UNL     1      -5.168   1.485  24.962  0.00  0.00    +0.204 A 
ATOM     37  C   UNL     1      -5.384   3.520  25.543  0.00  0.00    +0.130 A 
ENDBRANCH  32  12
ENDBRANCH   3  23
ENDBRANCH  20   3
ENDBRANCH  16   6
TORSDOF 8
ENDMDL
MODEL 4
REMARK VINA RESULT:      17.8      2.405      4.306
REMARK  Name = 11879647
REMARK  8 active torsions:
REMARK  status: ('A' for Active; 'I' for Inactive)
REMARK    1  A    between atoms: O_3  and  C_20
REMARK    2  A    between atoms: O_3  and  C_23
REMARK    3  A    between atoms: O_5  and  C_33
REMARK    4  A    between atoms: O_5  and  C_36
REMARK    5  A    between atoms: N_6  and  C_16
REMARK    6  A    between atoms: N_7  and  C_17
REMARK    7  A    between atoms: N_11  and  C_22
REMARK    8  A    between atoms: N_12  and  C_32
REMARK                            x       y       z     vdW  Elec       q    Type
REMARK                         _______ _______ _______ _____ _____    ______ ____
ROOT
ATOM      1  O   UNL     1      -2.927   4.235  26.938  0.00  0.00    -0.370 OA
ATOM      2  O   UNL     1      -3.386   5.021  23.928  0.00  0.00    -0.370 OA
ATOM     14  C   UNL     1      -3.761   3.889  24.731  0.00  0.00    +0.176 C 
ATOM     15  C   UNL     1      -2.612   3.614  25.682  0.00  0.00    +0.172 C 
ATOM     16  C   UNL     1      -4.925   4.257  25.631  0.00  0.00    +0.171 C 
ATOM     17  C   UNL     1      -1.426   4.299  25.041  0.00  0.00    +0.131 C 
ATOM     18  C   UNL     1      -4.237   4.815  26.872  0.00  0.00    +0.190 C 
ATOM     19  C   UNL     1      -2.076   5.460  24.314  0.00  0.00    +0.185 C 
ENDROOT
BRANCH  17   7
ATOM      4  O   UNL     1       0.906   2.722  25.578  0.00  0.00    -0.252 OA
ATOM      7  N   UNL     1      -0.749   3.417  24.120  0.00  0.00    -0.292 N 
ATOM     11  N   UNL     1       0.824   1.919  23.374  0.00  0.00    -0.269 N 
ATOM     21  C   UNL     1       0.391   2.680  24.464  0.00  0.00    +0.304 C 
ATOM     43  H   UNL     1      -1.155   3.276  23.201  0.00  0.00    +0.151 HD
ATOM     44  H   UNL     1       0.282   1.999  22.517  0.00  0.00    +0.156 HD
BRANCH  11  22
ATOM     22  C   UNL     1       1.934   1.044  23.312  0.00  0.00    +0.035 A 
ATOM     26  C   UNL     1       3.209   1.552  23.063  0.00  0.00    +0.027 A 
ATOM     27  C   UNL     1       1.753  -0.327  23.500  0.00  0.00    +0.027 A 
ATOM     30  C   UNL     1       4.303   0.689  23.001  0.00  0.00    +0.048 A 
ATOM     31  C   UNL     1       2.848  -1.189  23.438  0.00  0.00    +0.048 A 
ATOM     33  C   UNL     1       4.122  -0.681  23.189  0.00  0.00    +0.129 A 
BRANCH  33   5
ATOM      5  O   UNL     1       5.190  -1.524  23.126  0.00  0.00    -0.456 OA
BRANCH   5  36
ATOM     36  C   UNL     1       6.455  -0.960  23.126  0.00  0.00    +0.128 A 
ATOM     38  C   UNL     1       6.707   0.189  23.875  0.00  0.00    +0.046 A 
ATOM     39  C   UNL     1       7.476  -1.541  22.374  0.00  0.00    +0.046 A 
ATOM     40  C   UNL     1       7.981   0.756  23.874  0.00  0.00    +0.004 A 
ATOM     41  C   UNL     1       8.750  -0.973  22.373  0.00  0.00    +0.004 A 
ATOM     42  C   UNL     1       9.003   0.176  23.123  0.00  0.00    +0.000 A 
ENDBRANCH   5  36
ENDBRANCH  33   5
ENDBRANCH  11  22
ENDBRANCH  17   7
BRANCH  16   6
ATOM      6  N   UNL     1      -5.825   3.127  25.877  0.00  0.00    -0.187 N 
ATOM      8  N   UNL     1      -6.733   3.164  26.863  0.00  0.00    -0.041 NA
ATOM      9  N   UNL     1      -6.855   1.221  25.776  0.00  0.00    -0.071 NA
ATOM     10  N   UNL     1      -7.361   1.997  26.795  0.00  0.00    -0.020 NA
ATOM     20  C   UNL     1      -5.907   1.939  25.221  0.00  0.00    +0.342 A 
BRANCH  20   3
ATOM      3  O   UNL     1      -5.148   1.590  24.201  0.00  0.00    -0.423 OA
BRANCH   3  23
ATOM     23  C   UNL     1      -4.107   0.669  24.405  0.00  0.00    +0.132 A 
ATOM     24  C   UNL     1      -4.234  -0.323  25.377  0.00  0.00    +0.048 A 
ATOM     25  C   UNL     1      -2.945   0.747  23.636  0.00  0.00    +0.048 A 
ATOM     28  C   UNL     1      -3.200  -1.238  25.581  0.00  0.00    +0.030 A 
ATOM     29  C   UNL     1      -1.912  -0.167  23.839  0.00  0.00    +0.030 A 
ATOM     32  C   UNL     1      -2.039  -1.159  24.812  0.00  0.00    +0.048 A 
BRANCH  32  12
ATOM     12  N   UNL     1      -1.014  -2.066  25.013  0.00  0.00    -0.306 N 
ATOM     13  N   UNL     1       0.904  -2.910  25.749  0.00  0.00    -0.244 NA
ATOM     34  C   UNL     1      -0.952  -3.338  24.519  0.00  0.00    +0.112 A 
ATOM     35  C   UNL     1       0.121  -1.854  25.744  0.00  0.00    +0.204 A 
ATOM     37  C   UNL     1       0.241  -3.838  24.986  0.00  0.00    +0.130 A 
ENDBRANCH  32  12
ENDBRANCH   3  23
ENDBRANCH  20   3
ENDBRANCH  16   6
TORSDOF 8
ENDMDL
