MODEL 1
REMARK VINA RESULT:       0.2      0.000      0.000
REMARK  Name = 7134432
REMARK  12 active torsions:
REMARK  status: ('A' for Active; 'I' for Inactive)
REMARK    1  A    between atoms: S_1  and  N_10
REMARK    2  A    between atoms: S_1  and  C_22
REMARK    3  A    between atoms: O_3  and  C_13
REMARK    4  A    between atoms: O_4  and  C_15
REMARK    5  A    between atoms: O_9  and  C_32
REMARK    6  A    between atoms: O_9  and  C_33
REMARK    7  A    between atoms: N_10  and  C_14
REMARK    8  A    between atoms: N_11  and  C_20
REMARK    9  A    between atoms: C_17  and  C_19
REMARK   10  A    between atoms: C_20  and  C_21
REMARK   11  A    between atoms: C_20  and  C_24
REMARK   12  A    between atoms: C_21  and  C_23
REMARK                            x       y       z     vdW  Elec       q    Type
REMARK                         _______ _______ _______ _____ _____    ______ ____
ROOT
ATOM     13  C   UNL     1      -1.256  -2.446  25.122  0.00  0.00    +0.166 C 
ATOM     14  C   UNL     1      -0.851  -1.425  24.042  0.00  0.00    +0.131 C 
ATOM     15  C   UNL     1      -2.762  -2.734  25.082  0.00  0.00    +0.149 C 
ATOM     16  C   UNL     1      -3.601  -1.452  25.219  0.00  0.00    +0.074 C 
ATOM     17  C   UNL     1      -3.017  -0.276  24.489  0.00  0.00    +0.015 C 
ATOM     18  C   UNL     1      -1.789  -0.252  23.949  0.00  0.00    +0.004 C 
ENDROOT
BRANCH  17  19
ATOM      5  O   UNL     1      -4.868   1.077  25.003  0.00  0.00    -0.271 OA
ATOM     11  N   UNL     1      -3.352   1.804  23.390  0.00  0.00    -0.300 N 
ATOM     19  C   UNL     1      -3.847   0.924  24.335  0.00  0.00    +0.241 C 
ATOM     37  H   UNL     1      -2.545   1.532  22.835  0.00  0.00    +0.150 HD
BRANCH  11  20
ATOM     20  C   UNL     1      -3.997   3.055  23.061  0.00  0.00    +0.163 C 
BRANCH  20  24
ATOM      8  O   UNL     1      -4.350   4.155  20.923  0.00  0.00    -0.274 OA
ATOM     12  N   UNL     1      -2.722   2.541  21.074  0.00  0.00    -0.328 N 
ATOM     24  C   UNL     1      -3.744   3.315  21.584  0.00  0.00    +0.231 C 
ATOM     38  H   UNL     1      -2.440   2.627  20.103  0.00  0.00    +0.145 HD
ATOM     39  H   UNL     1      -2.226   1.854  21.632  0.00  0.00    +0.145 HD
ENDBRANCH  20  24
BRANCH  20  21
ATOM     21  C   UNL     1      -3.469   4.220  23.906  0.00  0.00    +0.067 C 
BRANCH  21  23
ATOM     23  C   UNL     1      -2.267   3.841  24.737  0.00  0.00    -0.045 A 
ATOM     26  C   UNL     1      -0.991   3.874  24.174  0.00  0.00    +0.007 A 
ATOM     27  C   UNL     1      -2.433   3.456  26.068  0.00  0.00    +0.007 A 
ATOM     30  C   UNL     1       0.119   3.523  24.941  0.00  0.00    +0.046 A 
ATOM     31  C   UNL     1      -1.322   3.104  26.836  0.00  0.00    +0.046 A 
ATOM     32  C   UNL     1      -0.046   3.138  26.272  0.00  0.00    +0.120 A 
BRANCH  32   9
ATOM      9  O   UNL     1       1.037   2.796  27.020  0.00  0.00    -0.495 OA
ATOM     33  C   UNL     1       0.796   2.408  28.373  0.00  0.00    +0.277 C 
ENDBRANCH  32   9
ENDBRANCH  21  23
ENDBRANCH  20  21
ENDBRANCH  11  20
ENDBRANCH  17  19
BRANCH  13   3
ATOM      3  O   UNL     1      -0.921  -1.940  26.416  0.00  0.00    -0.387 OA
ATOM     35  H   UNL     1      -0.342  -2.593  26.844  0.00  0.00    +0.210 HD
ENDBRANCH  13   3
BRANCH  15   4
ATOM      4  O   UNL     1      -3.101  -3.413  23.873  0.00  0.00    -0.389 OA
ATOM     36  H   UNL     1      -3.536  -4.248  24.117  0.00  0.00    +0.210 HD
ENDBRANCH  15   4
BRANCH  14  10
ATOM     10  N   UNL     1       0.523  -0.934  24.307  0.00  0.00    -0.180 NA
ATOM     34  H   UNL     1       1.097  -1.535  24.911  0.00  0.00    +0.149 HD
BRANCH  10   1
ATOM      1  S   UNL     1       1.306  -0.054  23.067  0.00  0.00    +0.065 S 
ATOM      6  O   UNL     1       1.081   1.365  23.266  0.00  0.00    -0.153 OA
ATOM      7  O   UNL     1       1.024  -0.691  21.795  0.00  0.00    -0.153 OA
BRANCH   1  22
ATOM      2  S   UNL     1       4.042   0.990  22.698  0.00  0.00    -0.077 S 
ATOM     22  C   UNL     1       3.070  -0.293  23.278  0.00  0.00    +0.142 A 
ATOM     25  C   UNL     1       3.825  -1.311  23.819  0.00  0.00    +0.036 A 
ATOM     28  C   UNL     1       5.220  -1.032  23.757  0.00  0.00    +0.010 A 
ATOM     29  C   UNL     1       5.479   0.187  23.170  0.00  0.00    +0.047 A 
ENDBRANCH   1  22
ENDBRANCH  10   1
ENDBRANCH  14  10
TORSDOF 11
ENDMDL
MODEL 2
REMARK VINA RESULT:       1.7      2.090      3.500
REMARK  Name = 7134432
REMARK  12 active torsions:
REMARK  status: ('A' for Active; 'I' for Inactive)
REMARK    1  A    between atoms: S_1  and  N_10
REMARK    2  A    between atoms: S_1  and  C_22
REMARK    3  A    between atoms: O_3  and  C_13
REMARK    4  A    between atoms: O_4  and  C_15
REMARK    5  A    between atoms: O_9  and  C_32
REMARK    6  A    between atoms: O_9  and  C_33
REMARK    7  A    between atoms: N_10  and  C_14
REMARK    8  A    between atoms: N_11  and  C_20
REMARK    9  A    between atoms: C_17  and  C_19
REMARK   10  A    between atoms: C_20  and  C_21
REMARK   11  A    between atoms: C_20  and  C_24
REMARK   12  A    between atoms: C_21  and  C_23
REMARK                            x       y       z     vdW  Elec       q    Type
REMARK                         _______ _______ _______ _____ _____    ______ ____
ROOT
ATOM     13  C   UNL     1      -0.776  -1.899  24.890  0.00  0.00    +0.166 C 
ATOM     14  C   UNL     1      -0.282  -0.977  23.760  0.00  0.00    +0.131 C 
ATOM     15  C   UNL     1      -2.207  -1.544  25.315  0.00  0.00    +0.149 C 
ATOM     16  C   UNL     1      -2.338  -0.070  25.735  0.00  0.00    +0.074 C 
ATOM     17  C   UNL     1      -1.527   0.866  24.885  0.00  0.00    +0.015 C 
ATOM     18  C   UNL     1      -0.607   0.474  23.990  0.00  0.00    +0.004 C 
ENDROOT
BRANCH  17  19
ATOM      5  O   UNL     1      -1.905   2.821  26.131  0.00  0.00    -0.271 OA
ATOM     11  N   UNL     1      -1.809   2.966  23.808  0.00  0.00    -0.300 N 
ATOM     19  C   UNL     1      -1.764   2.307  25.023  0.00  0.00    +0.241 C 
ATOM     37  H   UNL     1      -1.767   2.423  22.949  0.00  0.00    +0.150 HD
BRANCH  11  20
ATOM     20  C   UNL     1      -2.033   4.389  23.688  0.00  0.00    +0.163 C 
BRANCH  20  24
ATOM      8  O   UNL     1      -1.997   5.734  25.713  0.00  0.00    -0.274 OA
ATOM     12  N   UNL     1      -0.044   4.747  25.014  0.00  0.00    -0.328 N 
ATOM     24  C   UNL     1      -1.385   5.046  24.898  0.00  0.00    +0.231 C 
ATOM     38  H   UNL     1       0.505   5.109  25.787  0.00  0.00    +0.145 HD
ATOM     39  H   UNL     1       0.448   4.174  24.337  0.00  0.00    +0.145 HD
ENDBRANCH  20  24
BRANCH  20  21
ATOM     21  C   UNL     1      -3.524   4.738  23.627  0.00  0.00    +0.067 C 
BRANCH  21  23
ATOM     23  C   UNL     1      -4.388   3.741  24.360  0.00  0.00    -0.045 A 
ATOM     26  C   UNL     1      -4.949   4.079  25.593  0.00  0.00    +0.007 A 
ATOM     27  C   UNL     1      -4.626   2.483  23.807  0.00  0.00    +0.007 A 
ATOM     30  C   UNL     1      -5.747   3.158  26.272  0.00  0.00    +0.046 A 
ATOM     31  C   UNL     1      -5.423   1.561  24.486  0.00  0.00    +0.046 A 
ATOM     32  C   UNL     1      -5.984   1.900  25.718  0.00  0.00    +0.120 A 
BRANCH  32   9
ATOM      9  O   UNL     1      -6.762   1.001  26.380  0.00  0.00    -0.495 OA
ATOM     33  C   UNL     1      -6.942   1.205  27.782  0.00  0.00    +0.277 C 
ENDBRANCH  32   9
ENDBRANCH  21  23
ENDBRANCH  20  21
ENDBRANCH  11  20
ENDBRANCH  17  19
BRANCH  13   3
ATOM      3  O   UNL     1       0.082  -1.776  26.026  0.00  0.00    -0.387 OA
ATOM     35  H   UNL     1       0.985  -1.635  25.696  0.00  0.00    +0.210 HD
ENDBRANCH  13   3
BRANCH  15   4
ATOM      4  O   UNL     1      -3.120  -1.835  24.258  0.00  0.00    -0.389 OA
ATOM     36  H   UNL     1      -2.713  -1.535  23.427  0.00  0.00    +0.210 HD
ENDBRANCH  15   4
BRANCH  14  10
ATOM     10  N   UNL     1       1.185  -1.129  23.594  0.00  0.00    -0.180 NA
ATOM     34  H   UNL     1       1.519  -2.097  23.504  0.00  0.00    +0.149 HD
BRANCH  10   1
ATOM      1  S   UNL     1       2.020   0.096  22.744  0.00  0.00    +0.065 S 
ATOM      6  O   UNL     1       1.589   1.396  23.222  0.00  0.00    -0.153 OA
ATOM      7  O   UNL     1       2.012  -0.228  21.331  0.00  0.00    -0.153 OA
BRANCH   1  22
ATOM      2  S   UNL     1       4.212  -1.539  23.857  0.00  0.00    -0.077 S 
ATOM     22  C   UNL     1       3.751  -0.029  23.196  0.00  0.00    +0.142 A 
ATOM     25  C   UNL     1       4.810   0.850  23.124  0.00  0.00    +0.036 A 
ATOM     28  C   UNL     1       6.015   0.274  23.617  0.00  0.00    +0.010 A 
ATOM     29  C   UNL     1       5.833  -1.020  24.048  0.00  0.00    +0.047 A 
ENDBRANCH   1  22
ENDBRANCH  10   1
ENDBRANCH  14  10
TORSDOF 11
ENDMDL
MODEL 3
REMARK VINA RESULT:       1.8      1.878      2.637
REMARK  Name = 7134432
REMARK  12 active torsions:
REMARK  status: ('A' for Active; 'I' for Inactive)
REMARK    1  A    between atoms: S_1  and  N_10
REMARK    2  A    between atoms: S_1  and  C_22
REMARK    3  A    between atoms: O_3  and  C_13
REMARK    4  A    between atoms: O_4  and  C_15
REMARK    5  A    between atoms: O_9  and  C_32
REMARK    6  A    between atoms: O_9  and  C_33
REMARK    7  A    between atoms: N_10  and  C_14
REMARK    8  A    between atoms: N_11  and  C_20
REMARK    9  A    between atoms: C_17  and  C_19
REMARK   10  A    between atoms: C_20  and  C_21
REMARK   11  A    between atoms: C_20  and  C_24
REMARK   12  A    between atoms: C_21  and  C_23
REMARK                            x       y       z     vdW  Elec       q    Type
REMARK                         _______ _______ _______ _____ _____    ______ ____
ROOT
ATOM     13  C   UNL     1      -0.884  -2.262  25.047  0.00  0.00    +0.166 C 
ATOM     14  C   UNL     1      -0.733  -1.052  24.105  0.00  0.00    +0.131 C 
ATOM     15  C   UNL     1      -2.303  -2.841  24.989  0.00  0.00    +0.149 C 
ATOM     16  C   UNL     1      -3.374  -1.784  25.304  0.00  0.00    +0.074 C 
ATOM     17  C   UNL     1      -3.066  -0.432  24.726  0.00  0.00    +0.015 C 
ATOM     18  C   UNL     1      -1.889  -0.092  24.178  0.00  0.00    +0.004 C 
ENDROOT
BRANCH  17  19
ATOM      5  O   UNL     1      -4.831   0.776  23.756  0.00  0.00    -0.271 OA
ATOM     11  N   UNL     1      -4.205   1.259  25.948  0.00  0.00    -0.300 N 
ATOM     19  C   UNL     1      -4.123   0.584  24.743  0.00  0.00    +0.241 C 
ATOM     37  H   UNL     1      -3.508   1.077  26.665  0.00  0.00    +0.150 HD
BRANCH  11  20
ATOM     20  C   UNL     1      -5.167   2.306  26.203  0.00  0.00    +0.163 C 
BRANCH  20  24
ATOM      8  O   UNL     1      -7.099   1.138  27.103  0.00  0.00    -0.274 OA
ATOM     12  N   UNL     1      -7.140   1.797  24.903  0.00  0.00    -0.328 N 
ATOM     24  C   UNL     1      -6.548   1.670  26.142  0.00  0.00    +0.231 C 
ATOM     38  H   UNL     1      -8.070   1.430  24.731  0.00  0.00    +0.145 HD
ATOM     39  H   UNL     1      -6.676   2.243  24.119  0.00  0.00    +0.145 HD
ENDBRANCH  20  24
BRANCH  20  21
ATOM     21  C   UNL     1      -5.062   3.450  25.187  0.00  0.00    +0.067 C 
BRANCH  21  23
ATOM     23  C   UNL     1      -3.634   3.822  24.872  0.00  0.00    -0.045 A 
ATOM     26  C   UNL     1      -3.080   3.480  23.638  0.00  0.00    +0.007 A 
ATOM     27  C   UNL     1      -2.867   4.507  25.815  0.00  0.00    +0.007 A 
ATOM     30  C   UNL     1      -1.760   3.823  23.347  0.00  0.00    +0.046 A 
ATOM     31  C   UNL     1      -1.547   4.850  25.524  0.00  0.00    +0.046 A 
ATOM     32  C   UNL     1      -0.993   4.508  24.290  0.00  0.00    +0.120 A 
BRANCH  32   9
ATOM      9  O   UNL     1       0.294   4.843  24.006  0.00  0.00    -0.495 OA
ATOM     33  C   UNL     1       0.605   5.134  22.643  0.00  0.00    +0.277 C 
ENDBRANCH  32   9
ENDBRANCH  21  23
ENDBRANCH  20  21
ENDBRANCH  11  20
ENDBRANCH  17  19
BRANCH  13   3
ATOM      3  O   UNL     1      -0.606  -1.865  26.391  0.00  0.00    -0.387 OA
ATOM     35  H   UNL     1      -0.203  -0.981  26.358  0.00  0.00    +0.210 HD
ENDBRANCH  13   3
BRANCH  15   4
ATOM      4  O   UNL     1      -2.546  -3.418  23.707  0.00  0.00    -0.389 OA
ATOM     36  H   UNL     1      -3.361  -3.019  23.355  0.00  0.00    +0.210 HD
ENDBRANCH  15   4
BRANCH  14  10
ATOM     10  N   UNL     1       0.525  -0.330  24.413  0.00  0.00    -0.180 NA
ATOM     34  H   UNL     1       1.049  -0.684  25.223  0.00  0.00    +0.149 HD
BRANCH  10   1
ATOM      1  S   UNL     1       1.408   0.324  23.103  0.00  0.00    +0.065 S 
ATOM      6  O   UNL     1       1.407   1.772  23.194  0.00  0.00    -0.153 OA
ATOM      7  O   UNL     1       1.008  -0.355  21.887  0.00  0.00    -0.153 OA
BRANCH   1  22
ATOM      2  S   UNL     1       4.268   1.002  22.825  0.00  0.00    -0.077 S 
ATOM     22  C   UNL     1       3.119  -0.166  23.319  0.00  0.00    +0.142 A 
ATOM     25  C   UNL     1       3.718  -1.307  23.807  0.00  0.00    +0.036 A 
ATOM     28  C   UNL     1       5.139  -1.220  23.776  0.00  0.00    +0.010 A 
ATOM     29  C   UNL     1       5.572  -0.017  23.265  0.00  0.00    +0.047 A 
ENDBRANCH   1  22
ENDBRANCH  10   1
ENDBRANCH  14  10
TORSDOF 11
ENDMDL
MODEL 4
REMARK VINA RESULT:       1.8      2.673      5.962
REMARK  Name = 7134432
REMARK  12 active torsions:
REMARK  status: ('A' for Active; 'I' for Inactive)
REMARK    1  A    between atoms: S_1  and  N_10
REMARK    2  A    between atoms: S_1  and  C_22
REMARK    3  A    between atoms: O_3  and  C_13
REMARK    4  A    between atoms: O_4  and  C_15
REMARK    5  A    between atoms: O_9  and  C_32
REMARK    6  A    between atoms: O_9  and  C_33
REMARK    7  A    between atoms: N_10  and  C_14
REMARK    8  A    between atoms: N_11  and  C_20
REMARK    9  A    between atoms: C_17  and  C_19
REMARK   10  A    between atoms: C_20  and  C_21
REMARK   11  A    between atoms: C_20  and  C_24
REMARK   12  A    between atoms: C_21  and  C_23
REMARK                            x       y       z     vdW  Elec       q    Type
REMARK                         _______ _______ _______ _____ _____    ______ ____
ROOT
ATOM     13  C   UNL     1      -5.751   3.886  26.068  0.00  0.00    +0.166 C 
ATOM     14  C   UNL     1      -4.285   3.601  26.447  0.00  0.00    +0.131 C 
ATOM     15  C   UNL     1      -6.532   2.586  25.840  0.00  0.00    +0.149 C 
ATOM     16  C   UNL     1      -5.870   1.693  24.776  0.00  0.00    +0.074 C 
ATOM     17  C   UNL     1      -4.370   1.693  24.846  0.00  0.00    +0.015 C 
ATOM     18  C   UNL     1      -3.646   2.537  25.597  0.00  0.00    +0.004 C 
ENDROOT
BRANCH  17  19
ATOM      5  O   UNL     1      -3.359   0.900  22.880  0.00  0.00    -0.271 OA
ATOM     11  N   UNL     1      -3.337  -0.446  24.782  0.00  0.00    -0.300 N 
ATOM     19  C   UNL     1      -3.641   0.694  24.059  0.00  0.00    +0.241 C 
ATOM     37  H   UNL     1      -3.698  -0.544  25.726  0.00  0.00    +0.150 HD
BRANCH  11  20
ATOM     20  C   UNL     1      -2.624  -1.571  24.219  0.00  0.00    +0.163 C 
BRANCH  20  24
ATOM      8  O   UNL     1      -3.339  -3.655  25.245  0.00  0.00    -0.274 OA
ATOM     12  N   UNL     1      -4.574  -2.807  23.503  0.00  0.00    -0.328 N 
ATOM     24  C   UNL     1      -3.515  -2.793  24.387  0.00  0.00    +0.231 C 
ATOM     38  H   UNL     1      -5.254  -3.560  23.519  0.00  0.00    +0.145 HD
ATOM     39  H   UNL     1      -4.710  -2.086  22.802  0.00  0.00    +0.145 HD
ENDBRANCH  20  24
BRANCH  20  21
ATOM     21  C   UNL     1      -1.271  -1.800  24.901  0.00  0.00    +0.067 C 
BRANCH  21  23
ATOM     23  C   UNL     1      -0.114  -1.252  24.101  0.00  0.00    -0.045 A 
ATOM     26  C   UNL     1       1.196  -1.481  24.524  0.00  0.00    +0.007 A 
ATOM     27  C   UNL     1      -0.354  -0.516  22.941  0.00  0.00    +0.007 A 
ATOM     30  C   UNL     1       2.266  -0.974  23.786  0.00  0.00    +0.046 A 
ATOM     31  C   UNL     1       0.716  -0.008  22.203  0.00  0.00    +0.046 A 
ATOM     32  C   UNL     1       2.026  -0.238  22.626  0.00  0.00    +0.120 A 
BRANCH  32   9
ATOM      9  O   UNL     1       3.069   0.256  21.906  0.00  0.00    -0.495 OA
ATOM     33  C   UNL     1       4.143   0.846  22.639  0.00  0.00    +0.277 C 
ENDBRANCH  32   9
ENDBRANCH  21  23
ENDBRANCH  20  21
ENDBRANCH  11  20
ENDBRANCH  17  19
BRANCH  13   3
ATOM      3  O   UNL     1      -5.798   4.665  24.871  0.00  0.00    -0.387 OA
ATOM     35  H   UNL     1      -6.511   5.318  24.975  0.00  0.00    +0.210 HD
ENDBRANCH  13   3
BRANCH  15   4
ATOM      4  O   UNL     1      -6.665   1.870  27.067  0.00  0.00    -0.389 OA
ATOM     36  H   UNL     1      -6.013   1.149  27.058  0.00  0.00    +0.210 HD
ENDBRANCH  15   4
BRANCH  14  10
ATOM     10  N   UNL     1      -3.490   4.850  26.350  0.00  0.00    -0.180 NA
ATOM     34  H   UNL     1      -3.269   5.302  27.245  0.00  0.00    +0.149 HD
BRANCH  10   1
ATOM      1  S   UNL     1      -2.349   4.969  25.082  0.00  0.00    +0.065 S 
ATOM      6  O   UNL     1      -1.646   6.234  25.182  0.00  0.00    -0.153 OA
ATOM      7  O   UNL     1      -2.981   4.553  23.846  0.00  0.00    -0.153 OA
BRANCH   1  22
ATOM      2  S   UNL     1      -0.327   3.137  23.954  0.00  0.00    -0.077 S 
ATOM     22  C   UNL     1      -1.107   3.708  25.367  0.00  0.00    +0.142 A 
ATOM     25  C   UNL     1      -0.636   3.089  26.504  0.00  0.00    +0.036 A 
ATOM     28  C   UNL     1       0.378   2.133  26.211  0.00  0.00    +0.010 A 
ATOM     29  C   UNL     1       0.644   2.057  24.862  0.00  0.00    +0.047 A 
ENDBRANCH   1  22
ENDBRANCH  10   1
ENDBRANCH  14  10
TORSDOF 11
ENDMDL
MODEL 5
REMARK VINA RESULT:       2.0      2.783      6.405
REMARK  Name = 7134432
REMARK  12 active torsions:
REMARK  status: ('A' for Active; 'I' for Inactive)
REMARK    1  A    between atoms: S_1  and  N_10
REMARK    2  A    between atoms: S_1  and  C_22
REMARK    3  A    between atoms: O_3  and  C_13
REMARK    4  A    between atoms: O_4  and  C_15
REMARK    5  A    between atoms: O_9  and  C_32
REMARK    6  A    between atoms: O_9  and  C_33
REMARK    7  A    between atoms: N_10  and  C_14
REMARK    8  A    between atoms: N_11  and  C_20
REMARK    9  A    between atoms: C_17  and  C_19
REMARK   10  A    between atoms: C_20  and  C_21
REMARK   11  A    between atoms: C_20  and  C_24
REMARK   12  A    between atoms: C_21  and  C_23
REMARK                            x       y       z     vdW  Elec       q    Type
REMARK                         _______ _______ _______ _____ _____    ______ ____
ROOT
ATOM     13  C   UNL     1      -4.525  -2.233  24.182  0.00  0.00    +0.166 C 
ATOM     14  C   UNL     1      -4.314  -0.882  24.890  0.00  0.00    +0.131 C 
ATOM     15  C   UNL     1      -3.462  -3.256  24.603  0.00  0.00    +0.149 C 
ATOM     16  C   UNL     1      -2.033  -2.741  24.357  0.00  0.00    +0.074 C 
ATOM     17  C   UNL     1      -1.865  -1.280  24.660  0.00  0.00    +0.015 C 
ATOM     18  C   UNL     1      -2.878  -0.436  24.908  0.00  0.00    +0.004 C 
ENDROOT
BRANCH  17  19
ATOM      5  O   UNL     1       0.447  -1.438  25.045  0.00  0.00    -0.271 OA
ATOM     11  N   UNL     1      -0.443   0.597  24.341  0.00  0.00    -0.300 N 
ATOM     19  C   UNL     1      -0.504  -0.736  24.706  0.00  0.00    +0.241 C 
ATOM     37  H   UNL     1      -1.308   1.102  24.165  0.00  0.00    +0.150 HD
BRANCH  11  20
ATOM     20  C   UNL     1       0.789   1.353  24.313  0.00  0.00    +0.163 C 
BRANCH  20  24
ATOM      8  O   UNL     1       0.226   3.604  23.587  0.00  0.00    -0.274 OA
ATOM     12  N   UNL     1       0.279   3.155  25.840  0.00  0.00    -0.328 N 
ATOM     24  C   UNL     1       0.421   2.816  24.511  0.00  0.00    +0.231 C 
ATOM     38  H   UNL     1       0.020   4.098  26.111  0.00  0.00    +0.145 HD
ATOM     39  H   UNL     1       0.439   2.493  26.593  0.00  0.00    +0.145 HD
ENDBRANCH  20  24
BRANCH  20  21
ATOM     21  C   UNL     1       1.551   1.169  22.996  0.00  0.00    +0.067 C 
BRANCH  21  23
ATOM     23  C   UNL     1       2.929   0.585  23.195  0.00  0.00    -0.045 A 
ATOM     26  C   UNL     1       3.076  -0.770  23.492  0.00  0.00    +0.007 A 
ATOM     27  C   UNL     1       4.055   1.402  23.084  0.00  0.00    +0.007 A 
ATOM     30  C   UNL     1       4.349  -1.309  23.677  0.00  0.00    +0.046 A 
ATOM     31  C   UNL     1       5.328   0.862  23.270  0.00  0.00    +0.046 A 
ATOM     32  C   UNL     1       5.475  -0.493  23.566  0.00  0.00    +0.120 A 
BRANCH  32   9
ATOM      9  O   UNL     1       6.716  -1.019  23.747  0.00  0.00    -0.495 OA
ATOM     33  C   UNL     1       7.743  -0.582  22.857  0.00  0.00    +0.277 C 
ENDBRANCH  32   9
ENDBRANCH  21  23
ENDBRANCH  20  21
ENDBRANCH  11  20
ENDBRANCH  17  19
BRANCH  13   3
ATOM      3  O   UNL     1      -4.452  -2.054  22.766  0.00  0.00    -0.387 OA
ATOM     35  H   UNL     1      -4.649  -1.121  22.579  0.00  0.00    +0.210 HD
ENDBRANCH  13   3
BRANCH  15   4
ATOM      4  O   UNL     1      -3.628  -3.599  25.978  0.00  0.00    -0.389 OA
ATOM     36  H   UNL     1      -2.756  -3.536  26.404  0.00  0.00    +0.210 HD
ENDBRANCH  15   4
BRANCH  14  10
ATOM     10  N   UNL     1      -5.143   0.161  24.236  0.00  0.00    -0.180 NA
ATOM     34  H   UNL     1      -5.710  -0.161  23.443  0.00  0.00    +0.149 HD
BRANCH  10   1
ATOM      1  S   UNL     1      -5.768   1.412  25.221  0.00  0.00    +0.065 S 
ATOM      6  O   UNL     1      -5.902   0.932  26.584  0.00  0.00    -0.153 OA
ATOM      7  O   UNL     1      -6.878   2.038  24.530  0.00  0.00    -0.153 OA
BRANCH   1  22
ATOM      2  S   UNL     1      -3.777   3.058  23.791  0.00  0.00    -0.077 S 
ATOM     22  C   UNL     1      -4.528   2.704  25.288  0.00  0.00    +0.142 A 
ATOM     25  C   UNL     1      -4.039   3.489  26.310  0.00  0.00    +0.036 A 
ATOM     28  C   UNL     1      -3.037   4.393  25.857  0.00  0.00    +0.010 A 
ATOM     29  C   UNL     1      -2.796   4.264  24.507  0.00  0.00    +0.047 A 
ENDBRANCH   1  22
ENDBRANCH  10   1
ENDBRANCH  14  10
TORSDOF 11
ENDMDL
MODEL 6
REMARK VINA RESULT:       2.4      2.722      5.574
REMARK  Name = 7134432
REMARK  12 active torsions:
REMARK  status: ('A' for Active; 'I' for Inactive)
REMARK    1  A    between atoms: S_1  and  N_10
REMARK    2  A    between atoms: S_1  and  C_22
REMARK    3  A    between atoms: O_3  and  C_13
REMARK    4  A    between atoms: O_4  and  C_15
REMARK    5  A    between atoms: O_9  and  C_32
REMARK    6  A    between atoms: O_9  and  C_33
REMARK    7  A    between atoms: N_10  and  C_14
REMARK    8  A    between atoms: N_11  and  C_20
REMARK    9  A    between atoms: C_17  and  C_19
REMARK   10  A    between atoms: C_20  and  C_21
REMARK   11  A    between atoms: C_20  and  C_24
REMARK   12  A    between atoms: C_21  and  C_23
REMARK                            x       y       z     vdW  Elec       q    Type
REMARK                         _______ _______ _______ _____ _____    ______ ____
ROOT
ATOM     13  C   UNL     1      -4.369  -2.606  24.381  0.00  0.00    +0.166 C 
ATOM     14  C   UNL     1      -4.159  -1.166  24.888  0.00  0.00    +0.131 C 
ATOM     15  C   UNL     1      -3.187  -3.508  24.757  0.00  0.00    +0.149 C 
ATOM     16  C   UNL     1      -1.847  -2.952  24.245  0.00  0.00    +0.074 C 
ATOM     17  C   UNL     1      -1.744  -1.457  24.348  0.00  0.00    +0.015 C 
ATOM     18  C   UNL     1      -2.770  -0.644  24.643  0.00  0.00    +0.004 C 
ENDROOT
BRANCH  17  19
ATOM      5  O   UNL     1       0.557  -1.214  24.756  0.00  0.00    -0.271 OA
ATOM     11  N   UNL     1      -0.462   0.169  23.182  0.00  0.00    -0.300 N 
ATOM     19  C   UNL     1      -0.432  -0.838  24.130  0.00  0.00    +0.241 C 
ATOM     37  H   UNL     1      -1.355   0.455  22.791  0.00  0.00    +0.150 HD
BRANCH  11  20
ATOM     20  C   UNL     1       0.708   0.927  22.798  0.00  0.00    +0.163 C 
BRANCH  20  24
ATOM      8  O   UNL     1       1.633  -0.720  21.268  0.00  0.00    -0.274 OA
ATOM     12  N   UNL     1       2.856  -0.134  23.123  0.00  0.00    -0.328 N 
ATOM     24  C   UNL     1       1.746  -0.071  22.306  0.00  0.00    +0.231 C 
ATOM     38  H   UNL     1       3.631  -0.749  22.900  0.00  0.00    +0.145 HD
ATOM     39  H   UNL     1       2.938   0.411  23.975  0.00  0.00    +0.145 HD
ENDBRANCH  20  24
BRANCH  20  21
ATOM     21  C   UNL     1       1.271   1.752  23.961  0.00  0.00    +0.067 C 
BRANCH  21  23
ATOM     23  C   UNL     1       0.228   2.621  24.620  0.00  0.00    -0.045 A 
ATOM     26  C   UNL     1      -0.586   2.094  25.623  0.00  0.00    +0.007 A 
ATOM     27  C   UNL     1       0.077   3.951  24.225  0.00  0.00    +0.007 A 
ATOM     30  C   UNL     1      -1.551   2.897  26.231  0.00  0.00    +0.046 A 
ATOM     31  C   UNL     1      -0.888   4.754  24.833  0.00  0.00    +0.046 A 
ATOM     32  C   UNL     1      -1.702   4.226  25.837  0.00  0.00    +0.120 A 
BRANCH  32   9
ATOM      9  O   UNL     1      -2.643   5.009  26.430  0.00  0.00    -0.495 OA
ATOM     33  C   UNL     1      -3.651   4.348  27.194  0.00  0.00    +0.277 C 
ENDBRANCH  32   9
ENDBRANCH  21  23
ENDBRANCH  20  21
ENDBRANCH  11  20
ENDBRANCH  17  19
BRANCH  13   3
ATOM      3  O   UNL     1      -4.507  -2.602  22.958  0.00  0.00    -0.387 OA
ATOM     35  H   UNL     1      -4.980  -1.789  22.712  0.00  0.00    +0.210 HD
ENDBRANCH  13   3
BRANCH  15   4
ATOM      4  O   UNL     1      -3.134  -3.685  26.172  0.00  0.00    -0.389 OA
ATOM     36  H   UNL     1      -4.050  -3.721  26.498  0.00  0.00    +0.210 HD
ENDBRANCH  15   4
BRANCH  14  10
ATOM     10  N   UNL     1      -5.144  -0.260  24.246  0.00  0.00    -0.180 NA
ATOM     34  H   UNL     1      -5.925  -0.727  23.769  0.00  0.00    +0.149 HD
BRANCH  10   1
ATOM      1  S   UNL     1      -5.439   1.249  24.993  0.00  0.00    +0.065 S 
ATOM      6  O   UNL     1      -4.824   1.267  26.307  0.00  0.00    -0.153 OA
ATOM      7  O   UNL     1      -6.835   1.594  24.810  0.00  0.00    -0.153 OA
BRANCH   1  22
ATOM      2  S   UNL     1      -3.389   1.875  22.963  0.00  0.00    -0.077 S 
ATOM     22  C   UNL     1      -4.568   2.492  24.040  0.00  0.00    +0.142 A 
ATOM     25  C   UNL     1      -4.646   3.867  23.989  0.00  0.00    +0.036 A 
ATOM     28  C   UNL     1      -3.726   4.420  23.053  0.00  0.00    +0.010 A 
ATOM     29  C   UNL     1      -2.980   3.448  22.425  0.00  0.00    +0.047 A 
ENDBRANCH   1  22
ENDBRANCH  10   1
ENDBRANCH  14  10
TORSDOF 11
ENDMDL
MODEL 7
REMARK VINA RESULT:       2.5      2.787      6.085
REMARK  Name = 7134432
REMARK  12 active torsions:
REMARK  status: ('A' for Active; 'I' for Inactive)
REMARK    1  A    between atoms: S_1  and  N_10
REMARK    2  A    between atoms: S_1  and  C_22
REMARK    3  A    between atoms: O_3  and  C_13
REMARK    4  A    between atoms: O_4  and  C_15
REMARK    5  A    between atoms: O_9  and  C_32
REMARK    6  A    between atoms: O_9  and  C_33
REMARK    7  A    between atoms: N_10  and  C_14
REMARK    8  A    between atoms: N_11  and  C_20
REMARK    9  A    between atoms: C_17  and  C_19
REMARK   10  A    between atoms: C_20  and  C_21
REMARK   11  A    between atoms: C_20  and  C_24
REMARK   12  A    between atoms: C_21  and  C_23
REMARK                            x       y       z     vdW  Elec       q    Type
REMARK                         _______ _______ _______ _____ _____    ______ ____
ROOT
ATOM     13  C   UNL     1      -5.548   3.568  25.971  0.00  0.00    +0.166 C 
ATOM     14  C   UNL     1      -4.144   3.172  26.464  0.00  0.00    +0.131 C 
ATOM     15  C   UNL     1      -6.486   2.355  25.923  0.00  0.00    +0.149 C 
ATOM     16  C   UNL     1      -5.918   1.217  25.057  0.00  0.00    +0.074 C 
ATOM     17  C   UNL     1      -4.433   1.043  25.201  0.00  0.00    +0.015 C 
ATOM     18  C   UNL     1      -3.626   1.907  25.836  0.00  0.00    +0.004 C 
ENDROOT
BRANCH  17  19
ATOM      5  O   UNL     1      -4.468  -0.922  23.913  0.00  0.00    -0.271 OA
ATOM     11  N   UNL     1      -2.491  -0.309  24.984  0.00  0.00    -0.300 N 
ATOM     19  C   UNL     1      -3.819  -0.159  24.627  0.00  0.00    +0.241 C 
ATOM     37  H   UNL     1      -2.082   0.337  25.653  0.00  0.00    +0.150 HD
BRANCH  11  20
ATOM     20  C   UNL     1      -1.675  -1.418  24.543  0.00  0.00    +0.163 C 
BRANCH  20  24
ATOM      8  O   UNL     1       0.359  -2.397  25.443  0.00  0.00    -0.274 OA
ATOM     12  N   UNL     1      -0.560  -0.588  26.520  0.00  0.00    -0.328 N 
ATOM     24  C   UNL     1      -0.528  -1.552  25.534  0.00  0.00    +0.231 C 
ATOM     38  H   UNL     1       0.157  -0.554  27.237  0.00  0.00    +0.145 HD
ATOM     39  H   UNL     1      -1.297   0.107  26.581  0.00  0.00    +0.145 HD
ENDBRANCH  20  24
BRANCH  20  21
ATOM     21  C   UNL     1      -1.133  -1.211  23.124  0.00  0.00    +0.067 C 
BRANCH  21  23
ATOM     23  C   UNL     1       0.197  -0.497  23.106  0.00  0.00    -0.045 A 
ATOM     26  C   UNL     1       0.377   0.660  23.864  0.00  0.00    +0.007 A 
ATOM     27  C   UNL     1       1.245  -0.993  22.329  0.00  0.00    +0.007 A 
ATOM     30  C   UNL     1       1.605   1.321  23.847  0.00  0.00    +0.046 A 
ATOM     31  C   UNL     1       2.473  -0.331  22.311  0.00  0.00    +0.046 A 
ATOM     32  C   UNL     1       2.653   0.825  23.071  0.00  0.00    +0.120 A 
BRANCH  32   9
ATOM      9  O   UNL     1       3.851   1.470  23.053  0.00  0.00    -0.495 OA
ATOM     33  C   UNL     1       5.012   0.691  23.339  0.00  0.00    +0.277 C 
ENDBRANCH  32   9
ENDBRANCH  21  23
ENDBRANCH  20  21
ENDBRANCH  11  20
ENDBRANCH  17  19
BRANCH  13   3
ATOM      3  O   UNL     1      -5.459   4.130  24.659  0.00  0.00    -0.387 OA
ATOM     35  H   UNL     1      -4.679   3.743  24.228  0.00  0.00    +0.210 HD
ENDBRANCH  13   3
BRANCH  15   4
ATOM      4  O   UNL     1      -6.746   1.882  27.244  0.00  0.00    -0.389 OA
ATOM     36  H   UNL     1      -7.314   1.097  27.168  0.00  0.00    +0.210 HD
ENDBRANCH  15   4
BRANCH  14  10
ATOM     10  N   UNL     1      -3.189   4.277  26.200  0.00  0.00    -0.180 NA
ATOM     34  H   UNL     1      -3.152   5.008  26.921  0.00  0.00    +0.149 HD
BRANCH  10   1
ATOM      1  S   UNL     1      -1.750   3.899  25.357  0.00  0.00    +0.065 S 
ATOM      6  O   UNL     1      -1.065   2.814  26.034  0.00  0.00    -0.153 OA
ATOM      7  O   UNL     1      -1.066   5.134  25.028  0.00  0.00    -0.153 OA
BRANCH   1  22
ATOM      2  S   UNL     1      -3.568   4.020  23.034  0.00  0.00    -0.077 S 
ATOM     22  C   UNL     1      -2.228   3.241  23.760  0.00  0.00    +0.142 A 
ATOM     25  C   UNL     1      -1.736   2.220  22.976  0.00  0.00    +0.036 A 
ATOM     28  C   UNL     1      -2.469   2.077  21.763  0.00  0.00    +0.010 A 
ATOM     29  C   UNL     1      -3.494   2.992  21.667  0.00  0.00    +0.047 A 
ENDBRANCH   1  22
ENDBRANCH  10   1
ENDBRANCH  14  10
TORSDOF 11
ENDMDL
MODEL 8
REMARK VINA RESULT:       3.8      2.467      5.815
REMARK  Name = 7134432
REMARK  12 active torsions:
REMARK  status: ('A' for Active; 'I' for Inactive)
REMARK    1  A    between atoms: S_1  and  N_10
REMARK    2  A    between atoms: S_1  and  C_22
REMARK    3  A    between atoms: O_3  and  C_13
REMARK    4  A    between atoms: O_4  and  C_15
REMARK    5  A    between atoms: O_9  and  C_32
REMARK    6  A    between atoms: O_9  and  C_33
REMARK    7  A    between atoms: N_10  and  C_14
REMARK    8  A    between atoms: N_11  and  C_20
REMARK    9  A    between atoms: C_17  and  C_19
REMARK   10  A    between atoms: C_20  and  C_21
REMARK   11  A    between atoms: C_20  and  C_24
REMARK   12  A    between atoms: C_21  and  C_23
REMARK                            x       y       z     vdW  Elec       q    Type
REMARK                         _______ _______ _______ _____ _____    ______ ____
ROOT
ATOM     13  C   UNL     1      -3.616   4.313  25.412  0.00  0.00    +0.166 C 
ATOM     14  C   UNL     1      -2.808   3.309  26.256  0.00  0.00    +0.131 C 
ATOM     15  C   UNL     1      -4.980   3.736  25.013  0.00  0.00    +0.149 C 
ATOM     16  C   UNL     1      -4.847   2.397  24.266  0.00  0.00    +0.074 C 
ATOM     17  C   UNL     1      -3.763   1.514  24.814  0.00  0.00    +0.015 C 
ATOM     18  C   UNL     1      -2.847   1.907  25.713  0.00  0.00    +0.004 C 
ENDROOT
BRANCH  17  19
ATOM      5  O   UNL     1      -4.692  -0.420  23.858  0.00  0.00    -0.271 OA
ATOM     11  N   UNL     1      -2.468  -0.461  24.552  0.00  0.00    -0.300 N 
ATOM     19  C   UNL     1      -3.707   0.122  24.355  0.00  0.00    +0.241 C 
ATOM     37  H   UNL     1      -1.752   0.056  25.055  0.00  0.00    +0.150 HD
BRANCH  11  20
ATOM     20  C   UNL     1      -2.170  -1.826  24.183  0.00  0.00    +0.163 C 
BRANCH  20  24
ATOM      8  O   UNL     1      -3.399  -2.848  26.014  0.00  0.00    -0.274 OA
ATOM     12  N   UNL     1      -4.075  -3.279  23.861  0.00  0.00    -0.328 N 
ATOM     24  C   UNL     1      -3.248  -2.703  24.803  0.00  0.00    +0.231 C 
ATOM     38  H   UNL     1      -4.846  -3.876  24.142  0.00  0.00    +0.145 HD
ATOM     39  H   UNL     1      -3.942  -3.147  22.864  0.00  0.00    +0.145 HD
ENDBRANCH  20  24
BRANCH  20  21
ATOM     21  C   UNL     1      -0.783  -2.268  24.662  0.00  0.00    +0.067 C 
BRANCH  21  23
ATOM     23  C   UNL     1       0.332  -1.455  24.050  0.00  0.00    -0.045 A 
ATOM     26  C   UNL     1       1.660  -1.836  24.245  0.00  0.00    +0.007 A 
ATOM     27  C   UNL     1       0.036  -0.322  23.292  0.00  0.00    +0.007 A 
ATOM     30  C   UNL     1       2.691  -1.086  23.681  0.00  0.00    +0.046 A 
ATOM     31  C   UNL     1       1.067   0.430  22.728  0.00  0.00    +0.046 A 
ATOM     32  C   UNL     1       2.395   0.047  22.922  0.00  0.00    +0.120 A 
BRANCH  32   9
ATOM      9  O   UNL     1       3.400   0.780  22.373  0.00  0.00    -0.495 OA
ATOM     33  C   UNL     1       4.697   0.641  22.951  0.00  0.00    +0.277 C 
ENDBRANCH  32   9
ENDBRANCH  21  23
ENDBRANCH  20  21
ENDBRANCH  11  20
ENDBRANCH  17  19
BRANCH  13   3
ATOM      3  O   UNL     1      -2.892   4.640  24.224  0.00  0.00    -0.387 OA
ATOM     35  H   UNL     1      -3.336   4.198  23.480  0.00  0.00    +0.210 HD
ENDBRANCH  13   3
BRANCH  15   4
ATOM      4  O   UNL     1      -5.802   3.572  26.168  0.00  0.00    -0.389 OA
ATOM     36  H   UNL     1      -5.476   2.795  26.653  0.00  0.00    +0.210 HD
ENDBRANCH  15   4
BRANCH  14  10
ATOM     10  N   UNL     1      -1.397   3.758  26.354  0.00  0.00    -0.180 NA
ATOM     34  H   UNL     1      -1.223   4.518  27.023  0.00  0.00    +0.149 HD
BRANCH  10   1
ATOM      1  S   UNL     1      -0.173   2.587  26.124  0.00  0.00    +0.065 S 
ATOM      6  O   UNL     1       0.628   2.946  24.968  0.00  0.00    -0.153 OA
ATOM      7  O   UNL     1      -0.759   1.268  26.254  0.00  0.00    -0.153 OA
BRANCH   1  22
ATOM      2  S   UNL     1       0.265   2.186  29.016  0.00  0.00    -0.077 S 
ATOM     22  C   UNL     1       0.937   2.698  27.527  0.00  0.00    +0.142 A 
ATOM     25  C   UNL     1       2.243   3.116  27.666  0.00  0.00    +0.036 A 
ATOM     28  C   UNL     1       2.697   3.014  29.012  0.00  0.00    +0.010 A 
ATOM     29  C   UNL     1       1.722   2.523  29.851  0.00  0.00    +0.047 A 
ENDBRANCH   1  22
ENDBRANCH  10   1
ENDBRANCH  14  10
TORSDOF 11
ENDMDL
