MODEL 1
REMARK VINA RESULT:      -5.0      0.000      0.000
REMARK  Name = 28960420
REMARK  10 active torsions:
REMARK  status: ('A' for Active; 'I' for Inactive)
REMARK    1  A    between atoms: O_3  and  C_11
REMARK    2  A    between atoms: O_4  and  C_17
REMARK    3  A    between atoms: O_4  and  C_23
REMARK    4  A    between atoms: O_5  and  C_18
REMARK    5  A    between atoms: N_6  and  C_8
REMARK    6  A    between atoms: N_6  and  C_14
REMARK    7  A    between atoms: N_7  and  C_10
REMARK    8  A    between atoms: N_7  and  C_15
REMARK    9  A    between atoms: C_14  and  C_16
REMARK   10  A    between atoms: C_15  and  C_17
REMARK                            x       y       z     vdW  Elec       q    Type
REMARK                         _______ _______ _______ _____ _____    ______ ____
ROOT
ATOM      1  O   UNL     1      -1.849   3.826  23.396  0.00  0.00    -0.343 OA
ATOM      2  O   UNL     1      -0.338   4.691  24.928  0.00  0.00    -0.347 OA
ATOM      8  C   UNL     1      -2.602   2.634  25.359  0.00  0.00    +0.116 C 
ATOM      9  C   UNL     1      -2.556   3.995  24.630  0.00  0.00    +0.166 C 
ATOM     10  C   UNL     1      -0.220   2.340  24.378  0.00  0.00    +0.141 C 
ATOM     11  C   UNL     1      -1.199   2.000  25.525  0.00  0.00    +0.156 C 
ATOM     12  C   UNL     1      -0.489   3.760  23.844  0.00  0.00    +0.270 C 
ATOM     13  C   UNL     1      -1.680   5.034  25.308  0.00  0.00    +0.196 C 
ENDROOT
BRANCH  11   3
ATOM      3  O   UNL     1      -0.620   2.485  26.746  0.00  0.00    -0.388 OA
ATOM     26  H   UNL     1       0.088   1.867  26.999  0.00  0.00    +0.210 HD
ENDBRANCH  11   3
BRANCH   8   6
ATOM      6  N   UNL     1      -3.485   1.740  24.603  0.00  0.00    -0.305 NA
ATOM     24  H   UNL     1      -4.259   2.278  24.214  0.00  0.00    +0.123 HD
BRANCH   6  14
ATOM     14  C   UNL     1      -4.023   0.703  25.467  0.00  0.00    +0.120 C 
BRANCH  14  16
ATOM     16  C   UNL     1      -3.659  -0.675  24.982  0.00  0.00    +0.008 A 
ATOM     18  C   UNL     1      -2.477  -1.289  25.396  0.00  0.00    +0.121 A 
ATOM     19  C   UNL     1      -4.519  -1.338  24.106  0.00  0.00    +0.008 A 
ATOM     20  C   UNL     1      -2.155  -2.565  24.934  0.00  0.00    +0.046 A 
ATOM     21  C   UNL     1      -4.197  -2.614  23.643  0.00  0.00    +0.001 A 
ATOM     22  C   UNL     1      -3.015  -3.228  24.057  0.00  0.00    +0.004 A 
BRANCH  18   5
ATOM      5  O   UNL     1      -1.626  -0.655  26.249  0.00  0.00    -0.506 OA
ATOM     27  H   UNL     1      -1.375   0.204  25.867  0.00  0.00    +0.292 HD
ENDBRANCH  18   5
ENDBRANCH  14  16
ENDBRANCH   6  14
ENDBRANCH   8   6
BRANCH  10   7
ATOM      7  N   UNL     1      -0.337   1.367  23.290  0.00  0.00    -0.305 NA
ATOM     25  H   UNL     1       0.012   1.776  22.424  0.00  0.00    +0.123 HD
BRANCH   7  15
ATOM     15  C   UNL     1       0.433   0.170  23.587  0.00  0.00    +0.109 C 
BRANCH  15  17
ATOM     17  C   UNL     1       1.675   0.100  22.712  0.00  0.00    +0.174 C 
BRANCH  17   4
ATOM      4  O   UNL     1       2.617   1.057  23.179  0.00  0.00    -0.382 OA
ATOM     23  C   UNL     1       3.937   0.734  22.764  0.00  0.00    +0.194 C 
ENDBRANCH  17   4
ENDBRANCH  15  17
ENDBRANCH   7  15
ENDBRANCH  10   7
TORSDOF 9
ENDMDL
MODEL 2
REMARK VINA RESULT:      -4.9      2.104      6.263
REMARK  Name = 28960420
REMARK  10 active torsions:
REMARK  status: ('A' for Active; 'I' for Inactive)
REMARK    1  A    between atoms: O_3  and  C_11
REMARK    2  A    between atoms: O_4  and  C_17
REMARK    3  A    between atoms: O_4  and  C_23
REMARK    4  A    between atoms: O_5  and  C_18
REMARK    5  A    between atoms: N_6  and  C_8
REMARK    6  A    between atoms: N_6  and  C_14
REMARK    7  A    between atoms: N_7  and  C_10
REMARK    8  A    between atoms: N_7  and  C_15
REMARK    9  A    between atoms: C_14  and  C_16
REMARK   10  A    between atoms: C_15  and  C_17
REMARK                            x       y       z     vdW  Elec       q    Type
REMARK                         _______ _______ _______ _____ _____    ______ ____
ROOT
ATOM      1  O   UNL     1      -2.491  -1.254  23.298  0.00  0.00    -0.343 OA
ATOM      2  O   UNL     1      -4.082  -2.562  24.364  0.00  0.00    -0.347 OA
ATOM      8  C   UNL     1      -1.602  -1.146  25.542  0.00  0.00    +0.116 C 
ATOM      9  C   UNL     1      -1.802  -2.025  24.288  0.00  0.00    +0.166 C 
ATOM     10  C   UNL     1      -3.942  -0.214  24.922  0.00  0.00    +0.141 C 
ATOM     11  C   UNL     1      -2.926  -0.520  26.047  0.00  0.00    +0.156 C 
ATOM     12  C   UNL     1      -3.834  -1.264  23.800  0.00  0.00    +0.270 C 
ATOM     13  C   UNL     1      -2.785  -3.167  24.479  0.00  0.00    +0.196 C 
ENDROOT
BRANCH  11   3
ATOM      3  O   UNL     1      -3.549  -1.441  26.954  0.00  0.00    -0.388 OA
ATOM     26  H   UNL     1      -3.905  -2.177  26.425  0.00  0.00    +0.210 HD
ENDBRANCH  11   3
BRANCH   8   6
ATOM      6  N   UNL     1      -0.629  -0.098  25.216  0.00  0.00    -0.305 NA
ATOM     24  H   UNL     1       0.304  -0.508  25.164  0.00  0.00    +0.123 HD
BRANCH   6  14
ATOM     14  C   UNL     1      -0.631   0.936  26.236  0.00  0.00    +0.120 C 
BRANCH  14  16
ATOM     16  C   UNL     1      -0.740   2.313  25.636  0.00  0.00    +0.008 A 
ATOM     18  C   UNL     1       0.121   2.719  24.617  0.00  0.00    +0.121 A 
ATOM     19  C   UNL     1      -1.715   3.189  26.114  0.00  0.00    +0.008 A 
ATOM     20  C   UNL     1       0.008   3.999  24.075  0.00  0.00    +0.046 A 
ATOM     21  C   UNL     1      -1.829   4.470  25.573  0.00  0.00    +0.001 A 
ATOM     22  C   UNL     1      -0.968   4.875  24.553  0.00  0.00    +0.004 A 
BRANCH  18   5
ATOM      5  O   UNL     1       1.080   1.876  24.140  0.00  0.00    -0.506 OA
ATOM     27  H   UNL     1       0.650   1.123  23.699  0.00  0.00    +0.292 HD
ENDBRANCH  18   5
ENDBRANCH  14  16
ENDBRANCH   6  14
ENDBRANCH   8   6
BRANCH  10   7
ATOM      7  N   UNL     1      -3.722   1.126  24.376  0.00  0.00    -0.305 NA
ATOM     25  H   UNL     1      -3.383   1.055  23.417  0.00  0.00    +0.123 HD
BRANCH   7  15
ATOM     15  C   UNL     1      -4.958   1.892  24.380  0.00  0.00    +0.109 C 
BRANCH  15  17
ATOM     17  C   UNL     1      -5.729   1.660  25.669  0.00  0.00    +0.174 C 
BRANCH  17   4
ATOM      4  O   UNL     1      -5.771   2.877  26.402  0.00  0.00    -0.382 OA
ATOM     23  C   UNL     1      -5.492   3.996  25.571  0.00  0.00    +0.194 C 
ENDBRANCH  17   4
ENDBRANCH  15  17
ENDBRANCH   7  15
ENDBRANCH  10   7
TORSDOF 9
ENDMDL
MODEL 3
REMARK VINA RESULT:      -4.9      2.090      3.309
REMARK  Name = 28960420
REMARK  10 active torsions:
REMARK  status: ('A' for Active; 'I' for Inactive)
REMARK    1  A    between atoms: O_3  and  C_11
REMARK    2  A    between atoms: O_4  and  C_17
REMARK    3  A    between atoms: O_4  and  C_23
REMARK    4  A    between atoms: O_5  and  C_18
REMARK    5  A    between atoms: N_6  and  C_8
REMARK    6  A    between atoms: N_6  and  C_14
REMARK    7  A    between atoms: N_7  and  C_10
REMARK    8  A    between atoms: N_7  and  C_15
REMARK    9  A    between atoms: C_14  and  C_16
REMARK   10  A    between atoms: C_15  and  C_17
REMARK                            x       y       z     vdW  Elec       q    Type
REMARK                         _______ _______ _______ _____ _____    ______ ____
ROOT
ATOM      1  O   UNL     1      -0.159   2.988  23.916  0.00  0.00    -0.343 OA
ATOM      2  O   UNL     1       0.562   2.432  26.049  0.00  0.00    -0.347 OA
ATOM      8  C   UNL     1      -1.820   1.310  24.434  0.00  0.00    +0.116 C 
ATOM      9  C   UNL     1      -1.330   2.750  24.705  0.00  0.00    +0.166 C 
ATOM     10  C   UNL     1       0.713   0.770  24.301  0.00  0.00    +0.141 C 
ATOM     11  C   UNL     1      -0.705   0.255  24.639  0.00  0.00    +0.156 C 
ATOM     12  C   UNL     1       0.840   2.265  24.649  0.00  0.00    +0.270 C 
ATOM     13  C   UNL     1      -0.770   2.965  26.100  0.00  0.00    +0.196 C 
ENDROOT
BRANCH  11   3
ATOM      3  O   UNL     1      -0.703  -0.146  26.016  0.00  0.00    -0.388 OA
ATOM     26  H   UNL     1      -0.008  -0.820  26.123  0.00  0.00    +0.210 HD
ENDBRANCH  11   3
BRANCH   8   6
ATOM      6  N   UNL     1      -2.338   1.254  23.063  0.00  0.00    -0.305 NA
ATOM     24  H   UNL     1      -1.581   1.447  22.407  0.00  0.00    +0.123 HD
BRANCH   6  14
ATOM     14  C   UNL     1      -3.388   2.240  22.873  0.00  0.00    +0.120 C 
BRANCH  14  16
ATOM     16  C   UNL     1      -4.312   2.310  24.060  0.00  0.00    +0.008 A 
ATOM     18  C   UNL     1      -4.873   1.152  24.597  0.00  0.00    +0.121 A 
ATOM     19  C   UNL     1      -4.606   3.553  24.621  0.00  0.00    +0.008 A 
ATOM     20  C   UNL     1      -5.729   1.237  25.696  0.00  0.00    +0.046 A 
ATOM     21  C   UNL     1      -5.463   3.638  25.719  0.00  0.00    +0.001 A 
ATOM     22  C   UNL     1      -6.024   2.479  26.257  0.00  0.00    +0.004 A 
BRANCH  18   5
ATOM      5  O   UNL     1      -4.596  -0.069  24.060  0.00  0.00    -0.506 OA
ATOM     27  H   UNL     1      -4.164   0.055  23.197  0.00  0.00    +0.292 HD
ENDBRANCH  18   5
ENDBRANCH  14  16
ENDBRANCH   6  14
ENDBRANCH   8   6
BRANCH  10   7
ATOM      7  N   UNL     1       1.017   0.560  22.884  0.00  0.00    -0.305 NA
ATOM     25  H   UNL     1       1.142   1.460  22.422  0.00  0.00    +0.123 HD
BRANCH   7  15
ATOM     15  C   UNL     1       2.236  -0.219  22.730  0.00  0.00    +0.109 C 
BRANCH  15  17
ATOM     17  C   UNL     1       3.404   0.681  22.358  0.00  0.00    +0.174 C 
BRANCH  17   4
ATOM      4  O   UNL     1       4.220   0.869  23.507  0.00  0.00    -0.382 OA
ATOM     23  C   UNL     1       5.378   0.046  23.465  0.00  0.00    +0.194 C 
ENDBRANCH  17   4
ENDBRANCH  15  17
ENDBRANCH   7  15
ENDBRANCH  10   7
TORSDOF 9
ENDMDL
MODEL 4
REMARK VINA RESULT:      -4.4      1.847      4.781
REMARK  Name = 28960420
REMARK  10 active torsions:
REMARK  status: ('A' for Active; 'I' for Inactive)
REMARK    1  A    between atoms: O_3  and  C_11
REMARK    2  A    between atoms: O_4  and  C_17
REMARK    3  A    between atoms: O_4  and  C_23
REMARK    4  A    between atoms: O_5  and  C_18
REMARK    5  A    between atoms: N_6  and  C_8
REMARK    6  A    between atoms: N_6  and  C_14
REMARK    7  A    between atoms: N_7  and  C_10
REMARK    8  A    between atoms: N_7  and  C_15
REMARK    9  A    between atoms: C_14  and  C_16
REMARK   10  A    between atoms: C_15  and  C_17
REMARK                            x       y       z     vdW  Elec       q    Type
REMARK                         _______ _______ _______ _____ _____    ______ ____
ROOT
ATOM      1  O   UNL     1      -0.636  -1.441  25.836  0.00  0.00    -0.343 OA
ATOM      2  O   UNL     1      -2.365  -1.853  24.347  0.00  0.00    -0.347 OA
ATOM      8  C   UNL     1      -1.284   0.845  25.392  0.00  0.00    +0.116 C 
ATOM      9  C   UNL     1      -1.658  -0.474  26.104  0.00  0.00    +0.166 C 
ATOM     10  C   UNL     1      -0.381  -0.732  23.542  0.00  0.00    +0.141 C 
ATOM     11  C   UNL     1      -0.994   0.645  23.884  0.00  0.00    +0.156 C 
ATOM     12  C   UNL     1      -0.936  -1.817  24.485  0.00  0.00    +0.270 C 
ATOM     13  C   UNL     1      -2.865  -1.180  25.512  0.00  0.00    +0.196 C 
ENDROOT
BRANCH  11   3
ATOM      3  O   UNL     1      -2.229   0.760  23.163  0.00  0.00    -0.388 OA
ATOM     26  H   UNL     1      -2.735   1.490  23.562  0.00  0.00    +0.210 HD
ENDBRANCH  11   3
BRANCH   8   6
ATOM      6  N   UNL     1      -0.115   1.415  26.071  0.00  0.00    -0.305 NA
ATOM     24  H   UNL     1       0.124   0.837  26.876  0.00  0.00    +0.123 HD
BRANCH   6  14
ATOM     14  C   UNL     1      -0.400   2.764  26.530  0.00  0.00    +0.120 C 
BRANCH  14  16
ATOM     16  C   UNL     1      -1.618   3.340  25.857  0.00  0.00    +0.008 A 
ATOM     18  C   UNL     1      -1.526   3.923  24.594  0.00  0.00    +0.121 A 
ATOM     19  C   UNL     1      -2.848   3.287  26.513  0.00  0.00    +0.008 A 
ATOM     20  C   UNL     1      -2.664   4.454  23.986  0.00  0.00    +0.046 A 
ATOM     21  C   UNL     1      -3.986   3.818  25.906  0.00  0.00    +0.001 A 
ATOM     22  C   UNL     1      -3.894   4.401  24.642  0.00  0.00    +0.004 A 
BRANCH  18   5
ATOM      5  O   UNL     1      -0.332   3.984  23.940  0.00  0.00    -0.506 OA
ATOM     27  H   UNL     1       0.219   4.673  24.350  0.00  0.00    +0.292 HD
ENDBRANCH  18   5
ENDBRANCH  14  16
ENDBRANCH   6  14
ENDBRANCH   8   6
BRANCH  10   7
ATOM      7  N   UNL     1       1.080  -0.688  23.637  0.00  0.00    -0.305 NA
ATOM     25  H   UNL     1       1.476  -1.538  23.237  0.00  0.00    +0.123 HD
BRANCH   7  15
ATOM     15  C   UNL     1       1.607   0.459  22.916  0.00  0.00    +0.109 C 
BRANCH  15  17
ATOM     17  C   UNL     1       3.010   0.174  22.405  0.00  0.00    +0.174 C 
BRANCH  17   4
ATOM      4  O   UNL     1       3.924   1.031  23.076  0.00  0.00    -0.382 OA
ATOM     23  C   UNL     1       5.119   0.347  23.426  0.00  0.00    +0.194 C 
ENDBRANCH  17   4
ENDBRANCH  15  17
ENDBRANCH   7  15
ENDBRANCH  10   7
TORSDOF 9
ENDMDL
MODEL 5
REMARK VINA RESULT:      -4.3      1.894      4.263
REMARK  Name = 28960420
REMARK  10 active torsions:
REMARK  status: ('A' for Active; 'I' for Inactive)
REMARK    1  A    between atoms: O_3  and  C_11
REMARK    2  A    between atoms: O_4  and  C_17
REMARK    3  A    between atoms: O_4  and  C_23
REMARK    4  A    between atoms: O_5  and  C_18
REMARK    5  A    between atoms: N_6  and  C_8
REMARK    6  A    between atoms: N_6  and  C_14
REMARK    7  A    between atoms: N_7  and  C_10
REMARK    8  A    between atoms: N_7  and  C_15
REMARK    9  A    between atoms: C_14  and  C_16
REMARK   10  A    between atoms: C_15  and  C_17
REMARK                            x       y       z     vdW  Elec       q    Type
REMARK                         _______ _______ _______ _____ _____    ______ ____
ROOT
ATOM      1  O   UNL     1      -1.397   3.392  26.246  0.00  0.00    -0.343 OA
ATOM      2  O   UNL     1      -2.029   4.860  24.565  0.00  0.00    -0.347 OA
ATOM      8  C   UNL     1      -0.444   2.216  24.362  0.00  0.00    +0.116 C 
ATOM      9  C   UNL     1      -0.321   3.436  25.303  0.00  0.00    +0.166 C 
ATOM     10  C   UNL     1      -2.992   2.643  24.596  0.00  0.00    +0.141 C 
ATOM     11  C   UNL     1      -1.843   2.109  23.708  0.00  0.00    +0.156 C 
ATOM     12  C   UNL     1      -2.505   3.831  25.448  0.00  0.00    +0.270 C 
ATOM     13  C   UNL     1      -0.598   4.770  24.632  0.00  0.00    +0.196 C 
ENDROOT
BRANCH  11   3
ATOM      3  O   UNL     1      -1.841   2.877  22.496  0.00  0.00    -0.388 OA
ATOM     26  H   UNL     1      -2.644   2.641  21.999  0.00  0.00    +0.210 HD
ENDBRANCH  11   3
BRANCH   8   6
ATOM      6  N   UNL     1      -0.144   1.008  25.138  0.00  0.00    -0.305 NA
ATOM     24  H   UNL     1       0.809   1.066  25.498  0.00  0.00    +0.123 HD
BRANCH   6  14
ATOM     14  C   UNL     1      -0.259  -0.175  24.304  0.00  0.00    +0.120 C 
BRANCH  14  16
ATOM     16  C   UNL     1      -1.447  -1.017  24.686  0.00  0.00    +0.008 A 
ATOM     18  C   UNL     1      -1.778  -1.217  26.026  0.00  0.00    +0.121 A 
ATOM     19  C   UNL     1      -2.219  -1.603  23.682  0.00  0.00    +0.008 A 
ATOM     20  C   UNL     1      -2.881  -2.002  26.363  0.00  0.00    +0.046 A 
ATOM     21  C   UNL     1      -3.322  -2.388  24.019  0.00  0.00    +0.001 A 
ATOM     22  C   UNL     1      -3.653  -2.588  25.359  0.00  0.00    +0.004 A 
BRANCH  18   5
ATOM      5  O   UNL     1      -1.034  -0.654  27.019  0.00  0.00    -0.506 OA
ATOM     27  H   UNL     1      -0.374  -1.300  27.325  0.00  0.00    +0.292 HD
ENDBRANCH  18   5
ENDBRANCH  14  16
ENDBRANCH   6  14
ENDBRANCH   8   6
BRANCH  10   7
ATOM      7  N   UNL     1      -3.510   1.585  25.464  0.00  0.00    -0.305 NA
ATOM     25  H   UNL     1      -3.764   1.978  26.370  0.00  0.00    +0.123 HD
BRANCH   7  15
ATOM     15  C   UNL     1      -4.687   0.967  24.875  0.00  0.00    +0.109 C 
BRANCH  15  17
ATOM     17  C   UNL     1      -5.902   1.868  25.033  0.00  0.00    +0.174 C 
BRANCH  17   4
ATOM      4  O   UNL     1      -5.676   2.754  26.121  0.00  0.00    -0.382 OA
ATOM     23  C   UNL     1      -5.975   4.098  25.770  0.00  0.00    +0.194 C 
ENDBRANCH  17   4
ENDBRANCH  15  17
ENDBRANCH   7  15
ENDBRANCH  10   7
TORSDOF 9
ENDMDL
MODEL 6
REMARK VINA RESULT:      -4.3      1.052      1.194
REMARK  Name = 28960420
REMARK  10 active torsions:
REMARK  status: ('A' for Active; 'I' for Inactive)
REMARK    1  A    between atoms: O_3  and  C_11
REMARK    2  A    between atoms: O_4  and  C_17
REMARK    3  A    between atoms: O_4  and  C_23
REMARK    4  A    between atoms: O_5  and  C_18
REMARK    5  A    between atoms: N_6  and  C_8
REMARK    6  A    between atoms: N_6  and  C_14
REMARK    7  A    between atoms: N_7  and  C_10
REMARK    8  A    between atoms: N_7  and  C_15
REMARK    9  A    between atoms: C_14  and  C_16
REMARK   10  A    between atoms: C_15  and  C_17
REMARK                            x       y       z     vdW  Elec       q    Type
REMARK                         _______ _______ _______ _____ _____    ______ ____
ROOT
ATOM      1  O   UNL     1      -1.213   3.375  23.569  0.00  0.00    -0.343 OA
ATOM      2  O   UNL     1      -0.866   5.092  25.088  0.00  0.00    -0.347 OA
ATOM      8  C   UNL     1      -3.195   3.070  24.917  0.00  0.00    +0.116 C 
ATOM      9  C   UNL     1      -2.495   3.946  23.854  0.00  0.00    +0.166 C 
ATOM     10  C   UNL     1      -0.801   2.809  25.879  0.00  0.00    +0.141 C 
ATOM     11  C   UNL     1      -2.319   2.846  26.174  0.00  0.00    +0.156 C 
ATOM     12  C   UNL     1      -0.455   3.765  24.722  0.00  0.00    +0.270 C 
ATOM     13  C   UNL     1      -2.079   5.318  24.353  0.00  0.00    +0.196 C 
ENDROOT
BRANCH  11   3
ATOM      3  O   UNL     1      -2.555   3.921  27.094  0.00  0.00    -0.388 OA
ATOM     26  H   UNL     1      -2.621   4.741  26.574  0.00  0.00    +0.210 HD
ENDBRANCH  11   3
BRANCH   8   6
ATOM      6  N   UNL     1      -3.545   1.788  24.296  0.00  0.00    -0.305 NA
ATOM     24  H   UNL     1      -4.274   1.938  23.599  0.00  0.00    +0.123 HD
BRANCH   6  14
ATOM     14  C   UNL     1      -4.036   0.855  25.295  0.00  0.00    +0.120 C 
BRANCH  14  16
ATOM     16  C   UNL     1      -3.762  -0.575  24.908  0.00  0.00    +0.008 A 
ATOM     18  C   UNL     1      -2.712  -1.283  25.491  0.00  0.00    +0.121 A 
ATOM     19  C   UNL     1      -4.572  -1.189  23.953  0.00  0.00    +0.008 A 
ATOM     20  C   UNL     1      -2.471  -2.606  25.119  0.00  0.00    +0.046 A 
ATOM     21  C   UNL     1      -4.332  -2.512  23.581  0.00  0.00    +0.001 A 
ATOM     22  C   UNL     1      -3.281  -3.220  24.164  0.00  0.00    +0.004 A 
BRANCH  18   5
ATOM      5  O   UNL     1      -1.910  -0.697  26.424  0.00  0.00    -0.506 OA
ATOM     27  H   UNL     1      -1.004  -1.037  26.322  0.00  0.00    +0.292 HD
ENDBRANCH  18   5
ENDBRANCH  14  16
ENDBRANCH   6  14
ENDBRANCH   8   6
BRANCH  10   7
ATOM      7  N   UNL     1      -0.369   1.450  25.550  0.00  0.00    -0.305 NA
ATOM     25  H   UNL     1      -1.179   0.833  25.506  0.00  0.00    +0.123 HD
BRANCH   7  15
ATOM     15  C   UNL     1       0.311   1.423  24.265  0.00  0.00    +0.109 C 
BRANCH  15  17
ATOM     17  C   UNL     1       0.316   0.016  23.690  0.00  0.00    +0.174 C 
BRANCH  17   4
ATOM      4  O   UNL     1       1.048   0.024  22.471  0.00  0.00    -0.382 OA
ATOM     23  C   UNL     1       2.448   0.100  22.704  0.00  0.00    +0.194 C 
ENDBRANCH  17   4
ENDBRANCH  15  17
ENDBRANCH   7  15
ENDBRANCH  10   7
TORSDOF 9
ENDMDL
MODEL 7
REMARK VINA RESULT:      -4.2      1.971      4.922
REMARK  Name = 28960420
REMARK  10 active torsions:
REMARK  status: ('A' for Active; 'I' for Inactive)
REMARK    1  A    between atoms: O_3  and  C_11
REMARK    2  A    between atoms: O_4  and  C_17
REMARK    3  A    between atoms: O_4  and  C_23
REMARK    4  A    between atoms: O_5  and  C_18
REMARK    5  A    between atoms: N_6  and  C_8
REMARK    6  A    between atoms: N_6  and  C_14
REMARK    7  A    between atoms: N_7  and  C_10
REMARK    8  A    between atoms: N_7  and  C_15
REMARK    9  A    between atoms: C_14  and  C_16
REMARK   10  A    between atoms: C_15  and  C_17
REMARK                            x       y       z     vdW  Elec       q    Type
REMARK                         _______ _______ _______ _____ _____    ______ ____
ROOT
ATOM      1  O   UNL     1      -2.562  -0.541  25.441  0.00  0.00    -0.343 OA
ATOM      2  O   UNL     1      -0.961  -2.200  25.190  0.00  0.00    -0.347 OA
ATOM      8  C   UNL     1      -1.480   0.298  23.449  0.00  0.00    +0.116 C 
ATOM      9  C   UNL     1      -2.422  -0.778  24.036  0.00  0.00    +0.166 C 
ATOM     10  C   UNL     1      -0.236   0.046  25.710  0.00  0.00    +0.141 C 
ATOM     11  C   UNL     1      -0.132   0.384  24.205  0.00  0.00    +0.156 C 
ATOM     12  C   UNL     1      -1.313  -1.030  25.947  0.00  0.00    +0.270 C 
ATOM     13  C   UNL     1      -1.834  -2.178  24.050  0.00  0.00    +0.196 C 
ENDROOT
BRANCH  11   3
ATOM      3  O   UNL     1       0.783  -0.550  23.615  0.00  0.00    -0.388 OA
ATOM     26  H   UNL     1       0.310  -1.012  22.900  0.00  0.00    +0.210 HD
ENDBRANCH  11   3
BRANCH   8   6
ATOM      6  N   UNL     1      -2.178   1.587  23.490  0.00  0.00    -0.305 NA
ATOM     24  H   UNL     1      -2.105   1.981  24.428  0.00  0.00    +0.123 HD
BRANCH   6  14
ATOM     14  C   UNL     1      -3.582   1.419  23.160  0.00  0.00    +0.120 C 
BRANCH  14  16
ATOM     16  C   UNL     1      -4.481   1.966  24.237  0.00  0.00    +0.008 A 
ATOM     18  C   UNL     1      -4.471   3.324  24.554  0.00  0.00    +0.121 A 
ATOM     19  C   UNL     1      -5.328   1.096  24.924  0.00  0.00    +0.008 A 
ATOM     20  C   UNL     1      -5.308   3.813  25.557  0.00  0.00    +0.046 A 
ATOM     21  C   UNL     1      -6.165   1.584  25.927  0.00  0.00    +0.001 A 
ATOM     22  C   UNL     1      -6.155   2.943  26.244  0.00  0.00    +0.004 A 
BRANCH  18   5
ATOM      5  O   UNL     1      -3.648   4.187  23.894  0.00  0.00    -0.506 OA
ATOM     27  H   UNL     1      -3.335   4.865  24.517  0.00  0.00    +0.292 HD
ENDBRANCH  18   5
ENDBRANCH  14  16
ENDBRANCH   6  14
ENDBRANCH   8   6
BRANCH  10   7
ATOM      7  N   UNL     1      -0.549   1.245  26.490  0.00  0.00    -0.305 NA
ATOM     25  H   UNL     1      -0.225   1.124  27.449  0.00  0.00    +0.123 HD
BRANCH   7  15
ATOM     15  C   UNL     1       0.101   2.413  25.919  0.00  0.00    +0.109 C 
BRANCH  15  17
ATOM     17  C   UNL     1      -0.854   3.596  25.888  0.00  0.00    +0.174 C 
BRANCH  17   4
ATOM      4  O   UNL     1      -0.815   4.181  24.593  0.00  0.00    -0.382 OA
ATOM     23  C   UNL     1      -0.810   5.600  24.661  0.00  0.00    +0.194 C 
ENDBRANCH  17   4
ENDBRANCH  15  17
ENDBRANCH   7  15
ENDBRANCH  10   7
TORSDOF 9
ENDMDL
MODEL 8
REMARK VINA RESULT:      -4.2      1.859      4.750
REMARK  Name = 28960420
REMARK  10 active torsions:
REMARK  status: ('A' for Active; 'I' for Inactive)
REMARK    1  A    between atoms: O_3  and  C_11
REMARK    2  A    between atoms: O_4  and  C_17
REMARK    3  A    between atoms: O_4  and  C_23
REMARK    4  A    between atoms: O_5  and  C_18
REMARK    5  A    between atoms: N_6  and  C_8
REMARK    6  A    between atoms: N_6  and  C_14
REMARK    7  A    between atoms: N_7  and  C_10
REMARK    8  A    between atoms: N_7  and  C_15
REMARK    9  A    between atoms: C_14  and  C_16
REMARK   10  A    between atoms: C_15  and  C_17
REMARK                            x       y       z     vdW  Elec       q    Type
REMARK                         _______ _______ _______ _____ _____    ______ ____
ROOT
ATOM      1  O   UNL     1      -2.120   0.554  25.843  0.00  0.00    -0.343 OA
ATOM      2  O   UNL     1      -2.084  -1.655  26.549  0.00  0.00    -0.347 OA
ATOM      8  C   UNL     1      -2.921  -0.487  23.815  0.00  0.00    +0.116 C 
ATOM      9  C   UNL     1      -3.263  -0.088  25.267  0.00  0.00    +0.166 C 
ATOM     10  C   UNL     1      -0.569  -0.970  24.794  0.00  0.00    +0.141 C 
ATOM     11  C   UNL     1      -1.622  -1.324  23.718  0.00  0.00    +0.156 C 
ATOM     12  C   UNL     1      -1.260  -0.562  26.109  0.00  0.00    +0.270 C 
ATOM     13  C   UNL     1      -3.424  -1.264  26.215  0.00  0.00    +0.196 C 
ENDROOT
BRANCH  11   3
ATOM      3  O   UNL     1      -1.957  -2.709  23.881  0.00  0.00    -0.388 OA
ATOM     26  H   UNL     1      -2.188  -2.847  24.816  0.00  0.00    +0.210 HD
ENDBRANCH  11   3
BRANCH   8   6
ATOM      6  N   UNL     1      -2.805   0.739  23.018  0.00  0.00    -0.305 NA
ATOM     24  H   UNL     1      -1.834   1.052  23.018  0.00  0.00    +0.123 HD
BRANCH   6  14
ATOM     14  C   UNL     1      -3.637   1.791  23.577  0.00  0.00    +0.120 C 
BRANCH  14  16
ATOM     16  C   UNL     1      -2.812   2.902  24.169  0.00  0.00    +0.008 A 
ATOM     18  C   UNL     1      -3.381   3.822  25.050  0.00  0.00    +0.121 A 
ATOM     19  C   UNL     1      -1.464   3.007  23.826  0.00  0.00    +0.008 A 
ATOM     20  C   UNL     1      -2.602   4.847  25.587  0.00  0.00    +0.046 A 
ATOM     21  C   UNL     1      -0.685   4.032  24.364  0.00  0.00    +0.001 A 
ATOM     22  C   UNL     1      -1.254   4.952  25.244  0.00  0.00    +0.004 A 
BRANCH  18   5
ATOM      5  O   UNL     1      -4.696   3.734  25.394  0.00  0.00    -0.506 OA
ATOM     27  H   UNL     1      -4.764   3.396  26.304  0.00  0.00    +0.292 HD
ENDBRANCH  18   5
ENDBRANCH  14  16
ENDBRANCH   6  14
ENDBRANCH   8   6
BRANCH  10   7
ATOM      7  N   UNL     1       0.302   0.112  24.332  0.00  0.00    -0.305 NA
ATOM     25  H   UNL     1       1.177   0.096  24.854  0.00  0.00    +0.123 HD
BRANCH   7  15
ATOM     15  C   UNL     1       0.598  -0.036  22.916  0.00  0.00    +0.109 C 
BRANCH  15  17
ATOM     17  C   UNL     1       2.087  -0.254  22.699  0.00  0.00    +0.174 C 
BRANCH  17   4
ATOM      4  O   UNL     1       2.777   0.944  23.029  0.00  0.00    -0.382 OA
ATOM     23  C   UNL     1       4.171   0.830  22.772  0.00  0.00    +0.194 C 
ENDBRANCH  17   4
ENDBRANCH  15  17
ENDBRANCH   7  15
ENDBRANCH  10   7
TORSDOF 9
ENDMDL
MODEL 9
REMARK VINA RESULT:      -4.1      2.077      6.264
REMARK  Name = 28960420
REMARK  10 active torsions:
REMARK  status: ('A' for Active; 'I' for Inactive)
REMARK    1  A    between atoms: O_3  and  C_11
REMARK    2  A    between atoms: O_4  and  C_17
REMARK    3  A    between atoms: O_4  and  C_23
REMARK    4  A    between atoms: O_5  and  C_18
REMARK    5  A    between atoms: N_6  and  C_8
REMARK    6  A    between atoms: N_6  and  C_14
REMARK    7  A    between atoms: N_7  and  C_10
REMARK    8  A    between atoms: N_7  and  C_15
REMARK    9  A    between atoms: C_14  and  C_16
REMARK   10  A    between atoms: C_15  and  C_17
REMARK                            x       y       z     vdW  Elec       q    Type
REMARK                         _______ _______ _______ _____ _____    ______ ____
ROOT
ATOM      1  O   UNL     1      -1.659  -0.297  23.707  0.00  0.00    -0.343 OA
ATOM      2  O   UNL     1      -1.971  -0.299  26.005  0.00  0.00    -0.347 OA
ATOM      8  C   UNL     1       0.482   0.613  24.364  0.00  0.00    +0.116 C 
ATOM      9  C   UNL     1      -0.404  -0.652  24.299  0.00  0.00    +0.166 C 
ATOM     10  C   UNL     1      -1.759   1.820  24.861  0.00  0.00    +0.141 C 
ATOM     11  C   UNL     1      -0.226   1.799  25.063  0.00  0.00    +0.156 C 
ATOM     12  C   UNL     1      -2.311   0.384  24.787  0.00  0.00    +0.270 C 
ATOM     13  C   UNL     1      -0.872  -1.153  25.654  0.00  0.00    +0.196 C 
ENDROOT
BRANCH  11   3
ATOM      3  O   UNL     1       0.024   1.713  26.473  0.00  0.00    -0.388 OA
ATOM     26  H   UNL     1      -0.242   2.561  26.870  0.00  0.00    +0.210 HD
ENDBRANCH  11   3
BRANCH   8   6
ATOM      6  N   UNL     1       0.863   0.974  22.994  0.00  0.00    -0.305 NA
ATOM     24  H   UNL     1       0.022   1.150  22.444  0.00  0.00    +0.123 HD
BRANCH   6  14
ATOM     14  C   UNL     1       1.614  -0.102  22.372  0.00  0.00    +0.120 C 
BRANCH  14  16
ATOM     16  C   UNL     1       3.003  -0.218  22.942  0.00  0.00    +0.008 A 
ATOM     18  C   UNL     1       3.863   0.880  22.955  0.00  0.00    +0.121 A 
ATOM     19  C   UNL     1       3.428  -1.443  23.459  0.00  0.00    +0.008 A 
ATOM     20  C   UNL     1       5.148   0.754  23.484  0.00  0.00    +0.046 A 
ATOM     21  C   UNL     1       4.712  -1.569  23.988  0.00  0.00    +0.001 A 
ATOM     22  C   UNL     1       5.572  -0.471  24.001  0.00  0.00    +0.004 A 
BRANCH  18   5
ATOM      5  O   UNL     1       3.465   2.082  22.452  0.00  0.00    -0.506 OA
ATOM     27  H   UNL     1       4.104   2.765  22.720  0.00  0.00    +0.292 HD
ENDBRANCH  18   5
ENDBRANCH  14  16
ENDBRANCH   6  14
ENDBRANCH   8   6
BRANCH  10   7
ATOM      7  N   UNL     1      -2.112   2.555  23.646  0.00  0.00    -0.305 NA
ATOM     25  H   UNL     1      -2.409   1.900  22.923  0.00  0.00    +0.123 HD
BRANCH   7  15
ATOM     15  C   UNL     1      -3.195   3.489  23.906  0.00  0.00    +0.109 C 
BRANCH  15  17
ATOM     17  C   UNL     1      -4.512   2.750  24.081  0.00  0.00    +0.174 C 
BRANCH  17   4
ATOM      4  O   UNL     1      -5.101   3.150  25.311  0.00  0.00    -0.382 OA
ATOM     23  C   UNL     1      -5.870   2.102  25.886  0.00  0.00    +0.194 C 
ENDBRANCH  17   4
ENDBRANCH  15  17
ENDBRANCH   7  15
ENDBRANCH  10   7
TORSDOF 9
ENDMDL
MODEL 10
REMARK VINA RESULT:      -4.0      1.943      4.220
REMARK  Name = 28960420
REMARK  10 active torsions:
REMARK  status: ('A' for Active; 'I' for Inactive)
REMARK    1  A    between atoms: O_3  and  C_11
REMARK    2  A    between atoms: O_4  and  C_17
REMARK    3  A    between atoms: O_4  and  C_23
REMARK    4  A    between atoms: O_5  and  C_18
REMARK    5  A    between atoms: N_6  and  C_8
REMARK    6  A    between atoms: N_6  and  C_14
REMARK    7  A    between atoms: N_7  and  C_10
REMARK    8  A    between atoms: N_7  and  C_15
REMARK    9  A    between atoms: C_14  and  C_16
REMARK   10  A    between atoms: C_15  and  C_17
REMARK                            x       y       z     vdW  Elec       q    Type
REMARK                         _______ _______ _______ _____ _____    ______ ____
ROOT
ATOM      1  O   UNL     1      -0.735   3.058  26.055  0.00  0.00    -0.343 OA
ATOM      2  O   UNL     1       0.001   3.718  23.957  0.00  0.00    -0.347 OA
ATOM      8  C   UNL     1      -1.818   1.346  24.737  0.00  0.00    +0.116 C 
ATOM      9  C   UNL     1      -0.478   1.864  25.307  0.00  0.00    +0.166 C 
ATOM     10  C   UNL     1      -2.358   3.868  24.463  0.00  0.00    +0.141 C 
ATOM     11  C   UNL     1      -2.583   2.430  23.940  0.00  0.00    +0.156 C 
ATOM     12  C   UNL     1      -0.927   4.022  25.012  0.00  0.00    +0.270 C 
ATOM     13  C   UNL     1       0.480   2.398  24.257  0.00  0.00    +0.196 C 
ENDROOT
BRANCH  11   3
ATOM      3  O   UNL     1      -2.140   2.392  22.576  0.00  0.00    -0.388 OA
ATOM     26  H   UNL     1      -1.851   1.482  22.387  0.00  0.00    +0.210 HD
ENDBRANCH  11   3
BRANCH   8   6
ATOM      6  N   UNL     1      -2.632   0.857  25.855  0.00  0.00    -0.305 NA
ATOM     24  H   UNL     1      -2.492   1.460  26.665  0.00  0.00    +0.123 HD
BRANCH   6  14
ATOM     14  C   UNL     1      -2.251  -0.500  26.209  0.00  0.00    +0.120 C 
BRANCH  14  16
ATOM     16  C   UNL     1      -2.758  -1.503  25.207  0.00  0.00    +0.008 A 
ATOM     18  C   UNL     1      -1.921  -2.503  24.712  0.00  0.00    +0.121 A 
ATOM     19  C   UNL     1      -4.081  -1.422  24.771  0.00  0.00    +0.008 A 
ATOM     20  C   UNL     1      -2.407  -3.423  23.783  0.00  0.00    +0.046 A 
ATOM     21  C   UNL     1      -4.567  -2.342  23.841  0.00  0.00    +0.001 A 
ATOM     22  C   UNL     1      -3.730  -3.342  23.347  0.00  0.00    +0.004 A 
BRANCH  18   5
ATOM      5  O   UNL     1      -0.626  -2.595  25.127  0.00  0.00    -0.506 OA
ATOM     27  H   UNL     1      -0.569  -3.248  25.845  0.00  0.00    +0.292 HD
ENDBRANCH  18   5
ENDBRANCH  14  16
ENDBRANCH   6  14
ENDBRANCH   8   6
BRANCH  10   7
ATOM      7  N   UNL     1      -3.331   4.198  25.506  0.00  0.00    -0.305 NA
ATOM     25  H   UNL     1      -3.313   5.201  25.687  0.00  0.00    +0.123 HD
BRANCH   7  15
ATOM     15  C   UNL     1      -4.673   3.820  25.095  0.00  0.00    +0.109 C 
BRANCH  15  17
ATOM     17  C   UNL     1      -5.401   3.109  26.224  0.00  0.00    +0.174 C 
BRANCH  17   4
ATOM      4  O   UNL     1      -5.548   1.737  25.881  0.00  0.00    -0.382 OA
ATOM     23  C   UNL     1      -6.322   1.576  24.700  0.00  0.00    +0.194 C 
ENDBRANCH  17   4
ENDBRANCH  15  17
ENDBRANCH   7  15
ENDBRANCH  10   7
TORSDOF 9
ENDMDL
