MODEL 1
REMARK VINA RESULT:      -6.8      0.000      0.000
REMARK  Name = 75536517
REMARK  10 active torsions:
REMARK  status: ('A' for Active; 'I' for Inactive)
REMARK    1  A    between atoms: O_4  and  C_10
REMARK    2  A    between atoms: N_6  and  C_8
REMARK    3  A    between atoms: N_6  and  C_9
REMARK    4  A    between atoms: N_7  and  C_18
REMARK    5  A    between atoms: C_13  and  C_18
REMARK    6  A    between atoms: C_19  and  C_20
REMARK    7  A    between atoms: C_19  and  C_22
REMARK    8  A    between atoms: C_19  and  C_23
REMARK    9  A    between atoms: C_19  and  C_24
REMARK   10  A    between atoms: C_20  and  C_21
REMARK                            x       y       z     vdW  Elec       q    Type
REMARK                         _______ _______ _______ _____ _____    ______ ____
ROOT
ATOM      3  O   UNL     1      -0.277   2.331  23.212  0.00  0.00    -0.371 OA
ATOM      8  C   UNL     1      -0.903   3.462  25.204  0.00  0.00    +0.111 C 
ATOM     10  C   UNL     1      -0.142   2.201  25.570  0.00  0.00    +0.164 C 
ATOM     13  C   UNL     1       0.604   1.923  24.272  0.00  0.00    +0.165 C 
ATOM     14  C   UNL     1      -1.308   3.164  23.770  0.00  0.00    +0.181 C 
ENDROOT
BRANCH  10   4
ATOM      4  O   UNL     1       0.743   2.393  26.656  0.00  0.00    -0.388 OA
ATOM     26  H   UNL     1       1.406   3.055  26.396  0.00  0.00    +0.210 HD
ENDBRANCH  10   4
BRANCH   8   6
ATOM      6  N   UNL     1      -2.041   3.727  26.070  0.00  0.00    -0.306 NA
ATOM     25  H   UNL     1      -2.021   4.694  26.392  0.00  0.00    +0.123 HD
BRANCH   6   9
ATOM      1  F   UNL     1      -5.962   1.363  26.361  0.00  0.00    -0.206 F 
ATOM      2  F   UNL     1      -7.067   1.876  24.559  0.00  0.00    -0.206 F 
ATOM      9  C   UNL     1      -3.302   3.458  25.379  0.00  0.00    +0.054 C 
ATOM     11  C   UNL     1      -4.480   3.907  26.252  0.00  0.00    +0.024 C 
ATOM     12  C   UNL     1      -3.400   1.966  25.038  0.00  0.00    +0.024 C 
ATOM     15  C   UNL     1      -5.817   3.576  25.592  0.00  0.00    +0.077 C 
ATOM     16  C   UNL     1      -4.737   1.635  24.377  0.00  0.00    +0.077 C 
ATOM     17  C   UNL     1      -5.907   2.105  25.224  0.00  0.00    +0.249 C 
ENDBRANCH   6   9
ENDBRANCH   8   6
BRANCH  13  18
ATOM     18  C   UNL     1       0.978   0.462  24.094  0.00  0.00    +0.138 C 
BRANCH  18   7
ATOM      5  O   UNL     1      -0.179  -1.751  25.563  0.00  0.00    -0.276 OA
ATOM      7  N   UNL     1      -0.168  -0.336  23.719  0.00  0.00    -0.313 N 
ATOM     21  C   UNL     1      -0.650  -1.380  24.489  0.00  0.00    +0.214 C 
ATOM     27  H   UNL     1      -0.636  -0.101  22.850  0.00  0.00    +0.149 HD
BRANCH  21  20
ATOM     20  C   UNL     1      -1.858  -2.066  23.872  0.00  0.00    +0.102 C 
BRANCH  20  19
ATOM     19  C   UNL     1      -3.143  -2.011  24.733  0.00  0.00    -0.029 C 
ATOM     22  C   UNL     1      -3.452  -3.441  25.219  0.00  0.00    +0.011 C 
ATOM     23  C   UNL     1      -4.341  -1.508  23.909  0.00  0.00    +0.011 C 
ATOM     24  C   UNL     1      -2.959  -1.108  25.963  0.00  0.00    +0.011 C 
ENDBRANCH  20  19
ENDBRANCH  21  20
ENDBRANCH  18   7
ENDBRANCH  13  18
TORSDOF 7
ENDMDL
MODEL 2
REMARK VINA RESULT:      -6.1      2.803      5.341
REMARK  Name = 75536517
REMARK  10 active torsions:
REMARK  status: ('A' for Active; 'I' for Inactive)
REMARK    1  A    between atoms: O_4  and  C_10
REMARK    2  A    between atoms: N_6  and  C_8
REMARK    3  A    between atoms: N_6  and  C_9
REMARK    4  A    between atoms: N_7  and  C_18
REMARK    5  A    between atoms: C_13  and  C_18
REMARK    6  A    between atoms: C_19  and  C_20
REMARK    7  A    between atoms: C_19  and  C_22
REMARK    8  A    between atoms: C_19  and  C_23
REMARK    9  A    between atoms: C_19  and  C_24
REMARK   10  A    between atoms: C_20  and  C_21
REMARK                            x       y       z     vdW  Elec       q    Type
REMARK                         _______ _______ _______ _____ _____    ______ ____
ROOT
ATOM      3  O   UNL     1      -3.969   3.777  24.015  0.00  0.00    -0.371 OA
ATOM      8  C   UNL     1      -5.512   2.067  24.593  0.00  0.00    +0.111 C 
ATOM     10  C   UNL     1      -4.923   2.651  25.863  0.00  0.00    +0.164 C 
ATOM     13  C   UNL     1      -4.422   3.998  25.361  0.00  0.00    +0.165 C 
ATOM     14  C   UNL     1      -4.499   2.522  23.555  0.00  0.00    +0.181 C 
ENDROOT
BRANCH  10   4
ATOM      4  O   UNL     1      -5.882   2.796  26.893  0.00  0.00    -0.388 OA
ATOM     26  H   UNL     1      -6.695   2.340  26.619  0.00  0.00    +0.210 HD
ENDBRANCH  10   4
BRANCH   8   6
ATOM      6  N   UNL     1      -5.669   0.622  24.634  0.00  0.00    -0.306 NA
ATOM     25  H   UNL     1      -6.227   0.305  23.841  0.00  0.00    +0.123 HD
BRANCH   6   9
ATOM      1  F   UNL     1      -3.606  -3.402  25.408  0.00  0.00    -0.206 F 
ATOM      2  F   UNL     1      -1.497  -3.041  25.018  0.00  0.00    -0.206 F 
ATOM      9  C   UNL     1      -4.370  -0.049  24.629  0.00  0.00    +0.054 C 
ATOM     11  C   UNL     1      -4.381  -1.198  23.614  0.00  0.00    +0.024 C 
ATOM     12  C   UNL     1      -4.041  -0.557  26.038  0.00  0.00    +0.024 C 
ATOM     15  C   UNL     1      -3.062  -1.967  23.631  0.00  0.00    +0.077 C 
ATOM     16  C   UNL     1      -2.722  -1.327  26.057  0.00  0.00    +0.077 C 
ATOM     17  C   UNL     1      -2.716  -2.446  25.031  0.00  0.00    +0.249 C 
ENDBRANCH   6   9
ENDBRANCH   8   6
BRANCH  13  18
ATOM     18  C   UNL     1      -3.289   4.568  26.197  0.00  0.00    +0.138 C 
BRANCH  18   7
ATOM      5  O   UNL     1      -0.857   5.078  24.709  0.00  0.00    -0.276 OA
ATOM      7  N   UNL     1      -2.111   3.734  26.131  0.00  0.00    -0.313 N 
ATOM     21  C   UNL     1      -0.990   4.061  25.389  0.00  0.00    +0.214 C 
ATOM     27  H   UNL     1      -2.117   2.873  26.669  0.00  0.00    +0.149 HD
BRANCH  21  20
ATOM     20  C   UNL     1       0.109   3.016  25.478  0.00  0.00    +0.102 C 
BRANCH  20  19
ATOM     19  C   UNL     1      -0.100   1.778  24.572  0.00  0.00    -0.029 C 
ATOM     22  C   UNL     1      -0.575   0.612  25.461  0.00  0.00    +0.011 C 
ATOM     23  C   UNL     1       1.214   1.364  23.888  0.00  0.00    +0.011 C 
ATOM     24  C   UNL     1      -1.170   2.039  23.500  0.00  0.00    +0.011 C 
ENDBRANCH  20  19
ENDBRANCH  21  20
ENDBRANCH  18   7
ENDBRANCH  13  18
TORSDOF 7
ENDMDL
MODEL 3
REMARK VINA RESULT:      -6.0      2.511      4.647
REMARK  Name = 75536517
REMARK  10 active torsions:
REMARK  status: ('A' for Active; 'I' for Inactive)
REMARK    1  A    between atoms: O_4  and  C_10
REMARK    2  A    between atoms: N_6  and  C_8
REMARK    3  A    between atoms: N_6  and  C_9
REMARK    4  A    between atoms: N_7  and  C_18
REMARK    5  A    between atoms: C_13  and  C_18
REMARK    6  A    between atoms: C_19  and  C_20
REMARK    7  A    between atoms: C_19  and  C_22
REMARK    8  A    between atoms: C_19  and  C_23
REMARK    9  A    between atoms: C_19  and  C_24
REMARK   10  A    between atoms: C_20  and  C_21
REMARK                            x       y       z     vdW  Elec       q    Type
REMARK                         _______ _______ _______ _____ _____    ______ ____
ROOT
ATOM      3  O   UNL     1      -3.382   3.825  23.519  0.00  0.00    -0.371 OA
ATOM      8  C   UNL     1      -4.896   2.533  24.815  0.00  0.00    +0.111 C 
ATOM     10  C   UNL     1      -3.825   3.102  25.727  0.00  0.00    +0.164 C 
ATOM     13  C   UNL     1      -3.311   4.263  24.886  0.00  0.00    +0.165 C 
ATOM     14  C   UNL     1      -4.234   2.668  23.454  0.00  0.00    +0.181 C 
ENDROOT
BRANCH  10   4
ATOM      4  O   UNL     1      -4.342   3.540  26.969  0.00  0.00    -0.388 OA
ATOM     26  H   UNL     1      -4.965   2.868  27.294  0.00  0.00    +0.210 HD
ENDBRANCH  10   4
BRANCH   8   6
ATOM      6  N   UNL     1      -5.263   1.162  25.131  0.00  0.00    -0.306 NA
ATOM     25  H   UNL     1      -6.083   0.883  24.593  0.00  0.00    +0.123 HD
BRANCH   6   9
ATOM      1  F   UNL     1      -3.990  -3.239  25.377  0.00  0.00    -0.206 F 
ATOM      2  F   UNL     1      -1.955  -3.283  24.612  0.00  0.00    -0.206 F 
ATOM      9  C   UNL     1      -4.155   0.245  24.863  0.00  0.00    +0.054 C 
ATOM     11  C   UNL     1      -4.586  -0.803  23.830  0.00  0.00    +0.024 C 
ATOM     12  C   UNL     1      -3.699  -0.416  26.169  0.00  0.00    +0.024 C 
ATOM     15  C   UNL     1      -3.476  -1.821  23.577  0.00  0.00    +0.077 C 
ATOM     16  C   UNL     1      -2.589  -1.435  25.917  0.00  0.00    +0.077 C 
ATOM     17  C   UNL     1      -2.999  -2.458  24.871  0.00  0.00    +0.249 C 
ENDBRANCH   6   9
ENDBRANCH   8   6
BRANCH  13  18
ATOM     18  C   UNL     1      -1.886   4.665  25.224  0.00  0.00    +0.138 C 
BRANCH  18   7
ATOM      5  O   UNL     1      -0.472   2.454  26.450  0.00  0.00    -0.276 OA
ATOM      7  N   UNL     1      -0.926   3.784  24.598  0.00  0.00    -0.313 N 
ATOM     21  C   UNL     1      -0.297   2.749  25.268  0.00  0.00    +0.214 C 
ATOM     27  H   UNL     1      -0.720   3.938  23.617  0.00  0.00    +0.149 HD
BRANCH  21  20
ATOM     20  C   UNL     1       0.674   1.976  24.391  0.00  0.00    +0.102 C 
BRANCH  20  19
ATOM     19  C   UNL     1       0.086   0.699  23.745  0.00  0.00    -0.029 C 
ATOM     22  C   UNL     1       1.121   0.153  22.741  0.00  0.00    +0.011 C 
ATOM     23  C   UNL     1      -1.212   1.012  22.982  0.00  0.00    +0.011 C 
ATOM     24  C   UNL     1      -0.193  -0.388  24.796  0.00  0.00    +0.011 C 
ENDBRANCH  20  19
ENDBRANCH  21  20
ENDBRANCH  18   7
ENDBRANCH  13  18
TORSDOF 7
ENDMDL
MODEL 4
REMARK VINA RESULT:      -5.7      2.422      4.632
REMARK  Name = 75536517
REMARK  10 active torsions:
REMARK  status: ('A' for Active; 'I' for Inactive)
REMARK    1  A    between atoms: O_4  and  C_10
REMARK    2  A    between atoms: N_6  and  C_8
REMARK    3  A    between atoms: N_6  and  C_9
REMARK    4  A    between atoms: N_7  and  C_18
REMARK    5  A    between atoms: C_13  and  C_18
REMARK    6  A    between atoms: C_19  and  C_20
REMARK    7  A    between atoms: C_19  and  C_22
REMARK    8  A    between atoms: C_19  and  C_23
REMARK    9  A    between atoms: C_19  and  C_24
REMARK   10  A    between atoms: C_20  and  C_21
REMARK                            x       y       z     vdW  Elec       q    Type
REMARK                         _______ _______ _______ _____ _____    ______ ____
ROOT
ATOM      3  O   UNL     1      -1.387  -2.213  23.493  0.00  0.00    -0.371 OA
ATOM      8  C   UNL     1       0.069  -0.665  24.552  0.00  0.00    +0.111 C 
ATOM     10  C   UNL     1      -1.160  -0.860  25.419  0.00  0.00    +0.164 C 
ATOM     13  C   UNL     1      -1.676  -2.195  24.900  0.00  0.00    +0.165 C 
ATOM     14  C   UNL     1      -0.422  -1.184  23.211  0.00  0.00    +0.181 C 
ENDROOT
BRANCH  10   4
ATOM      4  O   UNL     1      -0.854  -0.913  26.799  0.00  0.00    -0.388 OA
ATOM     26  H   UNL     1      -1.393  -1.612  27.205  0.00  0.00    +0.210 HD
ENDBRANCH  10   4
BRANCH   8   6
ATOM      6  N   UNL     1       0.528   0.714  24.492  0.00  0.00    -0.306 NA
ATOM     25  H   UNL     1       0.886   0.925  23.561  0.00  0.00    +0.123 HD
BRANCH   6   9
ATOM      1  F   UNL     1      -0.462   5.162  25.026  0.00  0.00    -0.206 F 
ATOM      2  F   UNL     1      -2.563   5.210  25.589  0.00  0.00    -0.206 F 
ATOM      9  C   UNL     1      -0.549   1.642  24.834  0.00  0.00    +0.054 C 
ATOM     11  C   UNL     1      -0.824   2.580  23.653  0.00  0.00    +0.024 C 
ATOM     12  C   UNL     1      -0.174   2.431  26.095  0.00  0.00    +0.024 C 
ATOM     15  C   UNL     1      -1.896   3.611  24.001  0.00  0.00    +0.077 C 
ATOM     16  C   UNL     1      -1.246   3.462  26.444  0.00  0.00    +0.077 C 
ATOM     17  C   UNL     1      -1.544   4.374  25.266  0.00  0.00    +0.249 C 
ENDBRANCH   6   9
ENDBRANCH   8   6
BRANCH  13  18
ATOM     18  C   UNL     1      -3.166  -2.392  25.122  0.00  0.00    +0.138 C 
BRANCH  18   7
ATOM      5  O   UNL     1      -3.973   0.014  23.724  0.00  0.00    -0.276 OA
ATOM      7  N   UNL     1      -3.776  -1.211  25.689  0.00  0.00    -0.313 N 
ATOM     21  C   UNL     1      -4.129  -0.104  24.939  0.00  0.00    +0.214 C 
ATOM     27  H   UNL     1      -3.958  -1.214  26.688  0.00  0.00    +0.149 HD
BRANCH  21  20
ATOM     20  C   UNL     1      -4.746   1.008  25.771  0.00  0.00    +0.102 C 
BRANCH  20  19
ATOM     19  C   UNL     1      -5.318   2.189  24.951  0.00  0.00    -0.029 C 
ATOM     22  C   UNL     1      -6.762   1.832  24.546  0.00  0.00    +0.011 C 
ATOM     23  C   UNL     1      -4.498   2.423  23.671  0.00  0.00    +0.011 C 
ATOM     24  C   UNL     1      -5.351   3.485  25.777  0.00  0.00    +0.011 C 
ENDBRANCH  20  19
ENDBRANCH  21  20
ENDBRANCH  18   7
ENDBRANCH  13  18
TORSDOF 7
ENDMDL
MODEL 5
REMARK VINA RESULT:      -4.5      4.204      7.070
REMARK  Name = 75536517
REMARK  10 active torsions:
REMARK  status: ('A' for Active; 'I' for Inactive)
REMARK    1  A    between atoms: O_4  and  C_10
REMARK    2  A    between atoms: N_6  and  C_8
REMARK    3  A    between atoms: N_6  and  C_9
REMARK    4  A    between atoms: N_7  and  C_18
REMARK    5  A    between atoms: C_13  and  C_18
REMARK    6  A    between atoms: C_19  and  C_20
REMARK    7  A    between atoms: C_19  and  C_22
REMARK    8  A    between atoms: C_19  and  C_23
REMARK    9  A    between atoms: C_19  and  C_24
REMARK   10  A    between atoms: C_20  and  C_21
REMARK                            x       y       z     vdW  Elec       q    Type
REMARK                         _______ _______ _______ _____ _____    ______ ____
ROOT
ATOM      3  O   UNL     1      -1.415  -2.299  24.338  0.00  0.00    -0.371 OA
ATOM      8  C   UNL     1       0.274  -0.651  24.077  0.00  0.00    +0.111 C 
ATOM     10  C   UNL     1      -0.842  -0.083  24.934  0.00  0.00    +0.164 C 
ATOM     13  C   UNL     1      -1.516  -1.359  25.421  0.00  0.00    +0.165 C 
ATOM     14  C   UNL     1      -0.425  -1.823  23.410  0.00  0.00    +0.181 C 
ENDROOT
BRANCH  10   4
ATOM      4  O   UNL     1      -0.362   0.702  26.008  0.00  0.00    -0.388 OA
ATOM     26  H   UNL     1      -0.950   0.568  26.771  0.00  0.00    +0.210 HD
ENDBRANCH  10   4
BRANCH   8   6
ATOM      6  N   UNL     1       0.818   0.302  23.123  0.00  0.00    -0.306 NA
ATOM     25  H   UNL     1       0.752   1.249  23.493  0.00  0.00    +0.123 HD
BRANCH   6   9
ATOM      1  F   UNL     1       5.101   0.490  24.757  0.00  0.00    -0.206 F 
ATOM      2  F   UNL     1       6.344  -0.354  23.185  0.00  0.00    -0.206 F 
ATOM      9  C   UNL     1       2.210  -0.012  22.802  0.00  0.00    +0.054 C 
ATOM     11  C   UNL     1       2.760  -1.028  23.809  0.00  0.00    +0.024 C 
ATOM     12  C   UNL     1       3.045   1.275  22.798  0.00  0.00    +0.024 C 
ATOM     15  C   UNL     1       4.235  -1.326  23.546  0.00  0.00    +0.077 C 
ATOM     16  C   UNL     1       4.521   0.978  22.536  0.00  0.00    +0.077 C 
ATOM     17  C   UNL     1       5.062  -0.052  23.511  0.00  0.00    +0.249 C 
ENDBRANCH   6   9
ENDBRANCH   8   6
BRANCH  13  18
ATOM     18  C   UNL     1      -2.974  -1.164  25.798  0.00  0.00    +0.138 C 
BRANCH  18   7
ATOM      5  O   UNL     1      -5.133  -0.033  24.232  0.00  0.00    -0.276 OA
ATOM      7  N   UNL     1      -3.360   0.226  25.713  0.00  0.00    -0.313 N 
ATOM     21  C   UNL     1      -4.412   0.675  24.933  0.00  0.00    +0.214 C 
ATOM     27  H   UNL     1      -2.832   0.893  26.266  0.00  0.00    +0.149 HD
BRANCH  21  20
ATOM     20  C   UNL     1      -4.609   2.180  25.010  0.00  0.00    +0.102 C 
BRANCH  20  19
ATOM     19  C   UNL     1      -3.517   3.013  24.296  0.00  0.00    -0.029 C 
ATOM     22  C   UNL     1      -4.186   4.271  23.707  0.00  0.00    +0.011 C 
ATOM     23  C   UNL     1      -2.879   2.217  23.145  0.00  0.00    +0.011 C 
ATOM     24  C   UNL     1      -2.419   3.459  25.275  0.00  0.00    +0.011 C 
ENDBRANCH  20  19
ENDBRANCH  21  20
ENDBRANCH  18   7
ENDBRANCH  13  18
TORSDOF 7
ENDMDL
MODEL 6
REMARK VINA RESULT:      -4.3      3.164      4.863
REMARK  Name = 75536517
REMARK  10 active torsions:
REMARK  status: ('A' for Active; 'I' for Inactive)
REMARK    1  A    between atoms: O_4  and  C_10
REMARK    2  A    between atoms: N_6  and  C_8
REMARK    3  A    between atoms: N_6  and  C_9
REMARK    4  A    between atoms: N_7  and  C_18
REMARK    5  A    between atoms: C_13  and  C_18
REMARK    6  A    between atoms: C_19  and  C_20
REMARK    7  A    between atoms: C_19  and  C_22
REMARK    8  A    between atoms: C_19  and  C_23
REMARK    9  A    between atoms: C_19  and  C_24
REMARK   10  A    between atoms: C_20  and  C_21
REMARK                            x       y       z     vdW  Elec       q    Type
REMARK                         _______ _______ _______ _____ _____    ______ ____
ROOT
ATOM      3  O   UNL     1      -5.329   3.249  26.514  0.00  0.00    -0.371 OA
ATOM      8  C   UNL     1      -3.556   4.266  25.305  0.00  0.00    +0.111 C 
ATOM     10  C   UNL     1      -4.233   3.237  24.418  0.00  0.00    +0.164 C 
ATOM     13  C   UNL     1      -5.584   3.101  25.107  0.00  0.00    +0.165 C 
ATOM     14  C   UNL     1      -4.024   3.830  26.683  0.00  0.00    +0.181 C 
ENDROOT
BRANCH  10   4
ATOM      4  O   UNL     1      -4.366   3.673  23.079  0.00  0.00    -0.388 OA
ATOM     26  H   UNL     1      -4.797   2.966  22.569  0.00  0.00    +0.210 HD
ENDBRANCH  10   4
BRANCH   8   6
ATOM      6  N   UNL     1      -2.108   4.281  25.178  0.00  0.00    -0.306 NA
ATOM     25  H   UNL     1      -1.687   4.721  25.996  0.00  0.00    +0.123 HD
BRANCH   6   9
ATOM      1  F   UNL     1       1.496   1.906  23.621  0.00  0.00    -0.206 F 
ATOM      2  F   UNL     1       0.998  -0.180  23.985  0.00  0.00    -0.206 F 
ATOM      9  C   UNL     1      -1.579   2.928  25.012  0.00  0.00    +0.054 C 
ATOM     11  C   UNL     1      -0.277   2.776  25.807  0.00  0.00    +0.024 C 
ATOM     12  C   UNL     1      -1.358   2.636  23.523  0.00  0.00    +0.024 C 
ATOM     15  C   UNL     1       0.341   1.395  25.601  0.00  0.00    +0.077 C 
ATOM     16  C   UNL     1      -0.739   1.254  23.315  0.00  0.00    +0.077 C 
ATOM     17  C   UNL     1       0.535   1.087  24.126  0.00  0.00    +0.249 C 
ENDBRANCH   6   9
ENDBRANCH   8   6
BRANCH  13  18
ATOM     18  C   UNL     1      -6.260   1.766  24.846  0.00  0.00    +0.138 C 
BRANCH  18   7
ATOM      5  O   UNL     1      -4.357   0.029  26.170  0.00  0.00    -0.276 OA
ATOM      7  N   UNL     1      -5.353   0.826  24.227  0.00  0.00    -0.313 N 
ATOM     21  C   UNL     1      -4.475   0.034  24.945  0.00  0.00    +0.214 C 
ATOM     27  H   UNL     1      -5.380   0.747  23.215  0.00  0.00    +0.149 HD
BRANCH  21  20
ATOM     20  C   UNL     1      -3.624  -0.864  24.062  0.00  0.00    +0.102 C 
BRANCH  20  19
ATOM     19  C   UNL     1      -2.666  -1.806  24.830  0.00  0.00    -0.029 C 
ATOM     22  C   UNL     1      -1.551  -2.246  23.861  0.00  0.00    +0.011 C 
ATOM     23  C   UNL     1      -3.404  -3.062  25.325  0.00  0.00    +0.011 C 
ATOM     24  C   UNL     1      -2.016  -1.095  26.028  0.00  0.00    +0.011 C 
ENDBRANCH  20  19
ENDBRANCH  21  20
ENDBRANCH  18   7
ENDBRANCH  13  18
TORSDOF 7
ENDMDL
MODEL 7
REMARK VINA RESULT:      -3.8     16.289     18.803
REMARK  Name = 75536517
REMARK  10 active torsions:
REMARK  status: ('A' for Active; 'I' for Inactive)
REMARK    1  A    between atoms: O_4  and  C_10
REMARK    2  A    between atoms: N_6  and  C_8
REMARK    3  A    between atoms: N_6  and  C_9
REMARK    4  A    between atoms: N_7  and  C_18
REMARK    5  A    between atoms: C_13  and  C_18
REMARK    6  A    between atoms: C_19  and  C_20
REMARK    7  A    between atoms: C_19  and  C_22
REMARK    8  A    between atoms: C_19  and  C_23
REMARK    9  A    between atoms: C_19  and  C_24
REMARK   10  A    between atoms: C_20  and  C_21
REMARK                            x       y       z     vdW  Elec       q    Type
REMARK                         _______ _______ _______ _____ _____    ______ ____
ROOT
ATOM      3  O   UNL     1      13.570  -7.592  30.191  0.00  0.00    -0.371 OA
ATOM      8  C   UNL     1      11.860  -8.008  31.786  0.00  0.00    +0.111 C 
ATOM     10  C   UNL     1      12.713  -6.849  32.267  0.00  0.00    +0.164 C 
ATOM     13  C   UNL     1      13.356  -6.398  30.962  0.00  0.00    +0.165 C 
ATOM     14  C   UNL     1      12.776  -8.650  30.757  0.00  0.00    +0.181 C 
ENDROOT
BRANCH  10   4
ATOM      4  O   UNL     1      11.949  -5.818  32.861  0.00  0.00    -0.388 OA
ATOM     26  H   UNL     1      12.558  -5.199  33.298  0.00  0.00    +0.210 HD
ENDBRANCH  10   4
BRANCH   8   6
ATOM      6  N   UNL     1      11.471  -8.924  32.846  0.00  0.00    -0.306 NA
ATOM     25  H   UNL     1      11.794  -8.577  33.749  0.00  0.00    +0.123 HD
BRANCH   6   9
ATOM      1  F   UNL     1       7.648  -8.395  30.366  0.00  0.00    -0.206 F 
ATOM      2  F   UNL     1       6.040  -9.104  31.648  0.00  0.00    -0.206 F 
ATOM      9  C   UNL     1      10.021  -9.112  32.874  0.00  0.00    +0.054 C 
ATOM     11  C   UNL     1       9.602 -10.093  31.773  0.00  0.00    +0.024 C 
ATOM     12  C   UNL     1       9.319  -7.759  32.708  0.00  0.00    +0.024 C 
ATOM     15  C   UNL     1       8.084 -10.260  31.726  0.00  0.00    +0.077 C 
ATOM     16  C   UNL     1       7.800  -7.924  32.661  0.00  0.00    +0.077 C 
ATOM     17  C   UNL     1       7.382  -8.919  31.592  0.00  0.00    +0.249 C 
ENDBRANCH   6   9
ENDBRANCH   8   6
BRANCH  13  18
ATOM     18  C   UNL     1      14.675  -5.673  31.161  0.00  0.00    +0.138 C 
BRANCH  18   7
ATOM      5  O   UNL     1      17.178  -6.796  30.231  0.00  0.00    -0.276 OA
ATOM      7  N   UNL     1      15.335  -5.418  29.901  0.00  0.00    -0.313 N 
ATOM     21  C   UNL     1      16.536  -6.004  29.542  0.00  0.00    +0.214 C 
ATOM     27  H   UNL     1      14.878  -4.784  29.254  0.00  0.00    +0.149 HD
BRANCH  21  20
ATOM     20  C   UNL     1      17.025  -5.566  28.171  0.00  0.00    +0.102 C 
BRANCH  20  19
ATOM     19  C   UNL     1      16.675  -6.539  27.019  0.00  0.00    -0.029 C 
ATOM     22  C   UNL     1      15.156  -6.801  27.062  0.00  0.00    +0.011 C 
ATOM     23  C   UNL     1      17.405  -7.882  27.186  0.00  0.00    +0.011 C 
ATOM     24  C   UNL     1      17.025  -5.938  25.648  0.00  0.00    +0.011 C 
ENDBRANCH  20  19
ENDBRANCH  21  20
ENDBRANCH  18   7
ENDBRANCH  13  18
TORSDOF 7
ENDMDL
MODEL 8
REMARK VINA RESULT:      -3.7      2.958      5.138
REMARK  Name = 75536517
REMARK  10 active torsions:
REMARK  status: ('A' for Active; 'I' for Inactive)
REMARK    1  A    between atoms: O_4  and  C_10
REMARK    2  A    between atoms: N_6  and  C_8
REMARK    3  A    between atoms: N_6  and  C_9
REMARK    4  A    between atoms: N_7  and  C_18
REMARK    5  A    between atoms: C_13  and  C_18
REMARK    6  A    between atoms: C_19  and  C_20
REMARK    7  A    between atoms: C_19  and  C_22
REMARK    8  A    between atoms: C_19  and  C_23
REMARK    9  A    between atoms: C_19  and  C_24
REMARK   10  A    between atoms: C_20  and  C_21
REMARK                            x       y       z     vdW  Elec       q    Type
REMARK                         _______ _______ _______ _____ _____    ______ ____
ROOT
ATOM      3  O   UNL     1      -0.461   0.769  25.014  0.00  0.00    -0.371 OA
ATOM      8  C   UNL     1      -2.451  -0.457  25.436  0.00  0.00    +0.111 C 
ATOM     10  C   UNL     1      -1.751  -1.051  24.228  0.00  0.00    +0.164 C 
ATOM     13  C   UNL     1      -0.332  -0.538  24.430  0.00  0.00    +0.165 C 
ATOM     14  C   UNL     1      -1.801   0.914  25.516  0.00  0.00    +0.181 C 
ENDROOT
BRANCH  10   4
ATOM      4  O   UNL     1      -1.802  -2.465  24.208  0.00  0.00    -0.388 OA
ATOM     26  H   UNL     1      -2.295  -2.764  24.991  0.00  0.00    +0.210 HD
ENDBRANCH  10   4
BRANCH   8   6
ATOM      6  N   UNL     1      -3.897  -0.391  25.299  0.00  0.00    -0.306 NA
ATOM     25  H   UNL     1      -4.343  -0.498  26.209  0.00  0.00    +0.123 HD
BRANCH   6   9
ATOM      1  F   UNL     1      -2.635   3.974  24.663  0.00  0.00    -0.206 F 
ATOM      2  F   UNL     1      -4.246   4.866  23.505  0.00  0.00    -0.206 F 
ATOM      9  C   UNL     1      -4.310   0.871  24.686  0.00  0.00    +0.054 C 
ATOM     11  C   UNL     1      -3.287   1.295  23.626  0.00  0.00    +0.024 C 
ATOM     12  C   UNL     1      -4.466   1.947  25.768  0.00  0.00    +0.024 C 
ATOM     15  C   UNL     1      -3.650   2.646  23.013  0.00  0.00    +0.077 C 
ATOM     16  C   UNL     1      -4.829   3.300  25.157  0.00  0.00    +0.077 C 
ATOM     17  C   UNL     1      -3.836   3.709  24.083  0.00  0.00    +0.249 C 
ENDBRANCH   6   9
ENDBRANCH   8   6
BRANCH  13  18
ATOM     18  C   UNL     1       0.464  -0.448  23.140  0.00  0.00    +0.138 C 
BRANCH  18   7
ATOM      5  O   UNL     1       2.599  -0.134  21.208  0.00  0.00    -0.276 OA
ATOM      7  N   UNL     1       1.766   0.140  23.360  0.00  0.00    -0.313 N 
ATOM     21  C   UNL     1       2.727   0.247  22.371  0.00  0.00    +0.214 C 
ATOM     27  H   UNL     1       1.967   0.496  24.289  0.00  0.00    +0.149 HD
BRANCH  21  20
ATOM     20  C   UNL     1       4.013   0.894  22.858  0.00  0.00    +0.102 C 
BRANCH  20  19
ATOM     19  C   UNL     1       5.025  -0.085  23.502  0.00  0.00    -0.029 C 
ATOM     22  C   UNL     1       4.292  -1.411  23.785  0.00  0.00    +0.011 C 
ATOM     23  C   UNL     1       5.559   0.469  24.834  0.00  0.00    +0.011 C 
ATOM     24  C   UNL     1       6.207  -0.373  22.563  0.00  0.00    +0.011 C 
ENDBRANCH  20  19
ENDBRANCH  21  20
ENDBRANCH  18   7
ENDBRANCH  13  18
TORSDOF 7
ENDMDL
MODEL 9
REMARK VINA RESULT:      -3.0     16.772     19.183
REMARK  Name = 75536517
REMARK  10 active torsions:
REMARK  status: ('A' for Active; 'I' for Inactive)
REMARK    1  A    between atoms: O_4  and  C_10
REMARK    2  A    between atoms: N_6  and  C_8
REMARK    3  A    between atoms: N_6  and  C_9
REMARK    4  A    between atoms: N_7  and  C_18
REMARK    5  A    between atoms: C_13  and  C_18
REMARK    6  A    between atoms: C_19  and  C_20
REMARK    7  A    between atoms: C_19  and  C_22
REMARK    8  A    between atoms: C_19  and  C_23
REMARK    9  A    between atoms: C_19  and  C_24
REMARK   10  A    between atoms: C_20  and  C_21
REMARK                            x       y       z     vdW  Elec       q    Type
REMARK                         _______ _______ _______ _____ _____    ______ ____
ROOT
ATOM      3  O   UNL     1      13.391  -7.082  31.086  0.00  0.00    -0.371 OA
ATOM      8  C   UNL     1      12.021  -8.849  31.886  0.00  0.00    +0.111 C 
ATOM     10  C   UNL     1      13.453  -9.340  31.788  0.00  0.00    +0.164 C 
ATOM     13  C   UNL     1      14.215  -8.022  31.795  0.00  0.00    +0.165 C 
ATOM     14  C   UNL     1      12.061  -7.622  30.991  0.00  0.00    +0.181 C 
ENDROOT
BRANCH  10   4
ATOM      4  O   UNL     1      13.822 -10.169  32.873  0.00  0.00    -0.388 OA
ATOM     26  H   UNL     1      13.034 -10.654  33.169  0.00  0.00    +0.210 HD
ENDBRANCH  10   4
BRANCH   8   6
ATOM      6  N   UNL     1      11.037  -9.830  31.456  0.00  0.00    -0.306 NA
ATOM     25  H   UNL     1      11.387 -10.774  31.619  0.00  0.00    +0.123 HD
BRANCH   6   9
ATOM      1  F   UNL     1       6.755  -8.265  30.944  0.00  0.00    -0.206 F 
ATOM      2  F   UNL     1       5.803  -8.580  32.873  0.00  0.00    -0.206 F 
ATOM      9  C   UNL     1       9.767  -9.642  32.155  0.00  0.00    +0.054 C 
ATOM     11  C   UNL     1       8.665 -10.449  31.458  0.00  0.00    +0.024 C 
ATOM     12  C   UNL     1       9.416  -8.150  32.204  0.00  0.00    +0.024 C 
ATOM     15  C   UNL     1       7.307 -10.221  32.120  0.00  0.00    +0.077 C 
ATOM     16  C   UNL     1       8.058  -7.921  32.866  0.00  0.00    +0.077 C 
ATOM     17  C   UNL     1       6.968  -8.742  32.199  0.00  0.00    +0.249 C 
ENDBRANCH   6   9
ENDBRANCH   8   6
BRANCH  13  18
ATOM     18  C   UNL     1      15.579  -8.113  31.132  0.00  0.00    +0.138 C 
BRANCH  18   7
ATOM      5  O   UNL     1      17.162  -6.705  29.156  0.00  0.00    -0.276 OA
ATOM      7  N   UNL     1      15.463  -8.197  29.694  0.00  0.00    -0.313 N 
ATOM     21  C   UNL     1      16.268  -7.483  28.824  0.00  0.00    +0.214 C 
ATOM     27  H   UNL     1      14.758  -8.823  29.318  0.00  0.00    +0.149 HD
BRANCH  21  20
ATOM     20  C   UNL     1      15.941  -7.740  27.363  0.00  0.00    +0.102 C 
BRANCH  20  19
ATOM     19  C   UNL     1      16.249  -9.176  26.875  0.00  0.00    -0.029 C 
ATOM     22  C   UNL     1      16.846  -9.080  25.457  0.00  0.00    +0.011 C 
ATOM     23  C   UNL     1      14.967 -10.024  26.806  0.00  0.00    +0.011 C 
ATOM     24  C   UNL     1      17.270  -9.875  27.787  0.00  0.00    +0.011 C 
ENDBRANCH  20  19
ENDBRANCH  21  20
ENDBRANCH  18   7
ENDBRANCH  13  18
TORSDOF 7
ENDMDL
MODEL 10
REMARK VINA RESULT:      -2.9      2.860      6.044
REMARK  Name = 75536517
REMARK  10 active torsions:
REMARK  status: ('A' for Active; 'I' for Inactive)
REMARK    1  A    between atoms: O_4  and  C_10
REMARK    2  A    between atoms: N_6  and  C_8
REMARK    3  A    between atoms: N_6  and  C_9
REMARK    4  A    between atoms: N_7  and  C_18
REMARK    5  A    between atoms: C_13  and  C_18
REMARK    6  A    between atoms: C_19  and  C_20
REMARK    7  A    between atoms: C_19  and  C_22
REMARK    8  A    between atoms: C_19  and  C_23
REMARK    9  A    between atoms: C_19  and  C_24
REMARK   10  A    between atoms: C_20  and  C_21
REMARK                            x       y       z     vdW  Elec       q    Type
REMARK                         _______ _______ _______ _____ _____    ______ ____
ROOT
ATOM      3  O   UNL     1      -3.965  -0.840  23.480  0.00  0.00    -0.371 OA
ATOM      8  C   UNL     1      -2.615  -2.199  24.883  0.00  0.00    +0.111 C 
ATOM     10  C   UNL     1      -3.301  -1.143  25.729  0.00  0.00    +0.164 C 
ATOM     13  C   UNL     1      -4.462  -0.752  24.825  0.00  0.00    +0.165 C 
ATOM     14  C   UNL     1      -2.745  -1.601  23.492  0.00  0.00    +0.181 C 
ENDROOT
BRANCH  10   4
ATOM      4  O   UNL     1      -3.748  -1.646  26.974  0.00  0.00    -0.388 OA
ATOM     26  H   UNL     1      -2.988  -2.043  27.433  0.00  0.00    +0.210 HD
ENDBRANCH  10   4
BRANCH   8   6
ATOM      6  N   UNL     1      -1.234  -2.446  25.266  0.00  0.00    -0.306 NA
ATOM     25  H   UNL     1      -0.854  -3.227  24.731  0.00  0.00    +0.123 HD
BRANCH   6   9
ATOM      1  F   UNL     1      -1.194   1.708  23.317  0.00  0.00    -0.206 F 
ATOM      2  F   UNL     1       0.765   2.531  23.781  0.00  0.00    -0.206 F 
ATOM      9  C   UNL     1      -0.410  -1.255  25.061  0.00  0.00    +0.054 C 
ATOM     11  C   UNL     1      -1.093  -0.035  25.690  0.00  0.00    +0.024 C 
ATOM     12  C   UNL     1      -0.166  -1.043  23.562  0.00  0.00    +0.024 C 
ATOM     15  C   UNL     1      -0.294   1.242  25.435  0.00  0.00    +0.077 C 
ATOM     16  C   UNL     1       0.634   0.234  23.305  0.00  0.00    +0.077 C 
ATOM     17  C   UNL     1      -0.023   1.441  23.954  0.00  0.00    +0.249 C 
ENDBRANCH   6   9
ENDBRANCH   8   6
BRANCH  13  18
ATOM     18  C   UNL     1      -4.985   0.649  25.090  0.00  0.00    +0.138 C 
BRANCH  18   7
ATOM      5  O   UNL     1      -5.238   3.522  25.357  0.00  0.00    -0.276 OA
ATOM      7  N   UNL     1      -4.042   1.656  24.658  0.00  0.00    -0.313 N 
ATOM     21  C   UNL     1      -4.251   3.013  24.829  0.00  0.00    +0.214 C 
ATOM     27  H   UNL     1      -3.185   1.336  24.219  0.00  0.00    +0.149 HD
BRANCH  21  20
ATOM     20  C   UNL     1      -3.116   3.863  24.282  0.00  0.00    +0.102 C 
BRANCH  20  19
ATOM     19  C   UNL     1      -2.196   4.485  25.361  0.00  0.00    -0.029 C 
ATOM     22  C   UNL     1      -2.943   5.677  25.993  0.00  0.00    +0.011 C 
ATOM     23  C   UNL     1      -0.888   5.005  24.740  0.00  0.00    +0.011 C 
ATOM     24  C   UNL     1      -1.865   3.474  26.470  0.00  0.00    +0.011 C 
ENDBRANCH  20  19
ENDBRANCH  21  20
ENDBRANCH  18   7
ENDBRANCH  13  18
TORSDOF 7
ENDMDL
