MODEL 1
REMARK VINA RESULT:      -6.8      0.000      0.000
REMARK  Name = 75536690
REMARK  8 active torsions:
REMARK  status: ('A' for Active; 'I' for Inactive)
REMARK    1  A    between atoms: S_1  and  N_7
REMARK    2  A    between atoms: S_1  and  C_17
REMARK    3  A    between atoms: O_3  and  C_11
REMARK    4  A    between atoms: N_6  and  C_10
REMARK    5  A    between atoms: N_6  and  C_15
REMARK    6  A    between atoms: N_7  and  C_14
REMARK    7  A    between atoms: C_12  and  C_14
REMARK    8  A    between atoms: C_15  and  C_16
REMARK                            x       y       z     vdW  Elec       q    Type
REMARK                         _______ _______ _______ _____ _____    ______ ____
ROOT
ATOM      2  O   UNL     1      -0.449   3.347  25.683  0.00  0.00    -0.371 OA
ATOM     10  C   UNL     1       0.090   1.667  24.093  0.00  0.00    +0.111 C 
ATOM     11  C   UNL     1      -1.386   2.001  23.980  0.00  0.00    +0.164 C 
ATOM     12  C   UNL     1      -1.427   3.378  24.630  0.00  0.00    +0.164 C 
ATOM     13  C   UNL     1       0.418   2.219  25.471  0.00  0.00    +0.181 C 
ENDROOT
BRANCH  11   3
ATOM      3  O   UNL     1      -1.836   2.038  22.640  0.00  0.00    -0.388 OA
ATOM     27  H   UNL     1      -2.807   2.085  22.643  0.00  0.00    +0.210 HD
ENDBRANCH  11   3
BRANCH  10   6
ATOM      6  N   UNL     1       0.378   0.248  23.969  0.00  0.00    -0.304 NA
ATOM     25  H   UNL     1      -0.502  -0.269  23.955  0.00  0.00    +0.123 HD
BRANCH   6  15
ATOM     15  C   UNL     1       1.114  -0.034  22.743  0.00  0.00    +0.136 C 
BRANCH  15  16
ATOM      8  N   UNL     1       3.327  -0.987  23.484  0.00  0.00    -0.347 N 
ATOM      9  N   UNL     1       4.788   0.632  23.063  0.00  0.00    -0.244 NA
ATOM     16  C   UNL     1       2.603   0.041  22.952  0.00  0.00    +0.049 A 
ATOM     18  C   UNL     1       3.526   1.029  22.699  0.00  0.00    +0.134 A 
ATOM     21  C   UNL     1       4.634  -0.587  23.531  0.00  0.00    +0.196 A 
ATOM     28  H   UNL     1       2.968  -1.882  23.789  0.00  0.00    +0.167 HD
ENDBRANCH  15  16
ENDBRANCH   6  15
ENDBRANCH  10   6
BRANCH  12  14
ATOM     14  C   UNL     1      -2.787   3.732  25.203  0.00  0.00    +0.140 C 
BRANCH  14   7
ATOM      7  N   UNL     1      -3.415   2.523  25.772  0.00  0.00    -0.187 NA
ATOM     26  H   UNL     1      -2.810   1.947  26.370  0.00  0.00    +0.148 HD
BRANCH   7   1
ATOM      1  S   UNL     1      -4.706   1.770  24.960  0.00  0.00    +0.058 S 
ATOM      4  O   UNL     1      -4.771   2.265  23.598  0.00  0.00    -0.153 OA
ATOM      5  O   UNL     1      -5.882   1.808  25.806  0.00  0.00    -0.153 OA
BRANCH   1  17
ATOM     17  C   UNL     1      -4.166   0.088  24.903  0.00  0.00    +0.105 A 
ATOM     19  C   UNL     1      -4.604  -0.750  23.877  0.00  0.00    +0.028 A 
ATOM     20  C   UNL     1      -3.306  -0.403  25.885  0.00  0.00    +0.028 A 
ATOM     22  C   UNL     1      -4.180  -2.078  23.834  0.00  0.00    +0.002 A 
ATOM     23  C   UNL     1      -2.883  -1.731  25.842  0.00  0.00    +0.002 A 
ATOM     24  C   UNL     1      -3.320  -2.569  24.816  0.00  0.00    +0.000 A 
ENDBRANCH   1  17
ENDBRANCH   7   1
ENDBRANCH  14   7
ENDBRANCH  12  14
TORSDOF 8
ENDMDL
MODEL 2
REMARK VINA RESULT:      -5.9      1.674      3.819
REMARK  Name = 75536690
REMARK  8 active torsions:
REMARK  status: ('A' for Active; 'I' for Inactive)
REMARK    1  A    between atoms: S_1  and  N_7
REMARK    2  A    between atoms: S_1  and  C_17
REMARK    3  A    between atoms: O_3  and  C_11
REMARK    4  A    between atoms: N_6  and  C_10
REMARK    5  A    between atoms: N_6  and  C_15
REMARK    6  A    between atoms: N_7  and  C_14
REMARK    7  A    between atoms: C_12  and  C_14
REMARK    8  A    between atoms: C_15  and  C_16
REMARK                            x       y       z     vdW  Elec       q    Type
REMARK                         _______ _______ _______ _____ _____    ______ ____
ROOT
ATOM      2  O   UNL     1      -1.748  -2.167  24.059  0.00  0.00    -0.371 OA
ATOM     10  C   UNL     1       0.076  -0.664  24.296  0.00  0.00    +0.111 C 
ATOM     11  C   UNL     1      -1.102  -0.144  25.101  0.00  0.00    +0.164 C 
ATOM     12  C   UNL     1      -1.924  -1.415  25.272  0.00  0.00    +0.164 C 
ATOM     13  C   UNL     1      -0.611  -1.639  23.353  0.00  0.00    +0.181 C 
ENDROOT
BRANCH  11   3
ATOM      3  O   UNL     1      -0.713   0.403  26.345  0.00  0.00    -0.388 OA
ATOM     27  H   UNL     1      -1.455   0.311  26.966  0.00  0.00    +0.210 HD
ENDBRANCH  11   3
BRANCH  10   6
ATOM      6  N   UNL     1       0.809   0.378  23.595  0.00  0.00    -0.304 NA
ATOM     25  H   UNL     1       1.377   0.893  24.269  0.00  0.00    +0.123 HD
BRANCH   6  15
ATOM     15  C   UNL     1       1.682  -0.190  22.575  0.00  0.00    +0.136 C 
BRANCH  15  16
ATOM      8  N   UNL     1       3.792  -1.140  23.576  0.00  0.00    -0.347 N 
ATOM      9  N   UNL     1       5.282   0.492  23.362  0.00  0.00    -0.244 NA
ATOM     16  C   UNL     1       3.133  -0.109  22.970  0.00  0.00    +0.049 A 
ATOM     18  C   UNL     1       4.073   0.887  22.848  0.00  0.00    +0.134 A 
ATOM     21  C   UNL     1       5.080  -0.733  23.792  0.00  0.00    +0.196 A 
ATOM     28  H   UNL     1       3.404  -2.041  23.822  0.00  0.00    +0.167 HD
ENDBRANCH  15  16
ENDBRANCH   6  15
ENDBRANCH  10   6
BRANCH  12  14
ATOM     14  C   UNL     1      -3.400  -1.148  25.501  0.00  0.00    +0.140 C 
BRANCH  14   7
ATOM      7  N   UNL     1      -3.612   0.292  25.746  0.00  0.00    -0.187 NA
ATOM     26  H   UNL     1      -3.901   0.544  26.698  0.00  0.00    +0.148 HD
BRANCH   7   1
ATOM      1  S   UNL     1      -4.060   1.318  24.465  0.00  0.00    +0.058 S 
ATOM      4  O   UNL     1      -5.430   1.755  24.655  0.00  0.00    -0.153 OA
ATOM      5  O   UNL     1      -3.655   0.712  23.211  0.00  0.00    -0.153 OA
BRANCH   1  17
ATOM     17  C   UNL     1      -3.003   2.710  24.729  0.00  0.00    +0.105 A 
ATOM     19  C   UNL     1      -1.783   2.797  24.058  0.00  0.00    +0.028 A 
ATOM     20  C   UNL     1      -3.386   3.719  25.613  0.00  0.00    +0.028 A 
ATOM     22  C   UNL     1      -0.948   3.894  24.269  0.00  0.00    +0.002 A 
ATOM     23  C   UNL     1      -2.551   4.815  25.825  0.00  0.00    +0.002 A 
ATOM     24  C   UNL     1      -1.331   4.903  25.152  0.00  0.00    +0.000 A 
ENDBRANCH   1  17
ENDBRANCH   7   1
ENDBRANCH  14   7
ENDBRANCH  12  14
TORSDOF 8
ENDMDL
MODEL 3
REMARK VINA RESULT:      -5.0      2.799      5.065
REMARK  Name = 75536690
REMARK  8 active torsions:
REMARK  status: ('A' for Active; 'I' for Inactive)
REMARK    1  A    between atoms: S_1  and  N_7
REMARK    2  A    between atoms: S_1  and  C_17
REMARK    3  A    between atoms: O_3  and  C_11
REMARK    4  A    between atoms: N_6  and  C_10
REMARK    5  A    between atoms: N_6  and  C_15
REMARK    6  A    between atoms: N_7  and  C_14
REMARK    7  A    between atoms: C_12  and  C_14
REMARK    8  A    between atoms: C_15  and  C_16
REMARK                            x       y       z     vdW  Elec       q    Type
REMARK                         _______ _______ _______ _____ _____    ______ ____
ROOT
ATOM      2  O   UNL     1       0.618  -1.062  23.385  0.00  0.00    -0.371 OA
ATOM     10  C   UNL     1       0.508   1.193  24.119  0.00  0.00    +0.111 C 
ATOM     11  C   UNL     1      -0.537   0.380  24.860  0.00  0.00    +0.164 C 
ATOM     12  C   UNL     1       0.011  -1.030  24.688  0.00  0.00    +0.164 C 
ATOM     13  C   UNL     1       0.807   0.290  22.933  0.00  0.00    +0.181 C 
ENDROOT
BRANCH  11   3
ATOM      3  O   UNL     1      -0.643   0.741  26.223  0.00  0.00    -0.388 OA
ATOM     27  H   UNL     1      -0.006   1.454  26.402  0.00  0.00    +0.210 HD
ENDBRANCH  11   3
BRANCH  10   6
ATOM      6  N   UNL     1       0.046   2.514  23.722  0.00  0.00    -0.304 NA
ATOM     25  H   UNL     1      -0.952   2.468  23.517  0.00  0.00    +0.123 HD
BRANCH   6  15
ATOM     15  C   UNL     1       0.268   3.489  24.782  0.00  0.00    +0.136 C 
BRANCH  15  16
ATOM      8  N   UNL     1      -1.825   3.326  26.178  0.00  0.00    -0.347 N 
ATOM      9  N   UNL     1      -2.851   5.269  25.854  0.00  0.00    -0.244 NA
ATOM     16  C   UNL     1      -1.027   4.033  25.324  0.00  0.00    +0.049 A 
ATOM     18  C   UNL     1      -1.681   5.228  25.139  0.00  0.00    +0.134 A 
ATOM     21  C   UNL     1      -2.909   4.109  26.469  0.00  0.00    +0.196 A 
ATOM     28  H   UNL     1      -1.651   2.395  26.534  0.00  0.00    +0.167 HD
ENDBRANCH  15  16
ENDBRANCH   6  15
ENDBRANCH  10   6
BRANCH  12  14
ATOM     14  C   UNL     1      -1.056  -2.105  24.784  0.00  0.00    +0.140 C 
BRANCH  14   7
ATOM      7  N   UNL     1      -2.210  -1.735  23.942  0.00  0.00    -0.187 NA
ATOM     26  H   UNL     1      -1.987  -1.227  23.078  0.00  0.00    +0.148 HD
BRANCH   7   1
ATOM      1  S   UNL     1      -3.739  -1.497  24.650  0.00  0.00    +0.058 S 
ATOM      4  O   UNL     1      -3.634  -1.663  26.087  0.00  0.00    -0.153 OA
ATOM      5  O   UNL     1      -4.728  -2.245  23.899  0.00  0.00    -0.153 OA
BRANCH   1  17
ATOM     17  C   UNL     1      -4.028   0.216  24.319  0.00  0.00    +0.105 A 
ATOM     19  C   UNL     1      -3.231   0.892  23.395  0.00  0.00    +0.028 A 
ATOM     20  C   UNL     1      -5.049   0.893  24.986  0.00  0.00    +0.028 A 
ATOM     22  C   UNL     1      -3.457   2.244  23.137  0.00  0.00    +0.002 A 
ATOM     23  C   UNL     1      -5.274   2.244  24.729  0.00  0.00    +0.002 A 
ATOM     24  C   UNL     1      -4.478   2.920  23.804  0.00  0.00    +0.000 A 
ENDBRANCH   1  17
ENDBRANCH   7   1
ENDBRANCH  14   7
ENDBRANCH  12  14
TORSDOF 8
ENDMDL
MODEL 4
REMARK VINA RESULT:      -4.6     14.979     17.519
REMARK  Name = 75536690
REMARK  8 active torsions:
REMARK  status: ('A' for Active; 'I' for Inactive)
REMARK    1  A    between atoms: S_1  and  N_7
REMARK    2  A    between atoms: S_1  and  C_17
REMARK    3  A    between atoms: O_3  and  C_11
REMARK    4  A    between atoms: N_6  and  C_10
REMARK    5  A    between atoms: N_6  and  C_15
REMARK    6  A    between atoms: N_7  and  C_14
REMARK    7  A    between atoms: C_12  and  C_14
REMARK    8  A    between atoms: C_15  and  C_16
REMARK                            x       y       z     vdW  Elec       q    Type
REMARK                         _______ _______ _______ _____ _____    ______ ____
ROOT
ATOM      2  O   UNL     1      -3.671 -10.781  14.416  0.00  0.00    -0.371 OA
ATOM     10  C   UNL     1      -5.737 -10.245  15.456  0.00  0.00    +0.111 C 
ATOM     11  C   UNL     1      -5.792  -9.821  14.000  0.00  0.00    +0.164 C 
ATOM     12  C   UNL     1      -4.686 -10.681  13.403  0.00  0.00    +0.164 C 
ATOM     13  C   UNL     1      -4.239 -10.379  15.675  0.00  0.00    +0.181 C 
ENDROOT
BRANCH  11   3
ATOM      3  O   UNL     1      -7.045 -10.085  13.401  0.00  0.00    -0.388 OA
ATOM     27  H   UNL     1      -7.238 -11.033  13.500  0.00  0.00    +0.210 HD
ENDBRANCH  11   3
BRANCH  10   6
ATOM      6  N   UNL     1      -6.358  -9.294  16.364  0.00  0.00    -0.304 NA
ATOM     25  H   UNL     1      -6.527  -8.420  15.864  0.00  0.00    +0.123 HD
BRANCH   6  15
ATOM     15  C   UNL     1      -7.627  -9.802  16.870  0.00  0.00    +0.136 C 
BRANCH  15  16
ATOM      8  N   UNL     1      -9.158  -8.520  15.332  0.00  0.00    -0.347 N 
ATOM      9  N   UNL     1     -10.499  -7.400  16.703  0.00  0.00    -0.244 NA
ATOM     16  C   UNL     1      -8.762  -8.852  16.596  0.00  0.00    +0.049 A 
ATOM     18  C   UNL     1      -9.604  -8.148  17.425  0.00  0.00    +0.134 A 
ATOM     21  C   UNL     1     -10.204  -7.646  15.446  0.00  0.00    +0.196 A 
ATOM     28  H   UNL     1      -8.756  -8.856  14.467  0.00  0.00    +0.167 HD
ENDBRANCH  15  16
ENDBRANCH   6  15
ENDBRANCH  10   6
BRANCH  12  14
ATOM     14  C   UNL     1      -4.089 -10.097  12.135  0.00  0.00    +0.140 C 
BRANCH  14   7
ATOM      7  N   UNL     1      -5.016 -10.312  11.006  0.00  0.00    -0.187 NA
ATOM     26  H   UNL     1      -5.210 -11.293  10.770  0.00  0.00    +0.148 HD
BRANCH   7   1
ATOM      1  S   UNL     1      -5.151  -9.141   9.781  0.00  0.00    +0.058 S 
ATOM      4  O   UNL     1      -4.549  -9.649   8.562  0.00  0.00    -0.153 OA
ATOM      5  O   UNL     1      -4.749  -7.853  10.311  0.00  0.00    -0.153 OA
BRANCH   1  17
ATOM     17  C   UNL     1      -6.901  -9.074   9.535  0.00  0.00    +0.105 A 
ATOM     19  C   UNL     1      -7.700 -10.155   9.911  0.00  0.00    +0.028 A 
ATOM     20  C   UNL     1      -7.483  -7.944   8.962  0.00  0.00    +0.028 A 
ATOM     22  C   UNL     1      -9.079 -10.103   9.715  0.00  0.00    +0.002 A 
ATOM     23  C   UNL     1      -8.862  -7.892   8.765  0.00  0.00    +0.002 A 
ATOM     24  C   UNL     1      -9.661  -8.972   9.142  0.00  0.00    +0.000 A 
ENDBRANCH   1  17
ENDBRANCH   7   1
ENDBRANCH  14   7
ENDBRANCH  12  14
TORSDOF 8
ENDMDL
MODEL 5
REMARK VINA RESULT:      -4.3      2.855      5.949
REMARK  Name = 75536690
REMARK  8 active torsions:
REMARK  status: ('A' for Active; 'I' for Inactive)
REMARK    1  A    between atoms: S_1  and  N_7
REMARK    2  A    between atoms: S_1  and  C_17
REMARK    3  A    between atoms: O_3  and  C_11
REMARK    4  A    between atoms: N_6  and  C_10
REMARK    5  A    between atoms: N_6  and  C_15
REMARK    6  A    between atoms: N_7  and  C_14
REMARK    7  A    between atoms: C_12  and  C_14
REMARK    8  A    between atoms: C_15  and  C_16
REMARK                            x       y       z     vdW  Elec       q    Type
REMARK                         _______ _______ _______ _____ _____    ______ ____
ROOT
ATOM      2  O   UNL     1      -0.320   4.483  25.488  0.00  0.00    -0.371 OA
ATOM     10  C   UNL     1      -2.676   4.269  25.291  0.00  0.00    +0.111 C 
ATOM     11  C   UNL     1      -2.048   2.888  25.248  0.00  0.00    +0.164 C 
ATOM     12  C   UNL     1      -0.698   3.159  25.899  0.00  0.00    +0.164 C 
ATOM     13  C   UNL     1      -1.482   5.152  24.969  0.00  0.00    +0.181 C 
ENDROOT
BRANCH  11   3
ATOM      3  O   UNL     1      -2.796   1.926  25.966  0.00  0.00    -0.388 OA
ATOM     27  H   UNL     1      -2.248   1.130  26.074  0.00  0.00    +0.210 HD
ENDBRANCH  11   3
BRANCH  10   6
ATOM      6  N   UNL     1      -3.775   4.439  24.354  0.00  0.00    -0.304 NA
ATOM     25  H   UNL     1      -3.796   3.640  23.719  0.00  0.00    +0.123 HD
BRANCH   6  15
ATOM     15  C   UNL     1      -5.052   4.526  25.051  0.00  0.00    +0.136 C 
BRANCH  15  16
ATOM      8  N   UNL     1      -5.958   2.822  26.673  0.00  0.00    -0.347 N 
ATOM      9  N   UNL     1      -6.341   1.027  25.423  0.00  0.00    -0.244 NA
ATOM     16  C   UNL     1      -5.593   3.165  25.403  0.00  0.00    +0.049 A 
ATOM     18  C   UNL     1      -5.838   2.042  24.649  0.00  0.00    +0.134 A 
ATOM     21  C   UNL     1      -6.401   1.528  26.636  0.00  0.00    +0.196 A 
ATOM     28  H   UNL     1      -5.911   3.412  27.494  0.00  0.00    +0.167 HD
ENDBRANCH  15  16
ENDBRANCH   6  15
ENDBRANCH  10   6
BRANCH  12  14
ATOM     14  C   UNL     1       0.376   2.168  25.490  0.00  0.00    +0.140 C 
BRANCH  14   7
ATOM      7  N   UNL     1      -0.222   0.827  25.330  0.00  0.00    -0.187 NA
ATOM     26  H   UNL     1      -0.069   0.175  26.109  0.00  0.00    +0.148 HD
BRANCH   7   1
ATOM      1  S   UNL     1      -0.474   0.187  23.775  0.00  0.00    +0.058 S 
ATOM      4  O   UNL     1       0.673  -0.617  23.394  0.00  0.00    -0.153 OA
ATOM      5  O   UNL     1      -0.947   1.241  22.900  0.00  0.00    -0.153 OA
BRANCH   1  17
ATOM     17  C   UNL     1      -1.836  -0.906  24.049  0.00  0.00    +0.105 A 
ATOM     19  C   UNL     1      -1.610  -2.197  24.527  0.00  0.00    +0.028 A 
ATOM     20  C   UNL     1      -3.137  -0.480  23.784  0.00  0.00    +0.028 A 
ATOM     22  C   UNL     1      -2.684  -3.060  24.741  0.00  0.00    +0.002 A 
ATOM     23  C   UNL     1      -4.212  -1.342  23.996  0.00  0.00    +0.002 A 
ATOM     24  C   UNL     1      -3.985  -2.633  24.475  0.00  0.00    +0.000 A 
ENDBRANCH   1  17
ENDBRANCH   7   1
ENDBRANCH  14   7
ENDBRANCH  12  14
TORSDOF 8
ENDMDL
MODEL 6
REMARK VINA RESULT:      -4.0      2.930      5.681
REMARK  Name = 75536690
REMARK  8 active torsions:
REMARK  status: ('A' for Active; 'I' for Inactive)
REMARK    1  A    between atoms: S_1  and  N_7
REMARK    2  A    between atoms: S_1  and  C_17
REMARK    3  A    between atoms: O_3  and  C_11
REMARK    4  A    between atoms: N_6  and  C_10
REMARK    5  A    between atoms: N_6  and  C_15
REMARK    6  A    between atoms: N_7  and  C_14
REMARK    7  A    between atoms: C_12  and  C_14
REMARK    8  A    between atoms: C_15  and  C_16
REMARK                            x       y       z     vdW  Elec       q    Type
REMARK                         _______ _______ _______ _____ _____    ______ ____
ROOT
ATOM      2  O   UNL     1       0.156   3.857  23.503  0.00  0.00    -0.371 OA
ATOM     10  C   UNL     1      -1.185   4.557  25.334  0.00  0.00    +0.111 C 
ATOM     11  C   UNL     1      -0.890   3.075  25.474  0.00  0.00    +0.164 C 
ATOM     12  C   UNL     1       0.342   2.935  24.590  0.00  0.00    +0.164 C 
ATOM     13  C   UNL     1      -0.882   4.786  23.861  0.00  0.00    +0.181 C 
ENDROOT
BRANCH  11   3
ATOM      3  O   UNL     1      -0.626   2.696  26.810  0.00  0.00    -0.388 OA
ATOM     27  H   UNL     1      -1.302   2.053  27.086  0.00  0.00    +0.210 HD
ENDBRANCH  11   3
BRANCH  10   6
ATOM      6  N   UNL     1      -2.546   4.919  25.693  0.00  0.00    -0.304 NA
ATOM     25  H   UNL     1      -3.095   5.034  24.840  0.00  0.00    +0.123 HD
BRANCH   6  15
ATOM     15  C   UNL     1      -3.163   3.887  26.518  0.00  0.00    +0.136 C 
BRANCH  15  16
ATOM      8  N   UNL     1      -5.492   2.929  26.395  0.00  0.00    -0.347 N 
ATOM      9  N   UNL     1      -5.653   2.148  24.323  0.00  0.00    -0.244 NA
ATOM     16  C   UNL     1      -4.292   3.195  25.801  0.00  0.00    +0.049 A 
ATOM     18  C   UNL     1      -4.415   2.704  24.522  0.00  0.00    +0.134 A 
ATOM     21  C   UNL     1      -6.278   2.300  25.469  0.00  0.00    +0.196 A 
ATOM     28  H   UNL     1      -5.756   3.154  27.345  0.00  0.00    +0.167 HD
ENDBRANCH  15  16
ENDBRANCH   6  15
ENDBRANCH  10   6
BRANCH  12  14
ATOM     14  C   UNL     1       0.535   1.532  24.047  0.00  0.00    +0.140 C 
BRANCH  14   7
ATOM      7  N   UNL     1      -0.719   0.766  24.194  0.00  0.00    -0.187 NA
ATOM     26  H   UNL     1      -1.585   1.309  24.103  0.00  0.00    +0.148 HD
BRANCH   7   1
ATOM      1  S   UNL     1      -0.746  -0.651  25.133  0.00  0.00    +0.058 S 
ATOM      4  O   UNL     1      -0.870  -0.297  26.534  0.00  0.00    -0.153 OA
ATOM      5  O   UNL     1       0.321  -1.530  24.694  0.00  0.00    -0.153 OA
BRANCH   1  17
ATOM     17  C   UNL     1      -2.268  -1.394  24.624  0.00  0.00    +0.105 A 
ATOM     19  C   UNL     1      -3.369  -0.592  24.325  0.00  0.00    +0.028 A 
ATOM     20  C   UNL     1      -2.368  -2.782  24.524  0.00  0.00    +0.028 A 
ATOM     22  C   UNL     1      -4.570  -1.178  23.927  0.00  0.00    +0.002 A 
ATOM     23  C   UNL     1      -3.569  -3.368  24.127  0.00  0.00    +0.002 A 
ATOM     24  C   UNL     1      -4.671  -2.566  23.827  0.00  0.00    +0.000 A 
ENDBRANCH   1  17
ENDBRANCH   7   1
ENDBRANCH  14   7
ENDBRANCH  12  14
TORSDOF 8
ENDMDL
MODEL 7
REMARK VINA RESULT:      -3.8      2.748      3.622
REMARK  Name = 75536690
REMARK  8 active torsions:
REMARK  status: ('A' for Active; 'I' for Inactive)
REMARK    1  A    between atoms: S_1  and  N_7
REMARK    2  A    between atoms: S_1  and  C_17
REMARK    3  A    between atoms: O_3  and  C_11
REMARK    4  A    between atoms: N_6  and  C_10
REMARK    5  A    between atoms: N_6  and  C_15
REMARK    6  A    between atoms: N_7  and  C_14
REMARK    7  A    between atoms: C_12  and  C_14
REMARK    8  A    between atoms: C_15  and  C_16
REMARK                            x       y       z     vdW  Elec       q    Type
REMARK                         _______ _______ _______ _____ _____    ______ ____
ROOT
ATOM      2  O   UNL     1      -1.746   4.920  24.585  0.00  0.00    -0.371 OA
ATOM     10  C   UNL     1      -0.275   3.060  24.708  0.00  0.00    +0.111 C 
ATOM     11  C   UNL     1      -1.695   2.557  24.523  0.00  0.00    +0.164 C 
ATOM     12  C   UNL     1      -2.372   3.793  23.948  0.00  0.00    +0.164 C 
ATOM     13  C   UNL     1      -0.520   4.479  25.194  0.00  0.00    +0.181 C 
ENDROOT
BRANCH  11   3
ATOM      3  O   UNL     1      -1.772   1.455  23.640  0.00  0.00    -0.388 OA
ATOM     27  H   UNL     1      -2.355   1.695  22.900  0.00  0.00    +0.210 HD
ENDBRANCH  11   3
BRANCH  10   6
ATOM      6  N   UNL     1       0.507   2.269  25.644  0.00  0.00    -0.304 NA
ATOM     25  H   UNL     1       1.438   2.680  25.728  0.00  0.00    +0.123 HD
BRANCH   6  15
ATOM     15  C   UNL     1      -0.119   2.241  26.960  0.00  0.00    +0.136 C 
BRANCH  15  16
ATOM      8  N   UNL     1       2.171   2.820  27.842  0.00  0.00    -0.347 N 
ATOM      9  N   UNL     1       2.014   2.486  30.031  0.00  0.00    -0.244 NA
ATOM     16  C   UNL     1       0.890   2.402  28.066  0.00  0.00    +0.049 A 
ATOM     18  C   UNL     1       0.818   2.202  29.424  0.00  0.00    +0.134 A 
ATOM     21  C   UNL     1       2.808   2.855  29.051  0.00  0.00    +0.196 A 
ATOM     28  H   UNL     1       2.578   3.060  26.948  0.00  0.00    +0.167 HD
ENDBRANCH  15  16
ENDBRANCH   6  15
ENDBRANCH  10   6
BRANCH  12  14
ATOM     14  C   UNL     1      -3.869   3.829  24.197  0.00  0.00    +0.140 C 
BRANCH  14   7
ATOM      7  N   UNL     1      -4.461   2.523  23.847  0.00  0.00    -0.187 NA
ATOM     26  H   UNL     1      -4.682   2.387  22.853  0.00  0.00    +0.148 HD
BRANCH   7   1
ATOM      1  S   UNL     1      -5.357   1.656  25.003  0.00  0.00    +0.058 S 
ATOM      4  O   UNL     1      -6.714   1.476  24.524  0.00  0.00    -0.153 OA
ATOM      5  O   UNL     1      -5.116   2.228  26.314  0.00  0.00    -0.153 OA
BRANCH   1  17
ATOM     17  C   UNL     1      -4.557   0.079  24.974  0.00  0.00    +0.105 A 
ATOM     19  C   UNL     1      -3.772  -0.325  26.055  0.00  0.00    +0.028 A 
ATOM     20  C   UNL     1      -4.705  -0.759  23.869  0.00  0.00    +0.028 A 
ATOM     22  C   UNL     1      -3.138  -1.566  26.030  0.00  0.00    +0.002 A 
ATOM     23  C   UNL     1      -4.071  -2.000  23.844  0.00  0.00    +0.002 A 
ATOM     24  C   UNL     1      -3.287  -2.404  24.925  0.00  0.00    +0.000 A 
ENDBRANCH   1  17
ENDBRANCH   7   1
ENDBRANCH  14   7
ENDBRANCH  12  14
TORSDOF 8
ENDMDL
MODEL 8
REMARK VINA RESULT:      -3.7      1.310      1.613
REMARK  Name = 75536690
REMARK  8 active torsions:
REMARK  status: ('A' for Active; 'I' for Inactive)
REMARK    1  A    between atoms: S_1  and  N_7
REMARK    2  A    between atoms: S_1  and  C_17
REMARK    3  A    between atoms: O_3  and  C_11
REMARK    4  A    between atoms: N_6  and  C_10
REMARK    5  A    between atoms: N_6  and  C_15
REMARK    6  A    between atoms: N_7  and  C_14
REMARK    7  A    between atoms: C_12  and  C_14
REMARK    8  A    between atoms: C_15  and  C_16
REMARK                            x       y       z     vdW  Elec       q    Type
REMARK                         _______ _______ _______ _____ _____    ______ ____
ROOT
ATOM      2  O   UNL     1      -1.384   2.297  26.428  0.00  0.00    -0.371 OA
ATOM     10  C   UNL     1       0.280   1.656  24.860  0.00  0.00    +0.111 C 
ATOM     11  C   UNL     1      -0.507   2.825  24.296  0.00  0.00    +0.164 C 
ATOM     12  C   UNL     1      -1.108   3.414  25.566  0.00  0.00    +0.164 C 
ATOM     13  C   UNL     1      -0.662   1.153  25.941  0.00  0.00    +0.181 C 
ENDROOT
BRANCH  11   3
ATOM      3  O   UNL     1       0.311   3.758  23.619  0.00  0.00    -0.388 OA
ATOM     27  H   UNL     1       1.113   3.299  23.315  0.00  0.00    +0.210 HD
ENDBRANCH  11   3
BRANCH  10   6
ATOM      6  N   UNL     1       0.602   0.639  23.872  0.00  0.00    -0.304 NA
ATOM     25  H   UNL     1      -0.239   0.419  23.337  0.00  0.00    +0.123 HD
BRANCH   6  15
ATOM     15  C   UNL     1       1.638   1.104  22.958  0.00  0.00    +0.136 C 
BRANCH  15  16
ATOM      8  N   UNL     1       4.110   1.099  23.456  0.00  0.00    -0.347 N 
ATOM      9  N   UNL     1       4.653  -1.054  23.508  0.00  0.00    -0.244 NA
ATOM     16  C   UNL     1       2.954   0.415  23.205  0.00  0.00    +0.049 A 
ATOM     18  C   UNL     1       3.315  -0.911  23.242  0.00  0.00    +0.134 A 
ATOM     21  C   UNL     1       5.103   0.175  23.632  0.00  0.00    +0.196 A 
ATOM     28  H   UNL     1       4.216   2.104  23.505  0.00  0.00    +0.167 HD
ENDBRANCH  15  16
ENDBRANCH   6  15
ENDBRANCH  10   6
BRANCH  12  14
ATOM     14  C   UNL     1      -2.383   4.199  25.319  0.00  0.00    +0.140 C 
BRANCH  14   7
ATOM      7  N   UNL     1      -3.463   3.674  26.178  0.00  0.00    -0.187 NA
ATOM     26  H   UNL     1      -3.171   3.331  27.100  0.00  0.00    +0.148 HD
BRANCH   7   1
ATOM      1  S   UNL     1      -4.867   3.020  25.476  0.00  0.00    +0.058 S 
ATOM      4  O   UNL     1      -5.258   3.829  24.338  0.00  0.00    -0.153 OA
ATOM      5  O   UNL     1      -5.824   2.723  26.524  0.00  0.00    -0.153 OA
BRANCH   1  17
ATOM     17  C   UNL     1      -4.277   1.469  24.864  0.00  0.00    +0.105 A 
ATOM     19  C   UNL     1      -3.593   1.415  23.649  0.00  0.00    +0.028 A 
ATOM     20  C   UNL     1      -4.498   0.301  25.592  0.00  0.00    +0.028 A 
ATOM     22  C   UNL     1      -3.131   0.192  23.164  0.00  0.00    +0.002 A 
ATOM     23  C   UNL     1      -4.037  -0.922  25.108  0.00  0.00    +0.002 A 
ATOM     24  C   UNL     1      -3.352  -0.977  23.893  0.00  0.00    +0.000 A 
ENDBRANCH   1  17
ENDBRANCH   7   1
ENDBRANCH  14   7
ENDBRANCH  12  14
TORSDOF 8
ENDMDL
MODEL 9
REMARK VINA RESULT:      -3.4      2.164      2.764
REMARK  Name = 75536690
REMARK  8 active torsions:
REMARK  status: ('A' for Active; 'I' for Inactive)
REMARK    1  A    between atoms: S_1  and  N_7
REMARK    2  A    between atoms: S_1  and  C_17
REMARK    3  A    between atoms: O_3  and  C_11
REMARK    4  A    between atoms: N_6  and  C_10
REMARK    5  A    between atoms: N_6  and  C_15
REMARK    6  A    between atoms: N_7  and  C_14
REMARK    7  A    between atoms: C_12  and  C_14
REMARK    8  A    between atoms: C_15  and  C_16
REMARK                            x       y       z     vdW  Elec       q    Type
REMARK                         _______ _______ _______ _____ _____    ______ ____
ROOT
ATOM      2  O   UNL     1      -1.952   5.184  25.043  0.00  0.00    -0.371 OA
ATOM     10  C   UNL     1      -0.466   3.525  24.219  0.00  0.00    +0.111 C 
ATOM     11  C   UNL     1      -1.882   2.980  24.189  0.00  0.00    +0.164 C 
ATOM     12  C   UNL     1      -2.693   4.268  24.219  0.00  0.00    +0.164 C 
ATOM     13  C   UNL     1      -0.611   4.686  25.190  0.00  0.00    +0.181 C 
ENDROOT
BRANCH  11   3
ATOM      3  O   UNL     1      -2.148   2.216  23.029  0.00  0.00    -0.388 OA
ATOM     27  H   UNL     1      -1.767   2.680  22.263  0.00  0.00    +0.210 HD
ENDBRANCH  11   3
BRANCH  10   6
ATOM      6  N   UNL     1       0.526   2.551  24.646  0.00  0.00    -0.304 NA
ATOM     25  H   UNL     1       0.261   2.189  25.562  0.00  0.00    +0.123 HD
BRANCH   6  15
ATOM     15  C   UNL     1       0.612   1.442  23.704  0.00  0.00    +0.136 C 
BRANCH  15  16
ATOM      8  N   UNL     1      -0.322   0.062  25.596  0.00  0.00    -0.347 N 
ATOM      9  N   UNL     1      -0.352  -2.010  24.799  0.00  0.00    -0.244 NA
ATOM     16  C   UNL     1       0.171   0.143  24.325  0.00  0.00    +0.049 A 
ATOM     18  C   UNL     1       0.142  -1.148  23.853  0.00  0.00    +0.134 A 
ATOM     21  C   UNL     1      -0.623  -1.251  25.836  0.00  0.00    +0.196 A 
ATOM     28  H   UNL     1      -0.444   0.828  26.245  0.00  0.00    +0.167 HD
ENDBRANCH  15  16
ENDBRANCH   6  15
ENDBRANCH  10   6
BRANCH  12  14
ATOM     14  C   UNL     1      -4.090   4.085  24.784  0.00  0.00    +0.140 C 
BRANCH  14   7
ATOM      7  N   UNL     1      -4.705   2.875  24.203  0.00  0.00    -0.187 NA
ATOM     26  H   UNL     1      -4.871   2.903  23.190  0.00  0.00    +0.148 HD
BRANCH   7   1
ATOM      1  S   UNL     1      -5.699   1.881  25.160  0.00  0.00    +0.058 S 
ATOM      4  O   UNL     1      -6.989   1.728  24.516  0.00  0.00    -0.153 OA
ATOM      5  O   UNL     1      -5.620   2.321  26.539  0.00  0.00    -0.153 OA
BRANCH   1  17
ATOM     17  C   UNL     1      -4.856   0.329  25.065  0.00  0.00    +0.105 A 
ATOM     19  C   UNL     1      -4.236  -0.197  26.198  0.00  0.00    +0.028 A 
ATOM     20  C   UNL     1      -4.808  -0.366  23.857  0.00  0.00    +0.028 A 
ATOM     22  C   UNL     1      -3.569  -1.420  26.123  0.00  0.00    +0.002 A 
ATOM     23  C   UNL     1      -4.141  -1.588  23.781  0.00  0.00    +0.002 A 
ATOM     24  C   UNL     1      -3.520  -2.115  24.915  0.00  0.00    +0.000 A 
ENDBRANCH   1  17
ENDBRANCH   7   1
ENDBRANCH  14   7
ENDBRANCH  12  14
TORSDOF 8
ENDMDL
