MODEL 1
REMARK VINA RESULT:      -2.8      0.000      0.000
REMARK  Name = 11866295
REMARK  12 active torsions:
REMARK  status: ('A' for Active; 'I' for Inactive)
REMARK    1  A    between atoms: O_1  and  C_10
REMARK    2  A    between atoms: O_2  and  C_11
REMARK    3  A    between atoms: N_6  and  C_12
REMARK    4  A    between atoms: N_7  and  C_16
REMARK    5  A    between atoms: N_8  and  C_24
REMARK    6  A    between atoms: C_14  and  C_17
REMARK    7  A    between atoms: C_16  and  C_18
REMARK    8  A    between atoms: C_16  and  C_23
REMARK    9  A    between atoms: C_18  and  C_19
REMARK   10  A    between atoms: C_19  and  C_21
REMARK   11  A    between atoms: C_19  and  C_22
REMARK   12  A    between atoms: C_29  and  C_30
REMARK                            x       y       z     vdW  Elec       q    Type
REMARK                         _______ _______ _______ _____ _____    ______ ____
ROOT
ATOM     10  C   UNL     1      14.867 -10.680  28.851  0.00  0.00    +0.167 C 
ATOM     11  C   UNL     1      16.079 -10.068  28.139  0.00  0.00    +0.149 C 
ATOM     12  C   UNL     1      14.941 -10.472  30.376  0.00  0.00    +0.129 C 
ATOM     13  C   UNL     1      16.249  -8.575  28.465  0.00  0.00    +0.074 C 
ATOM     14  C   UNL     1      15.940  -8.238  29.897  0.00  0.00    +0.015 C 
ATOM     15  C   UNL     1      15.363  -9.080  30.765  0.00  0.00    +0.006 C 
ENDROOT
BRANCH  12   6
ATOM      4  O   UNL     1      12.655  -8.756  30.564  0.00  0.00    -0.252 OA
ATOM      6  N   UNL     1      13.686 -10.776  31.016  0.00  0.00    -0.290 N 
ATOM      8  N   UNL     1      11.534 -10.445  31.747  0.00  0.00    -0.269 N 
ATOM     20  C   UNL     1      12.613  -9.878  31.065  0.00  0.00    +0.304 C 
ATOM     31  H   UNL     1      13.590 -11.664  31.502  0.00  0.00    +0.151 HD
ATOM     35  H   UNL     1      11.663 -11.390  32.101  0.00  0.00    +0.156 HD
BRANCH   8  24
ATOM     24  C   UNL     1      10.270  -9.865  32.010  0.00  0.00    +0.035 A 
ATOM     25  C   UNL     1      10.192  -8.598  32.587  0.00  0.00    +0.023 A 
ATOM     26  C   UNL     1       9.104 -10.561  31.693  0.00  0.00    +0.023 A 
ATOM     27  C   UNL     1       8.946  -8.026  32.847  0.00  0.00    +0.005 A 
ATOM     28  C   UNL     1       7.858  -9.989  31.952  0.00  0.00    +0.005 A 
ATOM     29  C   UNL     1       7.780  -8.721  32.529  0.00  0.00    -0.050 A 
ATOM     30  C   UNL     1       6.448  -8.109  32.806  0.00  0.00    +0.044 C 
ENDBRANCH   8  24
ENDBRANCH  12   6
BRANCH  14  17
ATOM      3  O   UNL     1      17.405  -6.716  30.908  0.00  0.00    -0.271 OA
ATOM      7  N   UNL     1      15.314  -5.967  30.197  0.00  0.00    -0.300 N 
ATOM     17  C   UNL     1      16.311  -6.908  30.388  0.00  0.00    +0.241 C 
ATOM     32  H   UNL     1      14.473  -6.229  29.689  0.00  0.00    +0.150 HD
BRANCH   7  16
ATOM     16  C   UNL     1      15.447  -4.591  30.600  0.00  0.00    +0.159 C 
BRANCH  16  23
ATOM      5  O   UNL     1      15.050  -3.818  32.871  0.00  0.00    -0.274 OA
ATOM      9  N   UNL     1      13.382  -4.978  31.799  0.00  0.00    -0.328 N 
ATOM     23  C   UNL     1      14.642  -4.423  31.882  0.00  0.00    +0.231 C 
ATOM     36  H   UNL     1      12.737  -4.923  32.580  0.00  0.00    +0.145 HD
ATOM     37  H   UNL     1      13.050  -5.455  30.968  0.00  0.00    +0.145 HD
ENDBRANCH  16  23
BRANCH  16  18
ATOM     18  C   UNL     1      16.909  -4.192  30.835  0.00  0.00    +0.034 C 
BRANCH  18  19
ATOM     19  C   UNL     1      17.314  -2.833  30.226  0.00  0.00    -0.015 C 
ATOM     21  C   UNL     1      17.350  -2.868  28.698  0.00  0.00    +0.007 C 
ATOM     22  C   UNL     1      16.340  -1.748  30.695  0.00  0.00    +0.007 C 
ENDBRANCH  18  19
ENDBRANCH  16  18
ENDBRANCH   7  16
ENDBRANCH  14  17
BRANCH  10   1
ATOM      1  O   UNL     1      13.679 -10.071  28.341  0.00  0.00    -0.387 OA
ATOM     33  H   UNL     1      13.649 -10.244  27.385  0.00  0.00    +0.210 HD
ENDBRANCH  10   1
BRANCH  11   2
ATOM      2  O   UNL     1      17.265 -10.781  28.487  0.00  0.00    -0.389 OA
ATOM     34  H   UNL     1      17.816 -10.844  27.688  0.00  0.00    +0.210 HD
ENDBRANCH  11   2
TORSDOF 9
ENDMDL
MODEL 2
REMARK VINA RESULT:      -0.7     16.199     19.400
REMARK  Name = 11866295
REMARK  12 active torsions:
REMARK  status: ('A' for Active; 'I' for Inactive)
REMARK    1  A    between atoms: O_1  and  C_10
REMARK    2  A    between atoms: O_2  and  C_11
REMARK    3  A    between atoms: N_6  and  C_12
REMARK    4  A    between atoms: N_7  and  C_16
REMARK    5  A    between atoms: N_8  and  C_24
REMARK    6  A    between atoms: C_14  and  C_17
REMARK    7  A    between atoms: C_16  and  C_18
REMARK    8  A    between atoms: C_16  and  C_23
REMARK    9  A    between atoms: C_18  and  C_19
REMARK   10  A    between atoms: C_19  and  C_21
REMARK   11  A    between atoms: C_19  and  C_22
REMARK   12  A    between atoms: C_29  and  C_30
REMARK                            x       y       z     vdW  Elec       q    Type
REMARK                         _______ _______ _______ _____ _____    ______ ____
ROOT
ATOM     10  C   UNL     1      -2.173  -2.254  24.844  0.00  0.00    +0.167 C 
ATOM     11  C   UNL     1      -3.561  -1.826  25.336  0.00  0.00    +0.149 C 
ATOM     12  C   UNL     1      -1.874  -1.697  23.439  0.00  0.00    +0.129 C 
ATOM     13  C   UNL     1      -3.734  -0.298  25.321  0.00  0.00    +0.074 C 
ATOM     14  C   UNL     1      -3.096   0.363  24.132  0.00  0.00    +0.015 C 
ATOM     15  C   UNL     1      -2.268  -0.254  23.276  0.00  0.00    +0.006 C 
ENDROOT
BRANCH  12   6
ATOM      4  O   UNL     1       0.276   0.018  24.238  0.00  0.00    -0.252 OA
ATOM      6  N   UNL     1      -0.482  -1.842  23.094  0.00  0.00    -0.290 N 
ATOM      8  N   UNL     1       1.761  -1.348  23.039  0.00  0.00    -0.269 N 
ATOM     20  C   UNL     1       0.512  -0.957  23.527  0.00  0.00    +0.304 C 
ATOM     31  H   UNL     1      -0.212  -2.594  22.464  0.00  0.00    +0.151 HD
ATOM     35  H   UNL     1       1.783  -2.186  22.462  0.00  0.00    +0.156 HD
BRANCH   8  24
ATOM     24  C   UNL     1       3.012  -0.721  23.249  0.00  0.00    +0.035 A 
ATOM     25  C   UNL     1       3.231   0.572  22.777  0.00  0.00    +0.023 A 
ATOM     26  C   UNL     1       4.026  -1.398  23.928  0.00  0.00    +0.023 A 
ATOM     27  C   UNL     1       4.464   1.191  22.984  0.00  0.00    +0.005 A 
ATOM     28  C   UNL     1       5.259  -0.780  24.134  0.00  0.00    +0.005 A 
ATOM     29  C   UNL     1       5.478   0.515  23.663  0.00  0.00    -0.050 A 
ATOM     30  C   UNL     1       6.796   1.176  23.885  0.00  0.00    +0.044 C 
ENDBRANCH   8  24
ENDBRANCH  12   6
BRANCH  14  17
ATOM      3  O   UNL     1      -3.200   2.266  22.771  0.00  0.00    -0.271 OA
ATOM      7  N   UNL     1      -3.943   2.414  24.977  0.00  0.00    -0.300 N 
ATOM     17  C   UNL     1      -3.412   1.771  23.872  0.00  0.00    +0.241 C 
ATOM     32  H   UNL     1      -4.139   1.878  25.818  0.00  0.00    +0.150 HD
BRANCH   7  16
ATOM     16  C   UNL     1      -4.330   3.801  24.965  0.00  0.00    +0.159 C 
BRANCH  16  23
ATOM      5  O   UNL     1      -6.320   4.924  25.796  0.00  0.00    -0.274 OA
ATOM      9  N   UNL     1      -5.983   2.725  26.364  0.00  0.00    -0.328 N 
ATOM     23  C   UNL     1      -5.631   3.908  25.750  0.00  0.00    +0.231 C 
ATOM     36  H   UNL     1      -6.836   2.655  26.909  0.00  0.00    +0.145 HD
ATOM     37  H   UNL     1      -5.416   1.885  26.299  0.00  0.00    +0.145 HD
ENDBRANCH  16  23
BRANCH  16  18
ATOM     18  C   UNL     1      -3.259   4.708  25.585  0.00  0.00    +0.034 C 
BRANCH  18  19
ATOM     19  C   UNL     1      -1.817   4.415  25.122  0.00  0.00    -0.015 C 
ATOM     21  C   UNL     1      -0.987   5.689  24.958  0.00  0.00    +0.007 C 
ATOM     22  C   UNL     1      -1.134   3.480  26.125  0.00  0.00    +0.007 C 
ENDBRANCH  18  19
ENDBRANCH  16  18
ENDBRANCH   7  16
ENDBRANCH  14  17
BRANCH  10   1
ATOM      1  O   UNL     1      -1.191  -1.779  25.767  0.00  0.00    -0.387 OA
ATOM     33  H   UNL     1      -0.766  -2.557  26.167  0.00  0.00    +0.210 HD
ENDBRANCH  10   1
BRANCH  11   2
ATOM      2  O   UNL     1      -4.575  -2.440  24.541  0.00  0.00    -0.389 OA
ATOM     34  H   UNL     1      -5.342  -1.843  24.532  0.00  0.00    +0.210 HD
ENDBRANCH  11   2
TORSDOF 9
ENDMDL
