MODEL 1
REMARK VINA RESULT:       1.1      0.000      0.000
REMARK  Name = 7144272
REMARK  5 active torsions:
REMARK  status: ('A' for Active; 'I' for Inactive)
REMARK    1  A    between atoms: O_4  and  C_29
REMARK    2  A    between atoms: N_5  and  C_14
REMARK    3  A    between atoms: C_14  and  C_19
REMARK    4  A    between atoms: C_15  and  C_20
REMARK    5  A    between atoms: C_24  and  C_29
REMARK                            x       y       z     vdW  Elec       q    Type
REMARK                         _______ _______ _______ _____ _____    ______ ____
ROOT
ATOM      2  O   UNL     1      -3.878   5.015  25.693  0.00  0.00    -0.268 OA
ATOM      5  N   UNL     1      -0.007   2.287  24.134  0.00  0.00    -0.294 NA
ATOM      6  N   UNL     1      -2.664   3.013  25.726  0.00  0.00    -0.311 N 
ATOM      7  C   UNL     1      -0.233   2.923  26.543  0.00  0.00    +0.024 C 
ATOM      8  C   UNL     1      -1.326   0.887  25.735  0.00  0.00    +0.051 C 
ATOM      9  C   UNL     1      -0.573   1.489  26.918  0.00  0.00    +0.017 C 
ATOM     10  C   UNL     1       0.640   2.950  25.272  0.00  0.00    +0.090 C 
ATOM     11  C   UNL     1      -0.419   0.919  24.480  0.00  0.00    +0.094 C 
ATOM     12  C   UNL     1      -1.539   3.702  26.374  0.00  0.00    +0.130 C 
ATOM     13  C   UNL     1      -2.640   1.626  25.476  0.00  0.00    +0.034 A 
ATOM     15  C   UNL     1      -3.753   1.005  25.007  0.00  0.00    +0.002 A 
ATOM     16  C   UNL     1      -3.799   3.805  25.479  0.00  0.00    +0.252 A 
ATOM     17  C   UNL     1      -4.942   1.791  24.735  0.00  0.00    +0.015 A 
ATOM     18  C   UNL     1      -4.986   3.108  24.936  0.00  0.00    +0.071 A 
ENDROOT
BRANCH  15  20
ATOM      1 CL   UNL     1      -3.869  -4.885  23.963  0.00  0.00    -0.084 Cl
ATOM     20  C   UNL     1      -3.782  -0.451  24.748  0.00  0.00    -0.016 A 
ATOM     22  C   UNL     1      -4.273  -0.928  23.537  0.00  0.00    +0.010 A 
ATOM     23  C   UNL     1      -3.319  -1.334  25.719  0.00  0.00    +0.010 A 
ATOM     26  C   UNL     1      -4.300  -2.302  23.293  0.00  0.00    +0.020 A 
ATOM     27  C   UNL     1      -3.346  -2.708  25.476  0.00  0.00    +0.020 A 
ATOM     28  C   UNL     1      -3.836  -3.191  24.262  0.00  0.00    +0.041 A 
ENDBRANCH  15  20
BRANCH   5  14
ATOM     14  C   UNL     1       0.865   2.290  22.962  0.00  0.00    +0.158 C 
BRANCH  14  19
ATOM      3  O   UNL     1       3.076   1.396  23.254  0.00  0.00    -0.461 OA
ATOM     19  C   UNL     1       1.794   1.107  22.976  0.00  0.00    +0.119 A 
ATOM     21  C   UNL     1       1.587  -0.211  22.760  0.00  0.00    +0.046 A 
ATOM     24  C   UNL     1       3.730   0.205  23.215  0.00  0.00    +0.131 A 
ATOM     25  C   UNL     1       2.857  -0.814  22.915  0.00  0.00    +0.047 A 
BRANCH  24  29
ATOM     29  C   UNL     1       5.173   0.247  23.490  0.00  0.00    +0.230 C 
BRANCH  29   4
ATOM      4  O   UNL     1       5.440  -0.625  24.590  0.00  0.00    -0.387 OA
ATOM     30  H   UNL     1       6.215  -1.164  24.355  0.00  0.00    +0.210 HD
ENDBRANCH  29   4
ENDBRANCH  24  29
ENDBRANCH  14  19
ENDBRANCH   5  14
TORSDOF 5
ENDMDL
MODEL 2
REMARK VINA RESULT:       1.2      2.622      5.372
REMARK  Name = 7144272
REMARK  5 active torsions:
REMARK  status: ('A' for Active; 'I' for Inactive)
REMARK    1  A    between atoms: O_4  and  C_29
REMARK    2  A    between atoms: N_5  and  C_14
REMARK    3  A    between atoms: C_14  and  C_19
REMARK    4  A    between atoms: C_15  and  C_20
REMARK    5  A    between atoms: C_24  and  C_29
REMARK                            x       y       z     vdW  Elec       q    Type
REMARK                         _______ _______ _______ _____ _____    ______ ____
ROOT
ATOM      2  O   UNL     1      -3.160   4.529  27.458  0.00  0.00    -0.268 OA
ATOM      5  N   UNL     1      -4.387   0.797  24.387  0.00  0.00    -0.294 NA
ATOM      6  N   UNL     1      -2.857   3.381  25.439  0.00  0.00    -0.311 N 
ATOM      7  C   UNL     1      -4.739   3.179  23.707  0.00  0.00    +0.024 C 
ATOM      8  C   UNL     1      -2.572   2.121  23.284  0.00  0.00    +0.051 C 
ATOM      9  C   UNL     1      -3.599   3.091  22.705  0.00  0.00    +0.017 C 
ATOM     10  C   UNL     1      -5.367   1.789  23.927  0.00  0.00    +0.090 C 
ATOM     11  C   UNL     1      -3.231   0.734  23.482  0.00  0.00    +0.094 C 
ATOM     12  C   UNL     1      -4.199   3.790  25.002  0.00  0.00    +0.130 C 
ATOM     13  C   UNL     1      -1.996   2.643  24.602  0.00  0.00    +0.034 A 
ATOM     15  C   UNL     1      -0.716   2.408  24.989  0.00  0.00    +0.002 A 
ATOM     16  C   UNL     1      -2.454   3.868  26.695  0.00  0.00    +0.252 A 
ATOM     17  C   UNL     1      -0.265   2.891  26.280  0.00  0.00    +0.015 A 
ATOM     18  C   UNL     1      -1.064   3.568  27.105  0.00  0.00    +0.071 A 
ENDROOT
BRANCH  15  20
ATOM      1 CL   UNL     1       3.111  -0.631  21.537  0.00  0.00    -0.084 Cl
ATOM     20  C   UNL     1       0.230   1.657  24.135  0.00  0.00    -0.016 A 
ATOM     22  C   UNL     1      -0.163   0.450  23.565  0.00  0.00    +0.010 A 
ATOM     23  C   UNL     1       1.507   2.161  23.909  0.00  0.00    +0.010 A 
ATOM     26  C   UNL     1       0.729  -0.260  22.760  0.00  0.00    +0.020 A 
ATOM     27  C   UNL     1       2.400   1.452  23.104  0.00  0.00    +0.020 A 
ATOM     28  C   UNL     1       2.010   0.242  22.529  0.00  0.00    +0.041 A 
ENDBRANCH  15  20
BRANCH   5  14
ATOM     14  C   UNL     1      -5.005  -0.517  24.539  0.00  0.00    +0.158 C 
BRANCH  14  19
ATOM      3  O   UNL     1      -2.802  -1.306  25.085  0.00  0.00    -0.461 OA
ATOM     19  C   UNL     1      -3.971  -1.609  24.495  0.00  0.00    +0.119 A 
ATOM     21  C   UNL     1      -3.989  -2.854  23.971  0.00  0.00    +0.046 A 
ATOM     24  C   UNL     1      -2.026  -2.412  24.933  0.00  0.00    +0.131 A 
ATOM     25  C   UNL     1      -2.711  -3.392  24.254  0.00  0.00    +0.047 A 
BRANCH  24  29
ATOM     29  C   UNL     1      -0.672  -2.339  25.500  0.00  0.00    +0.230 C 
BRANCH  29   4
ATOM      4  O   UNL     1      -0.567  -1.121  26.240  0.00  0.00    -0.387 OA
ATOM     30  H   UNL     1      -0.816  -0.394  25.644  0.00  0.00    +0.210 HD
ENDBRANCH  29   4
ENDBRANCH  24  29
ENDBRANCH  14  19
ENDBRANCH   5  14
TORSDOF 5
ENDMDL
MODEL 3
REMARK VINA RESULT:       4.7      3.276      5.379
REMARK  Name = 7144272
REMARK  5 active torsions:
REMARK  status: ('A' for Active; 'I' for Inactive)
REMARK    1  A    between atoms: O_4  and  C_29
REMARK    2  A    between atoms: N_5  and  C_14
REMARK    3  A    between atoms: C_14  and  C_19
REMARK    4  A    between atoms: C_15  and  C_20
REMARK    5  A    between atoms: C_24  and  C_29
REMARK                            x       y       z     vdW  Elec       q    Type
REMARK                         _______ _______ _______ _____ _____    ______ ____
ROOT
ATOM      2  O   UNL     1      -1.421  -3.072  24.900  0.00  0.00    -0.268 OA
ATOM      5  N   UNL     1       0.333   1.590  24.670  0.00  0.00    -0.294 NA
ATOM      6  N   UNL     1      -1.668  -0.844  24.223  0.00  0.00    -0.311 N 
ATOM      7  C   UNL     1      -0.030   0.257  22.583  0.00  0.00    +0.024 C 
ATOM      8  C   UNL     1      -1.886   1.556  23.512  0.00  0.00    +0.051 C 
ATOM      9  C   UNL     1      -1.224   1.119  22.207  0.00  0.00    +0.017 C 
ATOM     10  C   UNL     1       0.958   1.062  23.451  0.00  0.00    +0.090 C 
ATOM     11  C   UNL     1      -0.872   2.369  24.353  0.00  0.00    +0.094 C 
ATOM     12  C   UNL     1      -0.542  -0.999  23.291  0.00  0.00    +0.130 C 
ATOM     13  C   UNL     1      -2.407   0.353  24.302  0.00  0.00    +0.034 A 
ATOM     15  C   UNL     1      -3.525   0.408  25.071  0.00  0.00    +0.002 A 
ATOM     16  C   UNL     1      -2.022  -1.999  24.943  0.00  0.00    +0.252 A 
ATOM     17  C   UNL     1      -3.919  -0.763  25.832  0.00  0.00    +0.015 A 
ATOM     18  C   UNL     1      -3.225  -1.900  25.800  0.00  0.00    +0.071 A 
ENDROOT
BRANCH  15  20
ATOM      1 CL   UNL     1      -6.837   5.375  25.463  0.00  0.00    -0.084 Cl
ATOM     20  C   UNL     1      -4.344   1.636  25.168  0.00  0.00    -0.016 A 
ATOM     22  C   UNL     1      -5.727   1.555  25.043  0.00  0.00    +0.010 A 
ATOM     23  C   UNL     1      -3.725   2.863  25.384  0.00  0.00    +0.010 A 
ATOM     26  C   UNL     1      -6.500   2.714  25.134  0.00  0.00    +0.020 A 
ATOM     27  C   UNL     1      -4.497   4.022  25.475  0.00  0.00    +0.020 A 
ATOM     28  C   UNL     1      -5.885   3.947  25.350  0.00  0.00    +0.041 A 
ENDBRANCH  15  20
BRANCH   5  14
ATOM     14  C   UNL     1       1.282   2.385  25.444  0.00  0.00    +0.158 C 
BRANCH  14  19
ATOM      3  O   UNL     1       1.803   2.435  27.789  0.00  0.00    -0.461 OA
ATOM     19  C   UNL     1       0.827   2.534  26.869  0.00  0.00    +0.119 A 
ATOM     21  C   UNL     1      -0.390   2.752  27.415  0.00  0.00    +0.046 A 
ATOM     24  C   UNL     1       1.184   2.596  28.988  0.00  0.00    +0.131 A 
ATOM     25  C   UNL     1      -0.166   2.794  28.811  0.00  0.00    +0.047 A 
BRANCH  24  29
ATOM     29  C   UNL     1       2.044   2.530  30.178  0.00  0.00    +0.230 C 
BRANCH  29   4
ATOM      4  O   UNL     1       2.391   1.161  30.398  0.00  0.00    -0.387 OA
ATOM     30  H   UNL     1       2.491   1.036  31.357  0.00  0.00    +0.210 HD
ENDBRANCH  29   4
ENDBRANCH  24  29
ENDBRANCH  14  19
ENDBRANCH   5  14
TORSDOF 5
ENDMDL
