MODEL 1
REMARK VINA RESULT:      -4.6      0.000      0.000
REMARK  Name = 75536590
REMARK  7 active torsions:
REMARK  status: ('A' for Active; 'I' for Inactive)
REMARK    1  A    between atoms: O_3  and  C_8
REMARK    2  A    between atoms: N_5  and  C_7
REMARK    3  A    between atoms: N_5  and  C_12
REMARK    4  A    between atoms: N_5  and  C_13
REMARK    5  A    between atoms: N_6  and  C_11
REMARK    6  A    between atoms: C_9  and  C_11
REMARK    7  A    between atoms: C_14  and  C_15
REMARK                            x       y       z     vdW  Elec       q    Type
REMARK                         _______ _______ _______ _____ _____    ______ ____
ROOT
ATOM      2  O   UNL     1      -0.346   1.169  25.366  0.00  0.00    -0.371 OA
ATOM      7  C   UNL     1      -2.395   2.358  25.213  0.00  0.00    +0.113 C 
ATOM      8  C   UNL     1      -2.298   1.390  24.049  0.00  0.00    +0.164 C 
ATOM      9  C   UNL     1      -1.268   0.400  24.577  0.00  0.00    +0.165 C 
ATOM     10  C   UNL     1      -0.944   2.444  25.656  0.00  0.00    +0.181 C 
ENDROOT
BRANCH   7   5
ATOM      5  N   UNL     1      -2.954   3.651  24.851  0.00  0.00    -0.301 NA
ATOM     12  C   UNL     1      -4.302   3.809  25.404  0.00  0.00    +0.105 C 
ATOM     13  C   UNL     1      -2.089   4.740  25.313  0.00  0.00    +0.105 C 
ENDBRANCH   7   5
BRANCH   8   3
ATOM      3  O   UNL     1      -3.531   0.763  23.755  0.00  0.00    -0.388 OA
ATOM     19  H   UNL     1      -4.167   1.451  23.493  0.00  0.00    +0.210 HD
ENDBRANCH   8   3
BRANCH   9  11
ATOM     11  C   UNL     1      -0.520  -0.332  23.478  0.00  0.00    +0.138 C 
BRANCH  11   6
ATOM      4  O   UNL     1       1.544  -0.334  21.481  0.00  0.00    -0.270 OA
ATOM      6  N   UNL     1       0.896  -0.316  23.710  0.00  0.00    -0.308 N 
ATOM     14  C   UNL     1       1.828  -0.318  22.677  0.00  0.00    +0.251 C 
ATOM     20  H   UNL     1       1.205  -0.317  24.675  0.00  0.00    +0.149 HD
BRANCH  14  15
ATOM      1  S   UNL     1       4.239   1.026  22.708  0.00  0.00    -0.092 S 
ATOM     15  C   UNL     1       3.258  -0.326  23.083  0.00  0.00    +0.074 A 
ATOM     16  C   UNL     1       3.961  -1.306  23.749  0.00  0.00    +0.021 A 
ATOM     17  C   UNL     1       5.322  -0.940  23.956  0.00  0.00    +0.008 A 
ATOM     18  C   UNL     1       5.608   0.304  23.439  0.00  0.00    +0.046 A 
ENDBRANCH  14  15
ENDBRANCH  11   6
ENDBRANCH   9  11
TORSDOF 5
ENDMDL
MODEL 2
REMARK VINA RESULT:      -4.4      3.287      6.743
REMARK  Name = 75536590
REMARK  7 active torsions:
REMARK  status: ('A' for Active; 'I' for Inactive)
REMARK    1  A    between atoms: O_3  and  C_8
REMARK    2  A    between atoms: N_5  and  C_7
REMARK    3  A    between atoms: N_5  and  C_12
REMARK    4  A    between atoms: N_5  and  C_13
REMARK    5  A    between atoms: N_6  and  C_11
REMARK    6  A    between atoms: C_9  and  C_11
REMARK    7  A    between atoms: C_14  and  C_15
REMARK                            x       y       z     vdW  Elec       q    Type
REMARK                         _______ _______ _______ _____ _____    ______ ____
ROOT
ATOM      2  O   UNL     1      -1.751  -2.596  23.908  0.00  0.00    -0.371 OA
ATOM      7  C   UNL     1      -0.092  -0.980  24.433  0.00  0.00    +0.113 C 
ATOM      8  C   UNL     1      -1.289  -0.774  25.343  0.00  0.00    +0.164 C 
ATOM      9  C   UNL     1      -1.964  -2.136  25.252  0.00  0.00    +0.165 C 
ATOM     10  C   UNL     1      -0.703  -1.810  23.315  0.00  0.00    +0.181 C 
ENDROOT
BRANCH   7   5
ATOM      5  N   UNL     1       0.500   0.260  23.958  0.00  0.00    -0.301 NA
ATOM     12  C   UNL     1       1.317   0.023  22.764  0.00  0.00    +0.105 C 
ATOM     13  C   UNL     1      -0.536   1.255  23.670  0.00  0.00    +0.105 C 
ENDBRANCH   7   5
BRANCH   8   3
ATOM      3  O   UNL     1      -0.917  -0.456  26.669  0.00  0.00    -0.388 OA
ATOM     19  H   UNL     1      -0.523   0.434  26.670  0.00  0.00    +0.210 HD
ENDBRANCH   8   3
BRANCH   9  11
ATOM     11  C   UNL     1      -3.451  -2.090  25.551  0.00  0.00    +0.138 C 
BRANCH  11   6
ATOM      4  O   UNL     1      -4.065  -0.224  23.456  0.00  0.00    -0.270 OA
ATOM      6  N   UNL     1      -3.909  -0.740  25.714  0.00  0.00    -0.308 N 
ATOM     14  C   UNL     1      -4.183   0.097  24.637  0.00  0.00    +0.251 C 
ATOM     20  H   UNL     1      -4.015  -0.401  26.663  0.00  0.00    +0.149 HD
BRANCH  14  15
ATOM      1  S   UNL     1      -3.573   2.789  24.654  0.00  0.00    -0.092 S 
ATOM     15  C   UNL     1      -4.624   1.476  24.972  0.00  0.00    +0.074 A 
ATOM     16  C   UNL     1      -5.812   1.890  25.534  0.00  0.00    +0.021 A 
ATOM     17  C   UNL     1      -5.860   3.304  25.702  0.00  0.00    +0.008 A 
ATOM     18  C   UNL     1      -4.706   3.916  25.265  0.00  0.00    +0.046 A 
ENDBRANCH  14  15
ENDBRANCH  11   6
ENDBRANCH   9  11
TORSDOF 5
ENDMDL
MODEL 3
REMARK VINA RESULT:      -4.2      4.342      5.470
REMARK  Name = 75536590
REMARK  7 active torsions:
REMARK  status: ('A' for Active; 'I' for Inactive)
REMARK    1  A    between atoms: O_3  and  C_8
REMARK    2  A    between atoms: N_5  and  C_7
REMARK    3  A    between atoms: N_5  and  C_12
REMARK    4  A    between atoms: N_5  and  C_13
REMARK    5  A    between atoms: N_6  and  C_11
REMARK    6  A    between atoms: C_9  and  C_11
REMARK    7  A    between atoms: C_14  and  C_15
REMARK                            x       y       z     vdW  Elec       q    Type
REMARK                         _______ _______ _______ _____ _____    ______ ____
ROOT
ATOM      2  O   UNL     1      -4.714   3.398  26.116  0.00  0.00    -0.371 OA
ATOM      7  C   UNL     1      -2.813   4.019  24.836  0.00  0.00    +0.113 C 
ATOM      8  C   UNL     1      -3.534   2.884  24.132  0.00  0.00    +0.164 C 
ATOM      9  C   UNL     1      -4.920   2.987  24.755  0.00  0.00    +0.165 C 
ATOM     10  C   UNL     1      -3.374   3.905  26.244  0.00  0.00    +0.181 C 
ENDROOT
BRANCH   7   5
ATOM      5  N   UNL     1      -1.363   3.904  24.794  0.00  0.00    -0.301 NA
ATOM     12  C   UNL     1      -0.734   5.224  24.900  0.00  0.00    +0.105 C 
ATOM     13  C   UNL     1      -0.879   3.028  25.864  0.00  0.00    +0.105 C 
ENDBRANCH   7   5
BRANCH   8   3
ATOM      3  O   UNL     1      -3.572   3.049  22.728  0.00  0.00    -0.388 OA
ATOM     19  H   UNL     1      -2.687   2.852  22.374  0.00  0.00    +0.210 HD
ENDBRANCH   8   3
BRANCH   9  11
ATOM     11  C   UNL     1      -5.690   1.680  24.723  0.00  0.00    +0.138 C 
BRANCH  11   6
ATOM      4  O   UNL     1      -4.373  -0.073  26.576  0.00  0.00    -0.270 OA
ATOM      6  N   UNL     1      -4.833   0.576  24.396  0.00  0.00    -0.308 N 
ATOM     14  C   UNL     1      -4.234  -0.223  25.364  0.00  0.00    +0.251 C 
ATOM     20  H   UNL     1      -4.661   0.402  23.413  0.00  0.00    +0.149 HD
BRANCH  14  15
ATOM      1  S   UNL     1      -1.655  -1.096  24.911  0.00  0.00    -0.092 S 
ATOM     15  C   UNL     1      -3.353  -1.310  24.864  0.00  0.00    +0.074 A 
ATOM     16  C   UNL     1      -3.705  -2.533  24.337  0.00  0.00    +0.021 A 
ATOM     17  C   UNL     1      -2.565  -3.305  23.968  0.00  0.00    +0.008 A 
ATOM     18  C   UNL     1      -1.387  -2.641  24.226  0.00  0.00    +0.046 A 
ENDBRANCH  14  15
ENDBRANCH  11   6
ENDBRANCH   9  11
TORSDOF 5
ENDMDL
MODEL 4
REMARK VINA RESULT:      -3.5      3.390      4.949
REMARK  Name = 75536590
REMARK  7 active torsions:
REMARK  status: ('A' for Active; 'I' for Inactive)
REMARK    1  A    between atoms: O_3  and  C_8
REMARK    2  A    between atoms: N_5  and  C_7
REMARK    3  A    between atoms: N_5  and  C_12
REMARK    4  A    between atoms: N_5  and  C_13
REMARK    5  A    between atoms: N_6  and  C_11
REMARK    6  A    between atoms: C_9  and  C_11
REMARK    7  A    between atoms: C_14  and  C_15
REMARK                            x       y       z     vdW  Elec       q    Type
REMARK                         _______ _______ _______ _____ _____    ______ ____
ROOT
ATOM      2  O   UNL     1      -0.042   3.274  23.572  0.00  0.00    -0.371 OA
ATOM      7  C   UNL     1      -1.175   3.718  25.612  0.00  0.00    +0.113 C 
ATOM      8  C   UNL     1      -0.737   2.265  25.596  0.00  0.00    +0.164 C 
ATOM      9  C   UNL     1       0.369   2.305  24.550  0.00  0.00    +0.165 C 
ATOM     10  C   UNL     1      -1.097   4.072  24.136  0.00  0.00    +0.181 C 
ENDROOT
BRANCH   7   5
ATOM      5  N   UNL     1      -2.500   3.921  26.174  0.00  0.00    -0.301 NA
ATOM     12  C   UNL     1      -2.995   5.267  25.867  0.00  0.00    +0.105 C 
ATOM     13  C   UNL     1      -3.439   2.913  25.673  0.00  0.00    +0.105 C 
ENDBRANCH   7   5
BRANCH   8   3
ATOM      3  O   UNL     1      -0.260   1.824  26.852  0.00  0.00    -0.388 OA
ATOM     19  H   UNL     1      -0.806   2.234  27.545  0.00  0.00    +0.210 HD
ENDBRANCH   8   3
BRANCH   9  11
ATOM     11  C   UNL     1       0.607   0.965  23.877  0.00  0.00    +0.138 C 
BRANCH  11   6
ATOM      4  O   UNL     1      -0.229  -1.161  25.616  0.00  0.00    -0.270 OA
ATOM      6  N   UNL     1      -0.607   0.207  23.780  0.00  0.00    -0.308 N 
ATOM     14  C   UNL     1      -0.932  -0.811  24.671  0.00  0.00    +0.251 C 
ATOM     20  H   UNL     1      -1.230   0.431  23.013  0.00  0.00    +0.149 HD
BRANCH  14  15
ATOM      1  S   UNL     1      -3.615  -0.604  24.056  0.00  0.00    -0.092 S 
ATOM     15  C   UNL     1      -2.214  -1.519  24.419  0.00  0.00    +0.074 A 
ATOM     16  C   UNL     1      -2.471  -2.873  24.434  0.00  0.00    +0.021 A 
ATOM     17  C   UNL     1      -3.835  -3.162  24.142  0.00  0.00    +0.008 A 
ATOM     18  C   UNL     1      -4.569  -2.019  23.917  0.00  0.00    +0.046 A 
ENDBRANCH  14  15
ENDBRANCH  11   6
ENDBRANCH   9  11
TORSDOF 5
ENDMDL
MODEL 5
REMARK VINA RESULT:      -3.5      3.804      5.957
REMARK  Name = 75536590
REMARK  7 active torsions:
REMARK  status: ('A' for Active; 'I' for Inactive)
REMARK    1  A    between atoms: O_3  and  C_8
REMARK    2  A    between atoms: N_5  and  C_7
REMARK    3  A    between atoms: N_5  and  C_12
REMARK    4  A    between atoms: N_5  and  C_13
REMARK    5  A    between atoms: N_6  and  C_11
REMARK    6  A    between atoms: C_9  and  C_11
REMARK    7  A    between atoms: C_14  and  C_15
REMARK                            x       y       z     vdW  Elec       q    Type
REMARK                         _______ _______ _______ _____ _____    ______ ____
ROOT
ATOM      2  O   UNL     1      -3.074   4.244  25.115  0.00  0.00    -0.371 OA
ATOM      7  C   UNL     1      -0.836   3.649  24.591  0.00  0.00    +0.113 C 
ATOM      8  C   UNL     1      -1.781   2.720  23.851  0.00  0.00    +0.164 C 
ATOM      9  C   UNL     1      -3.065   3.538  23.864  0.00  0.00    +0.165 C 
ATOM     10  C   UNL     1      -1.748   4.210  25.670  0.00  0.00    +0.181 C 
ENDROOT
BRANCH   7   5
ATOM      5  N   UNL     1       0.336   2.980  25.132  0.00  0.00    -0.301 NA
ATOM     12  C   UNL     1       0.098   2.551  26.514  0.00  0.00    +0.105 C 
ATOM     13  C   UNL     1       0.707   1.829  24.305  0.00  0.00    +0.105 C 
ENDBRANCH   7   5
BRANCH   8   3
ATOM      3  O   UNL     1      -1.348   2.435  22.536  0.00  0.00    -0.388 OA
ATOM     19  H   UNL     1      -1.783   3.060  21.930  0.00  0.00    +0.210 HD
ENDBRANCH   8   3
BRANCH   9  11
ATOM     11  C   UNL     1      -4.318   2.689  23.743  0.00  0.00    +0.138 C 
BRANCH  11   6
ATOM      4  O   UNL     1      -5.089   0.996  25.930  0.00  0.00    -0.270 OA
ATOM      6  N   UNL     1      -4.020   1.293  23.892  0.00  0.00    -0.308 N 
ATOM     14  C   UNL     1      -4.435   0.548  24.991  0.00  0.00    +0.251 C 
ATOM     20  H   UNL     1      -3.469   0.859  23.160  0.00  0.00    +0.149 HD
BRANCH  14  15
ATOM      1  S   UNL     1      -4.349  -1.859  23.643  0.00  0.00    -0.092 S 
ATOM     15  C   UNL     1      -4.023  -0.879  25.009  0.00  0.00    +0.074 A 
ATOM     16  C   UNL     1      -3.386  -1.582  26.009  0.00  0.00    +0.021 A 
ATOM     17  C   UNL     1      -3.161  -2.941  25.647  0.00  0.00    +0.008 A 
ATOM     18  C   UNL     1      -3.636  -3.227  24.387  0.00  0.00    +0.046 A 
ENDBRANCH  14  15
ENDBRANCH  11   6
ENDBRANCH   9  11
TORSDOF 5
ENDMDL
MODEL 6
REMARK VINA RESULT:      -3.4      3.871      4.826
REMARK  Name = 75536590
REMARK  7 active torsions:
REMARK  status: ('A' for Active; 'I' for Inactive)
REMARK    1  A    between atoms: O_3  and  C_8
REMARK    2  A    between atoms: N_5  and  C_7
REMARK    3  A    between atoms: N_5  and  C_12
REMARK    4  A    between atoms: N_5  and  C_13
REMARK    5  A    between atoms: N_6  and  C_11
REMARK    6  A    between atoms: C_9  and  C_11
REMARK    7  A    between atoms: C_14  and  C_15
REMARK                            x       y       z     vdW  Elec       q    Type
REMARK                         _______ _______ _______ _____ _____    ______ ____
ROOT
ATOM      2  O   UNL     1      -1.757   3.493  23.904  0.00  0.00    -0.371 OA
ATOM      7  C   UNL     1      -3.822   4.098  24.909  0.00  0.00    +0.113 C 
ATOM      8  C   UNL     1      -2.963   3.381  25.935  0.00  0.00    +0.164 C 
ATOM      9  C   UNL     1      -1.577   3.553  25.328  0.00  0.00    +0.165 C 
ATOM     10  C   UNL     1      -3.153   3.678  23.611  0.00  0.00    +0.181 C 
ENDROOT
BRANCH   7   5
ATOM      5  N   UNL     1      -5.228   3.731  24.966  0.00  0.00    -0.301 NA
ATOM     12  C   UNL     1      -5.401   2.440  25.639  0.00  0.00    +0.105 C 
ATOM     13  C   UNL     1      -6.009   4.764  25.651  0.00  0.00    +0.105 C 
ENDBRANCH   7   5
BRANCH   8   3
ATOM      3  O   UNL     1      -3.052   3.961  27.222  0.00  0.00    -0.388 OA
ATOM     19  H   UNL     1      -2.175   3.912  27.639  0.00  0.00    +0.210 HD
ENDBRANCH   8   3
BRANCH   9  11
ATOM     11  C   UNL     1      -0.593   2.484  25.768  0.00  0.00    +0.138 C 
BRANCH  11   6
ATOM      4  O   UNL     1      -0.608   0.737  23.489  0.00  0.00    -0.270 OA
ATOM      6  N   UNL     1      -1.177   1.175  25.696  0.00  0.00    -0.308 N 
ATOM     14  C   UNL     1      -1.138   0.396  24.544  0.00  0.00    +0.251 C 
ATOM     20  H   UNL     1      -1.645   0.833  26.527  0.00  0.00    +0.149 HD
BRANCH  14  15
ATOM      1  S   UNL     1      -3.479  -0.991  25.006  0.00  0.00    -0.092 S 
ATOM     15  C   UNL     1      -1.811  -0.926  24.623  0.00  0.00    +0.074 A 
ATOM     16  C   UNL     1      -1.277  -2.181  24.428  0.00  0.00    +0.021 A 
ATOM     17  C   UNL     1      -2.250  -3.209  24.593  0.00  0.00    +0.008 A 
ATOM     18  C   UNL     1      -3.490  -2.700  24.910  0.00  0.00    +0.046 A 
ENDBRANCH  14  15
ENDBRANCH  11   6
ENDBRANCH   9  11
TORSDOF 5
ENDMDL
MODEL 7
REMARK VINA RESULT:      -2.9      3.407      5.523
REMARK  Name = 75536590
REMARK  7 active torsions:
REMARK  status: ('A' for Active; 'I' for Inactive)
REMARK    1  A    between atoms: O_3  and  C_8
REMARK    2  A    between atoms: N_5  and  C_7
REMARK    3  A    between atoms: N_5  and  C_12
REMARK    4  A    between atoms: N_5  and  C_13
REMARK    5  A    between atoms: N_6  and  C_11
REMARK    6  A    between atoms: C_9  and  C_11
REMARK    7  A    between atoms: C_14  and  C_15
REMARK                            x       y       z     vdW  Elec       q    Type
REMARK                         _______ _______ _______ _____ _____    ______ ____
ROOT
ATOM      2  O   UNL     1      -1.401  -0.696  26.283  0.00  0.00    -0.371 OA
ATOM      7  C   UNL     1      -2.915  -2.182  25.216  0.00  0.00    +0.113 C 
ATOM      8  C   UNL     1      -1.788  -1.849  24.255  0.00  0.00    +0.164 C 
ATOM      9  C   UNL     1      -0.711  -1.373  25.221  0.00  0.00    +0.165 C 
ATOM     10  C   UNL     1      -2.793  -1.052  26.225  0.00  0.00    +0.181 C 
ENDROOT
BRANCH   7   5
ATOM      5  N   UNL     1      -4.223  -2.237  24.584  0.00  0.00    -0.301 NA
ATOM     12  C   UNL     1      -4.565  -0.946  23.980  0.00  0.00    +0.105 C 
ATOM     13  C   UNL     1      -4.267  -3.294  23.569  0.00  0.00    +0.105 C 
ENDBRANCH   7   5
BRANCH   8   3
ATOM      3  O   UNL     1      -1.365  -2.967  23.501  0.00  0.00    -0.388 OA
ATOM     19  H   UNL     1      -0.839  -3.544  24.081  0.00  0.00    +0.210 HD
ENDBRANCH   8   3
BRANCH   9  11
ATOM     11  C   UNL     1       0.296  -0.434  24.581  0.00  0.00    +0.138 C 
BRANCH  11   6
ATOM      4  O   UNL     1      -1.568   1.216  23.151  0.00  0.00    -0.270 OA
ATOM      6  N   UNL     1      -0.020   0.938  24.857  0.00  0.00    -0.308 N 
ATOM     14  C   UNL     1      -0.940   1.664  24.108  0.00  0.00    +0.251 C 
ATOM     20  H   UNL     1       0.472   1.378  25.626  0.00  0.00    +0.149 HD
BRANCH  14  15
ATOM      1  S   UNL     1      -2.571   3.527  25.329  0.00  0.00    -0.092 S 
ATOM     15  C   UNL     1      -1.137   3.082  24.505  0.00  0.00    +0.074 A 
ATOM     16  C   UNL     1      -0.302   4.160  24.303  0.00  0.00    +0.021 A 
ATOM     17  C   UNL     1      -0.847   5.365  24.833  0.00  0.00    +0.008 A 
ATOM     18  C   UNL     1      -2.077   5.163  25.418  0.00  0.00    +0.046 A 
ENDBRANCH  14  15
ENDBRANCH  11   6
ENDBRANCH   9  11
TORSDOF 5
ENDMDL
MODEL 8
REMARK VINA RESULT:      -2.1      3.590      7.077
REMARK  Name = 75536590
REMARK  7 active torsions:
REMARK  status: ('A' for Active; 'I' for Inactive)
REMARK    1  A    between atoms: O_3  and  C_8
REMARK    2  A    between atoms: N_5  and  C_7
REMARK    3  A    between atoms: N_5  and  C_12
REMARK    4  A    between atoms: N_5  and  C_13
REMARK    5  A    between atoms: N_6  and  C_11
REMARK    6  A    between atoms: C_9  and  C_11
REMARK    7  A    between atoms: C_14  and  C_15
REMARK                            x       y       z     vdW  Elec       q    Type
REMARK                         _______ _______ _______ _____ _____    ______ ____
ROOT
ATOM      2  O   UNL     1      -0.340   1.339  25.859  0.00  0.00    -0.371 OA
ATOM      7  C   UNL     1      -0.182  -0.695  24.645  0.00  0.00    +0.113 C 
ATOM      8  C   UNL     1      -0.415   0.445  23.671  0.00  0.00    +0.164 C 
ATOM      9  C   UNL     1       0.033   1.638  24.504  0.00  0.00    +0.165 C 
ATOM     10  C   UNL     1      -0.625  -0.067  25.956  0.00  0.00    +0.181 C 
ENDROOT
BRANCH   7   5
ATOM      5  N   UNL     1      -0.923  -1.903  24.318  0.00  0.00    -0.301 NA
ATOM     12  C   UNL     1      -0.542  -3.004  25.207  0.00  0.00    +0.105 C 
ATOM     13  C   UNL     1      -2.367  -1.667  24.399  0.00  0.00    +0.105 C 
ENDBRANCH   7   5
BRANCH   8   3
ATOM      3  O   UNL     1       0.343   0.313  22.485  0.00  0.00    -0.388 OA
ATOM     19  H   UNL     1       0.869   1.123  22.368  0.00  0.00    +0.210 HD
ENDBRANCH   8   3
BRANCH   9  11
ATOM     11  C   UNL     1      -0.604   2.946  24.071  0.00  0.00    +0.138 C 
BRANCH  11   6
ATOM      4  O   UNL     1      -2.141   3.848  26.322  0.00  0.00    -0.270 OA
ATOM      6  N   UNL     1      -2.032   2.901  24.206  0.00  0.00    -0.308 N 
ATOM     14  C   UNL     1      -2.695   3.362  25.338  0.00  0.00    +0.251 C 
ATOM     20  H   UNL     1      -2.555   2.498  23.437  0.00  0.00    +0.149 HD
BRANCH  14  15
ATOM      1  S   UNL     1      -4.869   1.717  24.904  0.00  0.00    -0.092 S 
ATOM     15  C   UNL     1      -4.175   3.222  25.335  0.00  0.00    +0.074 A 
ATOM     16  C   UNL     1      -5.132   4.165  25.638  0.00  0.00    +0.021 A 
ATOM     17  C   UNL     1      -6.453   3.644  25.517  0.00  0.00    +0.008 A 
ATOM     18  C   UNL     1      -6.454   2.324  25.124  0.00  0.00    +0.046 A 
ENDBRANCH  14  15
ENDBRANCH  11   6
ENDBRANCH   9  11
TORSDOF 5
ENDMDL
MODEL 9
REMARK VINA RESULT:      -2.1      3.849      6.076
REMARK  Name = 75536590
REMARK  7 active torsions:
REMARK  status: ('A' for Active; 'I' for Inactive)
REMARK    1  A    between atoms: O_3  and  C_8
REMARK    2  A    between atoms: N_5  and  C_7
REMARK    3  A    between atoms: N_5  and  C_12
REMARK    4  A    between atoms: N_5  and  C_13
REMARK    5  A    between atoms: N_6  and  C_11
REMARK    6  A    between atoms: C_9  and  C_11
REMARK    7  A    between atoms: C_14  and  C_15
REMARK                            x       y       z     vdW  Elec       q    Type
REMARK                         _______ _______ _______ _____ _____    ______ ____
ROOT
ATOM      2  O   UNL     1      -4.724  -1.011  23.822  0.00  0.00    -0.371 OA
ATOM      7  C   UNL     1      -2.920  -2.046  24.969  0.00  0.00    +0.113 C 
ATOM      8  C   UNL     1      -3.347  -0.807  25.735  0.00  0.00    +0.164 C 
ATOM      9  C   UNL     1      -4.759  -0.605  25.200  0.00  0.00    +0.165 C 
ATOM     10  C   UNL     1      -3.528  -1.780  23.602  0.00  0.00    +0.181 C 
ENDROOT
BRANCH   7   5
ATOM      5  N   UNL     1      -1.479  -2.234  24.921  0.00  0.00    -0.301 NA
ATOM     12  C   UNL     1      -1.077  -2.849  23.653  0.00  0.00    +0.105 C 
ATOM     13  C   UNL     1      -0.781  -0.958  25.105  0.00  0.00    +0.105 C 
ENDBRANCH   7   5
BRANCH   8   3
ATOM      3  O   UNL     1      -3.336  -1.000  27.136  0.00  0.00    -0.388 OA
ATOM     19  H   UNL     1      -4.079  -0.501  27.518  0.00  0.00    +0.210 HD
ENDBRANCH   8   3
BRANCH   9  11
ATOM     11  C   UNL     1      -5.239   0.832  25.301  0.00  0.00    +0.138 C 
BRANCH  11   6
ATOM      4  O   UNL     1      -3.999   2.245  23.131  0.00  0.00    -0.270 OA
ATOM      6  N   UNL     1      -4.136   1.745  25.393  0.00  0.00    -0.308 N 
ATOM     14  C   UNL     1      -3.596   2.388  24.283  0.00  0.00    +0.251 C 
ATOM     20  H   UNL     1      -3.742   1.900  26.314  0.00  0.00    +0.149 HD
BRANCH  14  15
ATOM      1  S   UNL     1      -0.859   2.729  24.187  0.00  0.00    -0.092 S 
ATOM     15  C   UNL     1      -2.439   3.284  24.542  0.00  0.00    +0.074 A 
ATOM     16  C   UNL     1      -2.435   4.563  25.053  0.00  0.00    +0.021 A 
ATOM     17  C   UNL     1      -1.117   5.095  25.152  0.00  0.00    +0.008 A 
ATOM     18  C   UNL     1      -0.164   4.201  24.716  0.00  0.00    +0.046 A 
ENDBRANCH  14  15
ENDBRANCH  11   6
ENDBRANCH   9  11
TORSDOF 5
ENDMDL
MODEL 10
REMARK VINA RESULT:      -2.1      3.281      5.791
REMARK  Name = 75536590
REMARK  7 active torsions:
REMARK  status: ('A' for Active; 'I' for Inactive)
REMARK    1  A    between atoms: O_3  and  C_8
REMARK    2  A    between atoms: N_5  and  C_7
REMARK    3  A    between atoms: N_5  and  C_12
REMARK    4  A    between atoms: N_5  and  C_13
REMARK    5  A    between atoms: N_6  and  C_11
REMARK    6  A    between atoms: C_9  and  C_11
REMARK    7  A    between atoms: C_14  and  C_15
REMARK                            x       y       z     vdW  Elec       q    Type
REMARK                         _______ _______ _______ _____ _____    ______ ____
ROOT
ATOM      2  O   UNL     1       0.272  -1.361  24.511  0.00  0.00    -0.371 OA
ATOM      7  C   UNL     1      -2.049  -1.399  24.012  0.00  0.00    +0.113 C 
ATOM      8  C   UNL     1      -1.530   0.017  23.844  0.00  0.00    +0.164 C 
ATOM      9  C   UNL     1      -0.038  -0.236  23.673  0.00  0.00    +0.165 C 
ATOM     10  C   UNL     1      -0.955  -2.021  24.865  0.00  0.00    +0.181 C 
ENDROOT
BRANCH   7   5
ATOM      5  N   UNL     1      -3.361  -1.469  24.636  0.00  0.00    -0.301 NA
ATOM     12  C   UNL     1      -3.550  -2.759  25.306  0.00  0.00    +0.105 C 
ATOM     13  C   UNL     1      -3.543  -0.374  25.591  0.00  0.00    +0.105 C 
ENDBRANCH   7   5
BRANCH   8   3
ATOM      3  O   UNL     1      -2.087   0.672  22.722  0.00  0.00    -0.388 OA
ATOM     19  H   UNL     1      -1.508   1.418  22.486  0.00  0.00    +0.210 HD
ENDBRANCH   8   3
BRANCH   9  11
ATOM     11  C   UNL     1       0.821   0.951  24.067  0.00  0.00    +0.138 C 
BRANCH  11   6
ATOM      4  O   UNL     1      -0.042   2.157  26.525  0.00  0.00    -0.270 OA
ATOM      6  N   UNL     1       0.033   2.143  24.206  0.00  0.00    -0.308 N 
ATOM     14  C   UNL     1      -0.342   2.657  25.443  0.00  0.00    +0.251 C 
ATOM     20  H   UNL     1      -0.264   2.601  23.352  0.00  0.00    +0.149 HD
BRANCH  14  15
ATOM      1  S   UNL     1      -2.761   3.828  26.073  0.00  0.00    -0.092 S 
ATOM     15  C   UNL     1      -1.180   3.884  25.417  0.00  0.00    +0.074 A 
ATOM     16  C   UNL     1      -0.871   5.131  24.919  0.00  0.00    +0.021 A 
ATOM     17  C   UNL     1      -1.946   6.052  25.080  0.00  0.00    +0.008 A 
ATOM     18  C   UNL     1      -3.035   5.474  25.693  0.00  0.00    +0.046 A 
ENDBRANCH  14  15
ENDBRANCH  11   6
ENDBRANCH   9  11
TORSDOF 5
ENDMDL
