MODEL 1
REMARK VINA RESULT:      -6.3      0.000      0.000
REMARK  Name = 75536822
REMARK  7 active torsions:
REMARK  status: ('A' for Active; 'I' for Inactive)
REMARK    1  A    between atoms: O_2  and  C_8
REMARK    2  A    between atoms: N_4  and  C_7
REMARK    3  A    between atoms: N_4  and  C_12
REMARK    4  A    between atoms: N_5  and  C_11
REMARK    5  A    between atoms: C_9  and  C_11
REMARK    6  A    between atoms: C_12  and  C_13
REMARK    7  A    between atoms: C_14  and  C_17
REMARK                            x       y       z     vdW  Elec       q    Type
REMARK                         _______ _______ _______ _____ _____    ______ ____
ROOT
ATOM      1  O   UNL     1      -4.226   3.708  26.809  0.00  0.00    -0.371 OA
ATOM      7  C   UNL     1      -2.390   4.382  25.460  0.00  0.00    +0.111 C 
ATOM      8  C   UNL     1      -3.455   3.765  24.573  0.00  0.00    +0.164 C 
ATOM      9  C   UNL     1      -4.687   3.894  25.460  0.00  0.00    +0.165 C 
ATOM     10  C   UNL     1      -2.795   3.855  26.827  0.00  0.00    +0.181 C 
ENDROOT
BRANCH   8   2
ATOM      2  O   UNL     1      -3.612   4.456  23.349  0.00  0.00    -0.388 OA
ATOM     26  H   UNL     1      -2.758   4.857  23.113  0.00  0.00    +0.210 HD
ENDBRANCH   8   2
BRANCH   7   4
ATOM      4  N   UNL     1      -1.034   4.010  25.089  0.00  0.00    -0.305 NA
ATOM     25  H   UNL     1      -0.419   4.812  25.228  0.00  0.00    +0.123 HD
BRANCH   4  12
ATOM     12  C   UNL     1      -0.552   2.900  25.902  0.00  0.00    +0.116 C 
BRANCH  12  13
ATOM      6  N   UNL     1       0.394  -0.546  23.507  0.00  0.00    -0.263 NA
ATOM     13  C   UNL     1      -0.221   1.694  25.064  0.00  0.00    -0.031 A 
ATOM     15  C   UNL     1      -0.727   0.446  25.407  0.00  0.00    +0.024 A 
ATOM     16  C   UNL     1       0.592   1.824  23.943  0.00  0.00    +0.024 A 
ATOM     18  C   UNL     1      -0.393  -0.633  24.604  0.00  0.00    +0.111 A 
ATOM     19  C   UNL     1       0.867   0.685  23.205  0.00  0.00    +0.111 A 
ENDBRANCH  12  13
ENDBRANCH   4  12
ENDBRANCH   7   4
BRANCH   9  11
ATOM     11  C   UNL     1      -5.766   2.876  25.140  0.00  0.00    +0.138 C 
BRANCH  11   5
ATOM      3  O   UNL     1      -4.021   1.458  23.354  0.00  0.00    -0.270 OA
ATOM      5  N   UNL     1      -5.281   1.535  25.300  0.00  0.00    -0.309 N 
ATOM     14  C   UNL     1      -4.434   0.925  24.380  0.00  0.00    +0.244 C 
ATOM     27  H   UNL     1      -5.641   1.013  26.092  0.00  0.00    +0.149 HD
BRANCH  14  17
ATOM     17  C   UNL     1      -4.042  -0.477  24.677  0.00  0.00    +0.037 A 
ATOM     20  C   UNL     1      -4.100  -1.445  23.674  0.00  0.00    +0.013 A 
ATOM     21  C   UNL     1      -3.618  -0.825  25.959  0.00  0.00    +0.013 A 
ATOM     22  C   UNL     1      -3.731  -2.761  23.954  0.00  0.00    +0.001 A 
ATOM     23  C   UNL     1      -3.249  -2.141  26.238  0.00  0.00    +0.001 A 
ATOM     24  C   UNL     1      -3.305  -3.109  25.236  0.00  0.00    +0.000 A 
ENDBRANCH  14  17
ENDBRANCH  11   5
ENDBRANCH   9  11
TORSDOF 7
ENDMDL
MODEL 2
REMARK VINA RESULT:      -5.7      1.946      4.964
REMARK  Name = 75536822
REMARK  7 active torsions:
REMARK  status: ('A' for Active; 'I' for Inactive)
REMARK    1  A    between atoms: O_2  and  C_8
REMARK    2  A    between atoms: N_4  and  C_7
REMARK    3  A    between atoms: N_4  and  C_12
REMARK    4  A    between atoms: N_5  and  C_11
REMARK    5  A    between atoms: C_9  and  C_11
REMARK    6  A    between atoms: C_12  and  C_13
REMARK    7  A    between atoms: C_14  and  C_17
REMARK                            x       y       z     vdW  Elec       q    Type
REMARK                         _______ _______ _______ _____ _____    ______ ____
ROOT
ATOM      1  O   UNL     1      -1.661  -2.459  23.748  0.00  0.00    -0.371 OA
ATOM      7  C   UNL     1      -0.018  -0.986  24.626  0.00  0.00    +0.111 C 
ATOM      8  C   UNL     1      -1.258  -0.921  25.499  0.00  0.00    +0.164 C 
ATOM      9  C   UNL     1      -1.938  -2.235  25.141  0.00  0.00    +0.165 C 
ATOM     10  C   UNL     1      -0.578  -1.599  23.353  0.00  0.00    +0.181 C 
ENDROOT
BRANCH   8   2
ATOM      2  O   UNL     1      -0.950  -0.843  26.877  0.00  0.00    -0.388 OA
ATOM     26  H   UNL     1      -1.039   0.083  27.158  0.00  0.00    +0.210 HD
ENDBRANCH   8   2
BRANCH   7   4
ATOM      4  N   UNL     1       0.609   0.308  24.403  0.00  0.00    -0.305 NA
ATOM     25  H   UNL     1       1.498   0.169  23.923  0.00  0.00    +0.123 HD
BRANCH   4  12
ATOM     12  C   UNL     1      -0.239   1.169  23.588  0.00  0.00    +0.116 C 
BRANCH  12  13
ATOM      6  N   UNL     1      -1.404   4.730  25.700  0.00  0.00    -0.263 NA
ATOM     13  C   UNL     1      -0.647   2.416  24.327  0.00  0.00    -0.031 A 
ATOM     15  C   UNL     1      -0.450   3.665  23.750  0.00  0.00    +0.024 A 
ATOM     16  C   UNL     1      -1.222   2.322  25.589  0.00  0.00    +0.024 A 
ATOM     18  C   UNL     1      -0.842   4.781  24.471  0.00  0.00    +0.111 A 
ATOM     19  C   UNL     1      -1.579   3.498  26.229  0.00  0.00    +0.111 A 
ENDBRANCH  12  13
ENDBRANCH   4  12
ENDBRANCH   7   4
BRANCH   9  11
ATOM     11  C   UNL     1      -3.438  -2.217  25.370  0.00  0.00    +0.138 C 
BRANCH  11   5
ATOM      3  O   UNL     1      -3.931  -0.334  23.259  0.00  0.00    -0.270 OA
ATOM      5  N   UNL     1      -3.926  -0.875  25.514  0.00  0.00    -0.309 N 
ATOM     14  C   UNL     1      -4.137  -0.029  24.430  0.00  0.00    +0.244 C 
ATOM     27  H   UNL     1      -4.050  -0.536  26.463  0.00  0.00    +0.149 HD
BRANCH  14  17
ATOM     17  C   UNL     1      -4.622   1.339  24.749  0.00  0.00    +0.037 A 
ATOM     20  C   UNL     1      -4.151   2.433  24.023  0.00  0.00    +0.013 A 
ATOM     21  C   UNL     1      -5.547   1.528  25.775  0.00  0.00    +0.013 A 
ATOM     22  C   UNL     1      -4.608   3.716  24.322  0.00  0.00    +0.001 A 
ATOM     23  C   UNL     1      -6.004   2.811  26.073  0.00  0.00    +0.001 A 
ATOM     24  C   UNL     1      -5.534   3.906  25.348  0.00  0.00    +0.000 A 
ENDBRANCH  14  17
ENDBRANCH  11   5
ENDBRANCH   9  11
TORSDOF 7
ENDMDL
MODEL 3
REMARK VINA RESULT:      -5.5      2.603      5.237
REMARK  Name = 75536822
REMARK  7 active torsions:
REMARK  status: ('A' for Active; 'I' for Inactive)
REMARK    1  A    between atoms: O_2  and  C_8
REMARK    2  A    between atoms: N_4  and  C_7
REMARK    3  A    between atoms: N_4  and  C_12
REMARK    4  A    between atoms: N_5  and  C_11
REMARK    5  A    between atoms: C_9  and  C_11
REMARK    6  A    between atoms: C_12  and  C_13
REMARK    7  A    between atoms: C_14  and  C_17
REMARK                            x       y       z     vdW  Elec       q    Type
REMARK                         _______ _______ _______ _____ _____    ______ ____
ROOT
ATOM      1  O   UNL     1      -1.701  -2.713  23.914  0.00  0.00    -0.371 OA
ATOM      7  C   UNL     1      -0.012  -1.120  24.419  0.00  0.00    +0.111 C 
ATOM      8  C   UNL     1      -1.228  -0.844  25.284  0.00  0.00    +0.164 C 
ATOM      9  C   UNL     1      -1.937  -2.191  25.232  0.00  0.00    +0.165 C 
ATOM     10  C   UNL     1      -0.615  -1.981  23.320  0.00  0.00    +0.181 C 
ENDROOT
BRANCH   8   2
ATOM      2  O   UNL     1      -0.884  -0.479  26.606  0.00  0.00    -0.388 OA
ATOM     26  H   UNL     1      -1.646  -0.028  27.007  0.00  0.00    +0.210 HD
ENDBRANCH   8   2
BRANCH   7   4
ATOM      4  N   UNL     1       0.628   0.082  23.909  0.00  0.00    -0.305 NA
ATOM     25  H   UNL     1       1.225   0.475  24.637  0.00  0.00    +0.123 HD
BRANCH   4  12
ATOM     12  C   UNL     1       1.443  -0.212  22.738  0.00  0.00    +0.116 C 
BRANCH  12  13
ATOM      6  N   UNL     1       5.645  -0.160  23.657  0.00  0.00    -0.263 NA
ATOM     13  C   UNL     1       2.914  -0.194  23.060  0.00  0.00    -0.031 A 
ATOM     15  C   UNL     1       3.667   0.949  22.817  0.00  0.00    +0.024 A 
ATOM     16  C   UNL     1       3.524  -1.320  23.600  0.00  0.00    +0.024 A 
ATOM     18  C   UNL     1       5.017   0.915  23.130  0.00  0.00    +0.111 A 
ATOM     19  C   UNL     1       4.880  -1.253  23.878  0.00  0.00    +0.111 A 
ENDBRANCH  12  13
ENDBRANCH   4  12
ENDBRANCH   7   4
BRANCH   9  11
ATOM     11  C   UNL     1      -3.431  -2.092  25.485  0.00  0.00    +0.138 C 
BRANCH  11   5
ATOM      3  O   UNL     1      -3.927  -0.262  23.330  0.00  0.00    -0.270 OA
ATOM      5  N   UNL     1      -3.851  -0.725  25.601  0.00  0.00    -0.309 N 
ATOM     14  C   UNL     1      -4.069   0.092  24.496  0.00  0.00    +0.244 C 
ATOM     27  H   UNL     1      -3.918  -0.349  26.541  0.00  0.00    +0.149 HD
BRANCH  14  17
ATOM     17  C   UNL     1      -4.477   1.492  24.786  0.00  0.00    +0.037 A 
ATOM     20  C   UNL     1      -5.652   1.743  25.495  0.00  0.00    +0.013 A 
ATOM     21  C   UNL     1      -3.685   2.553  24.349  0.00  0.00    +0.013 A 
ATOM     22  C   UNL     1      -6.033   3.057  25.768  0.00  0.00    +0.001 A 
ATOM     23  C   UNL     1      -4.066   3.866  24.623  0.00  0.00    +0.001 A 
ATOM     24  C   UNL     1      -5.240   4.119  25.332  0.00  0.00    +0.000 A 
ENDBRANCH  14  17
ENDBRANCH  11   5
ENDBRANCH   9  11
TORSDOF 7
ENDMDL
MODEL 4
REMARK VINA RESULT:      -4.4      2.323      6.132
REMARK  Name = 75536822
REMARK  7 active torsions:
REMARK  status: ('A' for Active; 'I' for Inactive)
REMARK    1  A    between atoms: O_2  and  C_8
REMARK    2  A    between atoms: N_4  and  C_7
REMARK    3  A    between atoms: N_4  and  C_12
REMARK    4  A    between atoms: N_5  and  C_11
REMARK    5  A    between atoms: C_9  and  C_11
REMARK    6  A    between atoms: C_12  and  C_13
REMARK    7  A    between atoms: C_14  and  C_17
REMARK                            x       y       z     vdW  Elec       q    Type
REMARK                         _______ _______ _______ _____ _____    ______ ____
ROOT
ATOM      1  O   UNL     1      -0.957  -0.561  26.271  0.00  0.00    -0.371 OA
ATOM      7  C   UNL     1      -2.487  -2.168  25.422  0.00  0.00    +0.111 C 
ATOM      8  C   UNL     1      -1.614  -1.667  24.286  0.00  0.00    +0.164 C 
ATOM      9  C   UNL     1      -0.423  -1.110  25.054  0.00  0.00    +0.165 C 
ATOM     10  C   UNL     1      -2.287  -1.075  26.459  0.00  0.00    +0.181 C 
ENDROOT
BRANCH   8   2
ATOM      2  O   UNL     1      -1.233  -2.698  23.396  0.00  0.00    -0.388 OA
ATOM     26  H   UNL     1      -0.340  -2.501  23.065  0.00  0.00    +0.210 HD
ENDBRANCH   8   2
BRANCH   7   4
ATOM      4  N   UNL     1      -3.881  -2.350  25.051  0.00  0.00    -0.305 NA
ATOM     25  H   UNL     1      -4.474  -1.996  25.802  0.00  0.00    +0.123 HD
BRANCH   4  12
ATOM     12  C   UNL     1      -4.197  -1.632  23.823  0.00  0.00    +0.116 C 
BRANCH  12  13
ATOM      6  N   UNL     1      -4.711   2.581  24.517  0.00  0.00    -0.263 NA
ATOM     13  C   UNL     1      -4.377  -0.157  24.066  0.00  0.00    -0.031 A 
ATOM     15  C   UNL     1      -5.327   0.289  24.977  0.00  0.00    +0.024 A 
ATOM     16  C   UNL     1      -3.593   0.764  23.380  0.00  0.00    +0.024 A 
ATOM     18  C   UNL     1      -5.454   1.656  25.164  0.00  0.00    +0.111 A 
ATOM     19  C   UNL     1      -3.797   2.110  23.638  0.00  0.00    +0.111 A 
ENDBRANCH  12  13
ENDBRANCH   4  12
ENDBRANCH   7   4
BRANCH   9  11
ATOM     11  C   UNL     1       0.331  -0.035  24.294  0.00  0.00    +0.138 C 
BRANCH  11   5
ATOM      3  O   UNL     1       0.895   2.052  26.183  0.00  0.00    -0.270 OA
ATOM      5  N   UNL     1      -0.330   1.235  24.391  0.00  0.00    -0.309 N 
ATOM     14  C   UNL     1       0.011   2.191  25.343  0.00  0.00    +0.244 C 
ATOM     27  H   UNL     1      -1.119   1.385  23.771  0.00  0.00    +0.149 HD
BRANCH  14  17
ATOM     17  C   UNL     1      -0.786   3.445  25.329  0.00  0.00    +0.037 A 
ATOM     20  C   UNL     1      -0.365   4.531  24.562  0.00  0.00    +0.013 A 
ATOM     21  C   UNL     1      -1.956   3.535  26.082  0.00  0.00    +0.013 A 
ATOM     22  C   UNL     1      -1.115   5.707  24.548  0.00  0.00    +0.001 A 
ATOM     23  C   UNL     1      -2.706   4.710  26.068  0.00  0.00    +0.001 A 
ATOM     24  C   UNL     1      -2.286   5.797  25.301  0.00  0.00    +0.000 A 
ENDBRANCH  14  17
ENDBRANCH  11   5
ENDBRANCH   9  11
TORSDOF 7
ENDMDL
MODEL 5
REMARK VINA RESULT:      -4.1      2.976      6.786
REMARK  Name = 75536822
REMARK  7 active torsions:
REMARK  status: ('A' for Active; 'I' for Inactive)
REMARK    1  A    between atoms: O_2  and  C_8
REMARK    2  A    between atoms: N_4  and  C_7
REMARK    3  A    between atoms: N_4  and  C_12
REMARK    4  A    between atoms: N_5  and  C_11
REMARK    5  A    between atoms: C_9  and  C_11
REMARK    6  A    between atoms: C_12  and  C_13
REMARK    7  A    between atoms: C_14  and  C_17
REMARK                            x       y       z     vdW  Elec       q    Type
REMARK                         _______ _______ _______ _____ _____    ______ ____
ROOT
ATOM      1  O   UNL     1      -0.809  -0.487  25.611  0.00  0.00    -0.371 OA
ATOM      7  C   UNL     1      -3.079  -1.168  25.778  0.00  0.00    +0.111 C 
ATOM      8  C   UNL     1      -2.610  -1.355  24.347  0.00  0.00    +0.164 C 
ATOM      9  C   UNL     1      -1.099  -1.395  24.536  0.00  0.00    +0.165 C 
ATOM     10  C   UNL     1      -2.032  -0.205  26.314  0.00  0.00    +0.181 C 
ENDROOT
BRANCH   8   2
ATOM      2  O   UNL     1      -3.101  -2.546  23.763  0.00  0.00    -0.388 OA
ATOM     26  H   UNL     1      -3.552  -3.061  24.453  0.00  0.00    +0.210 HD
ENDBRANCH   8   2
BRANCH   7   4
ATOM      4  N   UNL     1      -4.434  -0.651  25.886  0.00  0.00    -0.305 NA
ATOM     25  H   UNL     1      -4.476   0.010  26.662  0.00  0.00    +0.123 HD
BRANCH   4  12
ATOM     12  C   UNL     1      -4.835   0.032  24.662  0.00  0.00    +0.116 C 
BRANCH  12  13
ATOM      6  N   UNL     1      -4.495   4.304  25.025  0.00  0.00    -0.263 NA
ATOM     13  C   UNL     1      -4.716   1.527  24.790  0.00  0.00    -0.031 A 
ATOM     15  C   UNL     1      -5.582   2.228  25.621  0.00  0.00    +0.024 A 
ATOM     16  C   UNL     1      -3.740   2.213  24.076  0.00  0.00    +0.024 A 
ATOM     18  C   UNL     1      -5.431   3.603  25.703  0.00  0.00    +0.111 A 
ATOM     19  C   UNL     1      -3.671   3.589  24.226  0.00  0.00    +0.111 A 
ENDBRANCH  12  13
ENDBRANCH   4  12
ENDBRANCH   7   4
BRANCH   9  11
ATOM     11  C   UNL     1      -0.328  -0.984  23.295  0.00  0.00    +0.138 C 
BRANCH  11   5
ATOM      3  O   UNL     1       1.728  -0.252  21.430  0.00  0.00    -0.270 OA
ATOM      5  N   UNL     1       1.060  -0.775  23.589  0.00  0.00    -0.309 N 
ATOM     14  C   UNL     1       1.991  -0.419  22.618  0.00  0.00    +0.244 C 
ATOM     27  H   UNL     1       1.357  -0.966  24.540  0.00  0.00    +0.149 HD
BRANCH  14  17
ATOM     17  C   UNL     1       3.395  -0.264  23.080  0.00  0.00    +0.037 A 
ATOM     20  C   UNL     1       4.043  -1.328  23.707  0.00  0.00    +0.013 A 
ATOM     21  C   UNL     1       4.063   0.944  22.886  0.00  0.00    +0.013 A 
ATOM     22  C   UNL     1       5.362  -1.183  24.140  0.00  0.00    +0.001 A 
ATOM     23  C   UNL     1       5.381   1.088  23.317  0.00  0.00    +0.001 A 
ATOM     24  C   UNL     1       6.031   0.025  23.945  0.00  0.00    +0.000 A 
ENDBRANCH  14  17
ENDBRANCH  11   5
ENDBRANCH   9  11
TORSDOF 7
ENDMDL
MODEL 6
REMARK VINA RESULT:      -4.1     19.297     21.102
REMARK  Name = 75536822
REMARK  7 active torsions:
REMARK  status: ('A' for Active; 'I' for Inactive)
REMARK    1  A    between atoms: O_2  and  C_8
REMARK    2  A    between atoms: N_4  and  C_7
REMARK    3  A    between atoms: N_4  and  C_12
REMARK    4  A    between atoms: N_5  and  C_11
REMARK    5  A    between atoms: C_9  and  C_11
REMARK    6  A    between atoms: C_12  and  C_13
REMARK    7  A    between atoms: C_14  and  C_17
REMARK                            x       y       z     vdW  Elec       q    Type
REMARK                         _______ _______ _______ _____ _____    ______ ____
ROOT
ATOM      1  O   UNL     1      14.430 -10.449  27.927  0.00  0.00    -0.371 OA
ATOM      7  C   UNL     1      16.580  -9.648  27.312  0.00  0.00    +0.111 C 
ATOM      8  C   UNL     1      16.278  -9.212  28.734  0.00  0.00    +0.164 C 
ATOM      9  C   UNL     1      15.193 -10.207  29.122  0.00  0.00    +0.165 C 
ATOM     10  C   UNL     1      15.190  -9.983  26.798  0.00  0.00    +0.181 C 
ENDROOT
BRANCH   8   2
ATOM      2  O   UNL     1      17.405  -9.303  29.583  0.00  0.00    -0.388 OA
ATOM     26  H   UNL     1      18.206  -9.268  29.032  0.00  0.00    +0.210 HD
ENDBRANCH   8   2
BRANCH   7   4
ATOM      4  N   UNL     1      17.248  -8.630  26.517  0.00  0.00    -0.305 NA
ATOM     25  H   UNL     1      16.961  -8.726  25.543  0.00  0.00    +0.123 HD
BRANCH   4  12
ATOM     12  C   UNL     1      16.903  -7.291  26.981  0.00  0.00    +0.116 C 
BRANCH  12  13
ATOM      6  N   UNL     1      17.405  -4.346  23.887  0.00  0.00    -0.263 NA
ATOM     13  C   UNL     1      17.079  -6.260  25.898  0.00  0.00    -0.031 A 
ATOM     15  C   UNL     1      17.092  -4.908  26.218  0.00  0.00    +0.024 A 
ATOM     16  C   UNL     1      17.229  -6.657  24.574  0.00  0.00    +0.024 A 
ATOM     18  C   UNL     1      17.257  -3.999  25.185  0.00  0.00    +0.111 A 
ATOM     19  C   UNL     1      17.387  -5.670  23.614  0.00  0.00    +0.111 A 
ENDBRANCH  12  13
ENDBRANCH   4  12
ENDBRANCH   7   4
BRANCH   9  11
ATOM     11  C   UNL     1      14.278  -9.699  30.221  0.00  0.00    +0.138 C 
BRANCH  11   5
ATOM      3  O   UNL     1      12.683  -7.337  29.878  0.00  0.00    -0.270 OA
ATOM      5  N   UNL     1      14.628  -8.364  30.614  0.00  0.00    -0.309 N 
ATOM     14  C   UNL     1      13.788  -7.274  30.408  0.00  0.00    +0.244 C 
ATOM     27  H   UNL     1      15.559  -8.232  30.995  0.00  0.00    +0.149 HD
BRANCH  14  17
ATOM     17  C   UNL     1      14.307  -5.953  30.849  0.00  0.00    +0.037 A 
ATOM     20  C   UNL     1      15.447  -5.417  30.250  0.00  0.00    +0.013 A 
ATOM     21  C   UNL     1      13.655  -5.251  31.862  0.00  0.00    +0.013 A 
ATOM     22  C   UNL     1      15.933  -4.177  30.664  0.00  0.00    +0.001 A 
ATOM     23  C   UNL     1      14.141  -4.011  32.275  0.00  0.00    +0.001 A 
ATOM     24  C   UNL     1      15.281  -3.473  31.676  0.00  0.00    +0.000 A 
ENDBRANCH  14  17
ENDBRANCH  11   5
ENDBRANCH   9  11
TORSDOF 7
ENDMDL
MODEL 7
REMARK VINA RESULT:      -3.8      2.714      6.211
REMARK  Name = 75536822
REMARK  7 active torsions:
REMARK  status: ('A' for Active; 'I' for Inactive)
REMARK    1  A    between atoms: O_2  and  C_8
REMARK    2  A    between atoms: N_4  and  C_7
REMARK    3  A    between atoms: N_4  and  C_12
REMARK    4  A    between atoms: N_5  and  C_11
REMARK    5  A    between atoms: C_9  and  C_11
REMARK    6  A    between atoms: C_12  and  C_13
REMARK    7  A    between atoms: C_14  and  C_17
REMARK                            x       y       z     vdW  Elec       q    Type
REMARK                         _______ _______ _______ _____ _____    ______ ____
ROOT
ATOM      1  O   UNL     1      -0.780   0.164  25.710  0.00  0.00    -0.371 OA
ATOM      7  C   UNL     1      -1.416   2.332  24.973  0.00  0.00    +0.111 C 
ATOM      8  C   UNL     1      -1.115   1.466  23.763  0.00  0.00    +0.164 C 
ATOM      9  C   UNL     1      -1.258   0.071  24.357  0.00  0.00    +0.165 C 
ATOM     10  C   UNL     1      -0.723   1.553  26.080  0.00  0.00    +0.181 C 
ENDROOT
BRANCH   8   2
ATOM      2  O   UNL     1      -2.021   1.683  22.700  0.00  0.00    -0.388 OA
ATOM     26  H   UNL     1      -2.901   1.850  23.077  0.00  0.00    +0.210 HD
ENDBRANCH   8   2
BRANCH   7   4
ATOM      4  N   UNL     1      -0.930   3.697  24.851  0.00  0.00    -0.305 NA
ATOM     25  H   UNL     1      -0.552   3.833  23.914  0.00  0.00    +0.123 HD
BRANCH   4  12
ATOM     12  C   UNL     1      -2.003   4.659  25.073  0.00  0.00    +0.116 C 
BRANCH  12  13
ATOM      6  N   UNL     1      -5.847   2.743  25.303  0.00  0.00    -0.263 NA
ATOM     13  C   UNL     1      -3.348   3.988  25.154  0.00  0.00    -0.031 A 
ATOM     15  C   UNL     1      -3.999   3.875  26.376  0.00  0.00    +0.024 A 
ATOM     16  C   UNL     1      -3.945   3.480  24.005  0.00  0.00    +0.024 A 
ATOM     18  C   UNL     1      -5.236   3.250  26.397  0.00  0.00    +0.111 A 
ATOM     19  C   UNL     1      -5.183   2.871  24.132  0.00  0.00    +0.111 A 
ENDBRANCH  12  13
ENDBRANCH   4  12
ENDBRANCH   7   4
BRANCH   9  11
ATOM     11  C   UNL     1      -0.469  -0.985  23.605  0.00  0.00    +0.138 C 
BRANCH  11   5
ATOM      3  O   UNL     1       1.452  -0.193  21.624  0.00  0.00    -0.270 OA
ATOM      5  N   UNL     1       0.942  -0.818  23.799  0.00  0.00    -0.309 N 
ATOM     14  C   UNL     1       1.803  -0.428  22.777  0.00  0.00    +0.244 C 
ATOM     27  H   UNL     1       1.308  -1.066  24.712  0.00  0.00    +0.149 HD
BRANCH  14  17
ATOM     17  C   UNL     1       3.242  -0.326  23.134  0.00  0.00    +0.037 A 
ATOM     20  C   UNL     1       3.896  -1.414  23.711  0.00  0.00    +0.013 A 
ATOM     21  C   UNL     1       3.937   0.858  22.892  0.00  0.00    +0.013 A 
ATOM     22  C   UNL     1       5.247  -1.318  24.045  0.00  0.00    +0.001 A 
ATOM     23  C   UNL     1       5.288   0.954  23.225  0.00  0.00    +0.001 A 
ATOM     24  C   UNL     1       5.943  -0.134  23.802  0.00  0.00    +0.000 A 
ENDBRANCH  14  17
ENDBRANCH  11   5
ENDBRANCH   9  11
TORSDOF 7
ENDMDL
MODEL 8
REMARK VINA RESULT:      -3.7      1.977      4.218
REMARK  Name = 75536822
REMARK  7 active torsions:
REMARK  status: ('A' for Active; 'I' for Inactive)
REMARK    1  A    between atoms: O_2  and  C_8
REMARK    2  A    between atoms: N_4  and  C_7
REMARK    3  A    between atoms: N_4  and  C_12
REMARK    4  A    between atoms: N_5  and  C_11
REMARK    5  A    between atoms: C_9  and  C_11
REMARK    6  A    between atoms: C_12  and  C_13
REMARK    7  A    between atoms: C_14  and  C_17
REMARK                            x       y       z     vdW  Elec       q    Type
REMARK                         _______ _______ _______ _____ _____    ______ ____
ROOT
ATOM      1  O   UNL     1       0.170   3.738  25.962  0.00  0.00    -0.371 OA
ATOM      7  C   UNL     1       0.413   1.683  24.796  0.00  0.00    +0.111 C 
ATOM      8  C   UNL     1      -0.658   2.515  24.115  0.00  0.00    +0.164 C 
ATOM      9  C   UNL     1      -0.311   3.910  24.619  0.00  0.00    +0.165 C 
ATOM     10  C   UNL     1       0.490   2.350  26.160  0.00  0.00    +0.181 C 
ENDROOT
BRANCH   8   2
ATOM      2  O   UNL     1      -0.598   2.433  22.705  0.00  0.00    -0.388 OA
ATOM     26  H   UNL     1      -0.783   3.314  22.339  0.00  0.00    +0.210 HD
ENDBRANCH   8   2
BRANCH   7   4
ATOM      4  N   UNL     1       0.091   0.267  24.875  0.00  0.00    -0.305 NA
ATOM     25  H   UNL     1       0.898  -0.237  25.243  0.00  0.00    +0.123 HD
BRANCH   4  12
ATOM     12  C   UNL     1      -1.051   0.035  25.750  0.00  0.00    +0.116 C 
BRANCH  12  13
ATOM      6  N   UNL     1      -3.945  -2.586  23.948  0.00  0.00    -0.263 NA
ATOM     13  C   UNL     1      -2.064  -0.882  25.119  0.00  0.00    -0.031 A 
ATOM     15  C   UNL     1      -3.351  -0.426  24.859  0.00  0.00    +0.024 A 
ATOM     16  C   UNL     1      -1.716  -2.188  24.795  0.00  0.00    +0.024 A 
ATOM     18  C   UNL     1      -4.246  -1.310  24.277  0.00  0.00    +0.111 A 
ATOM     19  C   UNL     1      -2.684  -2.993  24.216  0.00  0.00    +0.111 A 
ENDBRANCH  12  13
ENDBRANCH   4  12
ENDBRANCH   7   4
BRANCH   9  11
ATOM     11  C   UNL     1      -1.494   4.860  24.615  0.00  0.00    +0.138 C 
BRANCH  11   5
ATOM      3  O   UNL     1      -2.951   3.917  26.901  0.00  0.00    -0.270 OA
ATOM      5  N   UNL     1      -2.738   4.145  24.603  0.00  0.00    -0.309 N 
ATOM     14  C   UNL     1      -3.377   3.725  25.766  0.00  0.00    +0.244 C 
ATOM     27  H   UNL     1      -3.108   3.892  23.693  0.00  0.00    +0.149 HD
BRANCH  14  17
ATOM     17  C   UNL     1      -4.645   2.973  25.583  0.00  0.00    +0.037 A 
ATOM     20  C   UNL     1      -4.999   2.500  24.319  0.00  0.00    +0.013 A 
ATOM     21  C   UNL     1      -5.481   2.741  26.674  0.00  0.00    +0.013 A 
ATOM     22  C   UNL     1      -6.189   1.793  24.149  0.00  0.00    +0.001 A 
ATOM     23  C   UNL     1      -6.671   2.034  26.503  0.00  0.00    +0.001 A 
ATOM     24  C   UNL     1      -7.026   1.560  25.240  0.00  0.00    +0.000 A 
ENDBRANCH  14  17
ENDBRANCH  11   5
ENDBRANCH   9  11
TORSDOF 7
ENDMDL
MODEL 9
REMARK VINA RESULT:      -3.5     19.568     21.246
REMARK  Name = 75536822
REMARK  7 active torsions:
REMARK  status: ('A' for Active; 'I' for Inactive)
REMARK    1  A    between atoms: O_2  and  C_8
REMARK    2  A    between atoms: N_4  and  C_7
REMARK    3  A    between atoms: N_4  and  C_12
REMARK    4  A    between atoms: N_5  and  C_11
REMARK    5  A    between atoms: C_9  and  C_11
REMARK    6  A    between atoms: C_12  and  C_13
REMARK    7  A    between atoms: C_14  and  C_17
REMARK                            x       y       z     vdW  Elec       q    Type
REMARK                         _______ _______ _______ _____ _____    ______ ____
ROOT
ATOM      1  O   UNL     1      12.963  -8.440  30.914  0.00  0.00    -0.371 OA
ATOM      7  C   UNL     1      14.773  -9.950  30.620  0.00  0.00    +0.111 C 
ATOM      8  C   UNL     1      15.075  -9.038  31.795  0.00  0.00    +0.164 C 
ATOM      9  C   UNL     1      13.678  -8.551  32.156  0.00  0.00    +0.165 C 
ATOM     10  C   UNL     1      13.684  -9.168  29.904  0.00  0.00    +0.181 C 
ENDROOT
BRANCH   8   2
ATOM      2  O   UNL     1      15.691  -9.719  32.870  0.00  0.00    -0.388 OA
ATOM     26  H   UNL     1      16.624  -9.870  32.642  0.00  0.00    +0.210 HD
ENDBRANCH   8   2
BRANCH   7   4
ATOM      4  N   UNL     1      15.926 -10.218  29.776  0.00  0.00    -0.305 NA
ATOM     25  H   UNL     1      15.606 -10.600  28.886  0.00  0.00    +0.123 HD
BRANCH   4  12
ATOM     12  C   UNL     1      16.685  -9.000  29.521  0.00  0.00    +0.116 C 
BRANCH  12  13
ATOM      6  N   UNL     1      16.507  -7.837  25.384  0.00  0.00    -0.263 NA
ATOM     13  C   UNL     1      16.623  -8.593  28.073  0.00  0.00    -0.031 A 
ATOM     15  C   UNL     1      16.945  -9.507  27.077  0.00  0.00    +0.024 A 
ATOM     16  C   UNL     1      16.242  -7.302  27.727  0.00  0.00    +0.024 A 
ATOM     18  C   UNL     1      16.872  -9.084  25.760  0.00  0.00    +0.111 A 
ATOM     19  C   UNL     1      16.200  -6.976  26.380  0.00  0.00    +0.111 A 
ENDBRANCH  12  13
ENDBRANCH   4  12
ENDBRANCH   7   4
BRANCH   9  11
ATOM     11  C   UNL     1      13.675  -7.213  32.872  0.00  0.00    +0.138 C 
BRANCH  11   5
ATOM      3  O   UNL     1      13.144  -4.467  32.223  0.00  0.00    -0.270 OA
ATOM      5  N   UNL     1      14.581  -6.288  32.253  0.00  0.00    -0.309 N 
ATOM     14  C   UNL     1      14.237  -4.969  31.974  0.00  0.00    +0.244 C 
ATOM     27  H   UNL     1      15.477  -6.660  31.957  0.00  0.00    +0.149 HD
BRANCH  14  17
ATOM     17  C   UNL     1      15.279  -4.146  31.307  0.00  0.00    +0.037 A 
ATOM     20  C   UNL     1      15.547  -2.855  31.764  0.00  0.00    +0.013 A 
ATOM     21  C   UNL     1      15.989  -4.664  30.225  0.00  0.00    +0.013 A 
ATOM     22  C   UNL     1      16.526  -2.084  31.138  0.00  0.00    +0.001 A 
ATOM     23  C   UNL     1      16.968  -3.893  29.600  0.00  0.00    +0.001 A 
ATOM     24  C   UNL     1      17.237  -2.603  30.056  0.00  0.00    +0.000 A 
ENDBRANCH  14  17
ENDBRANCH  11   5
ENDBRANCH   9  11
TORSDOF 7
ENDMDL
MODEL 10
REMARK VINA RESULT:      -3.4      2.325      5.273
REMARK  Name = 75536822
REMARK  7 active torsions:
REMARK  status: ('A' for Active; 'I' for Inactive)
REMARK    1  A    between atoms: O_2  and  C_8
REMARK    2  A    between atoms: N_4  and  C_7
REMARK    3  A    between atoms: N_4  and  C_12
REMARK    4  A    between atoms: N_5  and  C_11
REMARK    5  A    between atoms: C_9  and  C_11
REMARK    6  A    between atoms: C_12  and  C_13
REMARK    7  A    between atoms: C_14  and  C_17
REMARK                            x       y       z     vdW  Elec       q    Type
REMARK                         _______ _______ _______ _____ _____    ______ ____
ROOT
ATOM      1  O   UNL     1      -3.042  -2.315  24.211  0.00  0.00    -0.371 OA
ATOM      7  C   UNL     1      -0.860  -2.121  25.131  0.00  0.00    +0.111 C 
ATOM      8  C   UNL     1      -1.685  -0.920  25.556  0.00  0.00    +0.164 C 
ATOM      9  C   UNL     1      -3.099  -1.450  25.358  0.00  0.00    +0.165 C 
ATOM     10  C   UNL     1      -1.665  -2.635  23.948  0.00  0.00    +0.181 C 
ENDROOT
BRANCH   8   2
ATOM      2  O   UNL     1      -1.446  -0.542  26.897  0.00  0.00    -0.388 OA
ATOM     26  H   UNL     1      -0.964  -1.263  27.337  0.00  0.00    +0.210 HD
ENDBRANCH   8   2
BRANCH   7   4
ATOM      4  N   UNL     1       0.513  -1.794  24.783  0.00  0.00    -0.305 NA
ATOM     25  H   UNL     1       0.969  -2.626  24.410  0.00  0.00    +0.123 HD
BRANCH   4  12
ATOM     12  C   UNL     1       0.564  -0.738  23.780  0.00  0.00    +0.116 C 
BRANCH  12  13
ATOM      6  N   UNL     1       4.605   0.434  22.891  0.00  0.00    -0.263 NA
ATOM     13  C   UNL     1       1.978  -0.328  23.468  0.00  0.00    -0.031 A 
ATOM     15  C   UNL     1       3.027  -1.212  23.693  0.00  0.00    +0.024 A 
ATOM     16  C   UNL     1       2.242   0.937  22.955  0.00  0.00    +0.024 A 
ATOM     18  C   UNL     1       4.310  -0.787  23.391  0.00  0.00    +0.111 A 
ATOM     19  C   UNL     1       3.560   1.267  22.686  0.00  0.00    +0.111 A 
ENDBRANCH  12  13
ENDBRANCH   4  12
ENDBRANCH   7   4
BRANCH   9  11
ATOM     11  C   UNL     1      -4.123  -0.354  25.124  0.00  0.00    +0.138 C 
BRANCH  11   5
ATOM      3  O   UNL     1      -2.810   1.153  23.064  0.00  0.00    -0.270 OA
ATOM      5  N   UNL     1      -3.534   0.947  25.258  0.00  0.00    -0.309 N 
ATOM     14  C   UNL     1      -2.915   1.606  24.199  0.00  0.00    +0.244 C 
ATOM     27  H   UNL     1      -3.524   1.348  26.189  0.00  0.00    +0.149 HD
BRANCH  14  17
ATOM     17  C   UNL     1      -2.331   2.938  24.507  0.00  0.00    +0.037 A 
ATOM     20  C   UNL     1      -0.995   3.200  24.202  0.00  0.00    +0.013 A 
ATOM     21  C   UNL     1      -3.118   3.923  25.101  0.00  0.00    +0.013 A 
ATOM     22  C   UNL     1      -0.448   4.451  24.490  0.00  0.00    +0.001 A 
ATOM     23  C   UNL     1      -2.571   5.173  25.388  0.00  0.00    +0.001 A 
ATOM     24  C   UNL     1      -1.236   5.437  25.083  0.00  0.00    +0.000 A 
ENDBRANCH  14  17
ENDBRANCH  11   5
ENDBRANCH   9  11
TORSDOF 7
ENDMDL
