MODEL 1
REMARK VINA RESULT:      -3.7      0.000      0.000
REMARK  Name = 25338953
REMARK  7 active torsions:
REMARK  status: ('A' for Active; 'I' for Inactive)
REMARK    1  A    between atoms: S_1  and  N_7
REMARK    2  A    between atoms: S_1  and  C_18
REMARK    3  A    between atoms: O_5  and  C_15
REMARK    4  A    between atoms: O_5  and  C_25
REMARK    5  A    between atoms: N_8  and  C_16
REMARK    6  A    between atoms: C_10  and  C_15
REMARK    7  A    between atoms: C_16  and  C_19
REMARK                            x       y       z     vdW  Elec       q    Type
REMARK                         _______ _______ _______ _____ _____    ______ ____
ROOT
ATOM      7  N   UNL     1      -1.844   2.216  23.949  0.00  0.00    -0.156 NA
ATOM      8  N   UNL     1       0.582  -0.622  23.649  0.00  0.00    -0.328 N 
ATOM      9  N   UNL     1      -0.442  -1.399  25.476  0.00  0.00    -0.240 NA
ATOM     10  C   UNL     1      -2.042   2.045  25.436  0.00  0.00    +0.194 C 
ATOM     11  C   UNL     1      -1.984   0.569  25.880  0.00  0.00    +0.089 C 
ATOM     12  C   UNL     1      -0.562   1.641  23.388  0.00  0.00    +0.165 C 
ATOM     13  C   UNL     1      -0.311   0.335  24.026  0.00  0.00    +0.057 A 
ATOM     14  C   UNL     1      -0.923  -0.162  25.151  0.00  0.00    +0.066 A 
ATOM     17  C   UNL     1       0.465  -1.648  24.553  0.00  0.00    +0.200 A 
ENDROOT
BRANCH   7   1
ATOM      1  S   UNL     1      -3.246   1.992  22.984  0.00  0.00    +0.068 S 
ATOM      3  O   UNL     1      -3.311   0.611  22.559  0.00  0.00    -0.152 OA
ATOM      4  O   UNL     1      -3.331   3.073  22.025  0.00  0.00    -0.152 OA
BRANCH   1  18
ATOM      2  S   UNL     1      -4.641   3.855  24.762  0.00  0.00    -0.077 S 
ATOM     18  C   UNL     1      -4.501   2.244  24.200  0.00  0.00    +0.143 A 
ATOM     20  C   UNL     1      -5.409   1.404  24.805  0.00  0.00    +0.036 A 
ATOM     23  C   UNL     1      -6.231   2.093  25.743  0.00  0.00    +0.010 A 
ATOM     24  C   UNL     1      -5.920   3.432  25.818  0.00  0.00    +0.047 A 
ENDBRANCH   1  18
ENDBRANCH   7   1
BRANCH  10  15
ATOM      6  O   UNL     1       0.009   2.439  26.631  0.00  0.00    -0.249 OA
ATOM     15  C   UNL     1      -1.002   2.887  26.108  0.00  0.00    +0.326 C 
BRANCH  15   5
ATOM      5  O   UNL     1      -1.363   4.200  26.038  0.00  0.00    -0.467 OA
ATOM     25  C   UNL     1      -0.821   4.929  24.933  0.00  0.00    +0.280 C 
ENDBRANCH  15   5
ENDBRANCH  10  15
BRANCH   8  16
ATOM     16  C   UNL     1       1.487  -0.580  22.526  0.00  0.00    +0.158 C 
BRANCH  16  19
ATOM     19  C   UNL     1       2.925  -0.350  22.926  0.00  0.00    -0.028 A 
ATOM     21  C   UNL     1       3.535   0.875  22.659  0.00  0.00    +0.005 A 
ATOM     22  C   UNL     1       3.642  -1.362  23.562  0.00  0.00    +0.005 A 
ATOM     26  C   UNL     1       4.863   1.089  23.028  0.00  0.00    +0.000 A 
ATOM     27  C   UNL     1       4.971  -1.150  23.931  0.00  0.00    +0.000 A 
ATOM     28  C   UNL     1       5.581   0.076  23.664  0.00  0.00    +0.000 A 
ENDBRANCH  16  19
ENDBRANCH   8  16
TORSDOF 6
ENDMDL
MODEL 2
REMARK VINA RESULT:      -1.9      2.144      3.732
REMARK  Name = 25338953
REMARK  7 active torsions:
REMARK  status: ('A' for Active; 'I' for Inactive)
REMARK    1  A    between atoms: S_1  and  N_7
REMARK    2  A    between atoms: S_1  and  C_18
REMARK    3  A    between atoms: O_5  and  C_15
REMARK    4  A    between atoms: O_5  and  C_25
REMARK    5  A    between atoms: N_8  and  C_16
REMARK    6  A    between atoms: C_10  and  C_15
REMARK    7  A    between atoms: C_16  and  C_19
REMARK                            x       y       z     vdW  Elec       q    Type
REMARK                         _______ _______ _______ _____ _____    ______ ____
ROOT
ATOM      7  N   UNL     1      -3.429   0.822  23.918  0.00  0.00    -0.156 NA
ATOM      8  N   UNL     1       0.299   1.141  23.738  0.00  0.00    -0.328 N 
ATOM      9  N   UNL     1       0.052   2.444  25.537  0.00  0.00    -0.240 NA
ATOM     10  C   UNL     1      -3.625   2.134  24.637  0.00  0.00    +0.194 C 
ATOM     11  C   UNL     1      -2.480   2.454  25.619  0.00  0.00    +0.089 C 
ATOM     12  C   UNL     1      -2.137   0.686  23.141  0.00  0.00    +0.165 C 
ATOM     13  C   UNL     1      -1.042   1.266  23.941  0.00  0.00    +0.057 A 
ATOM     14  C   UNL     1      -1.169   2.073  25.046  0.00  0.00    +0.066 A 
ATOM     17  C   UNL     1       0.917   1.867  24.726  0.00  0.00    +0.200 A 
ENDROOT
BRANCH   7   1
ATOM      1  S   UNL     1      -3.932  -0.577  24.777  0.00  0.00    +0.068 S 
ATOM      3  O   UNL     1      -4.600  -1.477  23.863  0.00  0.00    -0.152 OA
ATOM      4  O   UNL     1      -4.560  -0.166  26.014  0.00  0.00    -0.152 OA
BRANCH   1  18
ATOM      2  S   UNL     1      -1.894  -2.596  24.187  0.00  0.00    -0.077 S 
ATOM     18  C   UNL     1      -2.360  -1.276  25.172  0.00  0.00    +0.143 A 
ATOM     20  C   UNL     1      -1.410  -0.981  26.125  0.00  0.00    +0.036 A 
ATOM     23  C   UNL     1      -0.284  -1.850  26.044  0.00  0.00    +0.010 A 
ATOM     24  C   UNL     1      -0.416  -2.776  25.033  0.00  0.00    +0.047 A 
ENDBRANCH   1  18
ENDBRANCH   7   1
BRANCH  10  15
ATOM      6  O   UNL     1      -3.523   3.012  22.399  0.00  0.00    -0.249 OA
ATOM     15  C   UNL     1      -3.784   3.184  23.581  0.00  0.00    +0.326 C 
BRANCH  15   5
ATOM      5  O   UNL     1      -4.258   4.331  24.146  0.00  0.00    -0.467 OA
ATOM     25  C   UNL     1      -5.200   4.150  25.207  0.00  0.00    +0.280 C 
ENDBRANCH  15   5
ENDBRANCH  10  15
BRANCH   8  16
ATOM     16  C   UNL     1       0.959   0.400  22.691  0.00  0.00    +0.158 C 
BRANCH  16  19
ATOM     19  C   UNL     1       2.418   0.135  22.975  0.00  0.00    -0.028 A 
ATOM     21  C   UNL     1       3.368   1.122  22.716  0.00  0.00    +0.005 A 
ATOM     22  C   UNL     1       2.815  -1.096  23.496  0.00  0.00    +0.005 A 
ATOM     26  C   UNL     1       4.716   0.878  22.978  0.00  0.00    +0.000 A 
ATOM     27  C   UNL     1       4.163  -1.341  23.757  0.00  0.00    +0.000 A 
ATOM     28  C   UNL     1       5.114  -0.354  23.499  0.00  0.00    +0.000 A 
ENDBRANCH  16  19
ENDBRANCH   8  16
TORSDOF 6
ENDMDL
MODEL 3
REMARK VINA RESULT:      -1.4      2.233      6.139
REMARK  Name = 25338953
REMARK  7 active torsions:
REMARK  status: ('A' for Active; 'I' for Inactive)
REMARK    1  A    between atoms: S_1  and  N_7
REMARK    2  A    between atoms: S_1  and  C_18
REMARK    3  A    between atoms: O_5  and  C_15
REMARK    4  A    between atoms: O_5  and  C_25
REMARK    5  A    between atoms: N_8  and  C_16
REMARK    6  A    between atoms: C_10  and  C_15
REMARK    7  A    between atoms: C_16  and  C_19
REMARK                            x       y       z     vdW  Elec       q    Type
REMARK                         _______ _______ _______ _____ _____    ______ ____
ROOT
ATOM      7  N   UNL     1      -0.313   1.217  24.509  0.00  0.00    -0.156 NA
ATOM      8  N   UNL     1      -3.377  -0.888  24.042  0.00  0.00    -0.328 N 
ATOM      9  N   UNL     1      -2.081  -2.546  24.796  0.00  0.00    -0.240 NA
ATOM     10  C   UNL     1       0.647   0.062  24.366  0.00  0.00    +0.194 C 
ATOM     11  C   UNL     1       0.091  -1.252  24.952  0.00  0.00    +0.089 C 
ATOM     12  C   UNL     1      -1.683   1.012  23.898  0.00  0.00    +0.165 C 
ATOM     13  C   UNL     1      -2.127  -0.365  24.189  0.00  0.00    +0.057 A 
ATOM     14  C   UNL     1      -1.350  -1.400  24.646  0.00  0.00    +0.066 A 
ATOM     17  C   UNL     1      -3.299  -2.205  24.422  0.00  0.00    +0.200 A 
ENDROOT
BRANCH   7   1
ATOM      1  S   UNL     1      -0.288   2.020  26.027  0.00  0.00    +0.068 S 
ATOM      3  O   UNL     1       1.084   2.281  26.400  0.00  0.00    -0.152 OA
ATOM      4  O   UNL     1      -1.192   1.340  26.930  0.00  0.00    -0.152 OA
BRANCH   1  18
ATOM      2  S   UNL     1      -0.233   4.390  24.306  0.00  0.00    -0.077 S 
ATOM     18  C   UNL     1      -1.028   3.557  25.574  0.00  0.00    +0.143 A 
ATOM     20  C   UNL     1      -2.130   4.245  26.032  0.00  0.00    +0.036 A 
ATOM     23  C   UNL     1      -2.325   5.470  25.333  0.00  0.00    +0.010 A 
ATOM     24  C   UNL     1      -1.364   5.673  24.367  0.00  0.00    +0.047 A 
ENDBRANCH   1  18
ENDBRANCH   7   1
BRANCH  10  15
ATOM      6  O   UNL     1       0.359  -0.766  22.125  0.00  0.00    -0.249 OA
ATOM     15  C   UNL     1       0.969  -0.052  22.909  0.00  0.00    +0.326 C 
BRANCH  15   5
ATOM      5  O   UNL     1       2.028   0.754  22.612  0.00  0.00    -0.467 OA
ATOM     25  C   UNL     1       3.316   0.137  22.704  0.00  0.00    +0.280 C 
ENDBRANCH  15   5
ENDBRANCH  10  15
BRANCH   8  16
ATOM     16  C   UNL     1      -4.560  -0.209  23.575  0.00  0.00    +0.158 C 
BRANCH  16  19
ATOM     19  C   UNL     1      -4.893   1.028  24.373  0.00  0.00    -0.028 A 
ATOM     21  C   UNL     1      -5.573   0.912  25.585  0.00  0.00    +0.005 A 
ATOM     22  C   UNL     1      -4.524   2.286  23.898  0.00  0.00    +0.005 A 
ATOM     26  C   UNL     1      -5.881   2.054  26.324  0.00  0.00    +0.000 A 
ATOM     27  C   UNL     1      -4.833   3.429  24.636  0.00  0.00    +0.000 A 
ATOM     28  C   UNL     1      -5.511   3.313  25.849  0.00  0.00    +0.000 A 
ENDBRANCH  16  19
ENDBRANCH   8  16
TORSDOF 6
ENDMDL
MODEL 4
REMARK VINA RESULT:      -1.1      2.705      6.452
REMARK  Name = 25338953
REMARK  7 active torsions:
REMARK  status: ('A' for Active; 'I' for Inactive)
REMARK    1  A    between atoms: S_1  and  N_7
REMARK    2  A    between atoms: S_1  and  C_18
REMARK    3  A    between atoms: O_5  and  C_15
REMARK    4  A    between atoms: O_5  and  C_25
REMARK    5  A    between atoms: N_8  and  C_16
REMARK    6  A    between atoms: C_10  and  C_15
REMARK    7  A    between atoms: C_16  and  C_19
REMARK                            x       y       z     vdW  Elec       q    Type
REMARK                         _______ _______ _______ _____ _____    ______ ____
ROOT
ATOM      7  N   UNL     1      -0.142   1.064  24.407  0.00  0.00    -0.156 NA
ATOM      8  N   UNL     1      -3.861   1.518  24.416  0.00  0.00    -0.328 N 
ATOM      9  N   UNL     1      -3.438   3.179  22.982  0.00  0.00    -0.240 NA
ATOM     10  C   UNL     1       0.150   2.493  24.021  0.00  0.00    +0.194 C 
ATOM     11  C   UNL     1      -0.908   3.082  23.067  0.00  0.00    +0.089 C 
ATOM     12  C   UNL     1      -1.492   0.820  25.049  0.00  0.00    +0.165 C 
ATOM     13  C   UNL     1      -2.505   1.619  24.333  0.00  0.00    +0.057 A 
ATOM     14  C   UNL     1      -2.270   2.647  23.453  0.00  0.00    +0.066 A 
ATOM     17  C   UNL     1      -4.379   2.478  23.583  0.00  0.00    +0.200 A 
ENDROOT
BRANCH   7   1
ATOM      1  S   UNL     1       0.375  -0.129  23.286  0.00  0.00    +0.068 S 
ATOM      3  O   UNL     1      -0.223   0.143  21.998  0.00  0.00    -0.152 OA
ATOM      4  O   UNL     1       0.259  -1.433  23.903  0.00  0.00    -0.152 OA
BRANCH   1  18
ATOM      2  S   UNL     1       3.153  -1.027  23.521  0.00  0.00    -0.077 S 
ATOM     18  C   UNL     1       2.091   0.272  23.181  0.00  0.00    +0.143 A 
ATOM     20  C   UNL     1       2.772   1.431  22.878  0.00  0.00    +0.036 A 
ATOM     23  C   UNL     1       4.184   1.249  22.925  0.00  0.00    +0.010 A 
ATOM     24  C   UNL     1       4.528  -0.041  23.262  0.00  0.00    +0.047 A 
ENDBRANCH   1  18
ENDBRANCH   7   1
BRANCH  10  15
ATOM      6  O   UNL     1       0.661   2.795  26.353  0.00  0.00    -0.249 OA
ATOM     15  C   UNL     1       0.266   3.268  25.297  0.00  0.00    +0.326 C 
BRANCH  15   5
ATOM      5  O   UNL     1      -0.131   4.556  25.086  0.00  0.00    -0.467 OA
ATOM     25  C   UNL     1      -1.462   4.866  25.508  0.00  0.00    +0.280 C 
ENDBRANCH  15   5
ENDBRANCH  10  15
BRANCH   8  16
ATOM     16  C   UNL     1      -4.621   0.593  25.222  0.00  0.00    +0.158 C 
BRANCH  16  19
ATOM     19  C   UNL     1      -4.187  -0.842  25.053  0.00  0.00    -0.028 A 
ATOM     21  C   UNL     1      -4.483  -1.525  23.874  0.00  0.00    +0.005 A 
ATOM     22  C   UNL     1      -3.491  -1.486  26.076  0.00  0.00    +0.005 A 
ATOM     26  C   UNL     1      -4.082  -2.852  23.717  0.00  0.00    +0.000 A 
ATOM     27  C   UNL     1      -3.091  -2.813  25.920  0.00  0.00    +0.000 A 
ATOM     28  C   UNL     1      -3.386  -3.496  24.740  0.00  0.00    +0.000 A 
ENDBRANCH  16  19
ENDBRANCH   8  16
TORSDOF 6
ENDMDL
MODEL 5
REMARK VINA RESULT:      -0.4      1.614      2.414
REMARK  Name = 25338953
REMARK  7 active torsions:
REMARK  status: ('A' for Active; 'I' for Inactive)
REMARK    1  A    between atoms: S_1  and  N_7
REMARK    2  A    between atoms: S_1  and  C_18
REMARK    3  A    between atoms: O_5  and  C_15
REMARK    4  A    between atoms: O_5  and  C_25
REMARK    5  A    between atoms: N_8  and  C_16
REMARK    6  A    between atoms: C_10  and  C_15
REMARK    7  A    between atoms: C_16  and  C_19
REMARK                            x       y       z     vdW  Elec       q    Type
REMARK                         _______ _______ _______ _____ _____    ______ ____
ROOT
ATOM      7  N   UNL     1      -0.234   3.241  25.277  0.00  0.00    -0.156 NA
ATOM      8  N   UNL     1       0.435  -0.064  23.646  0.00  0.00    -0.328 N 
ATOM      9  N   UNL     1      -1.027  -0.848  25.143  0.00  0.00    -0.240 NA
ATOM     10  C   UNL     1      -0.645   2.639  26.599  0.00  0.00    +0.194 C 
ATOM     11  C   UNL     1      -1.391   1.299  26.438  0.00  0.00    +0.089 C 
ATOM     12  C   UNL     1       0.631   2.364  24.398  0.00  0.00    +0.165 C 
ATOM     13  C   UNL     1       0.116   0.983  24.458  0.00  0.00    +0.057 A 
ATOM     14  C   UNL     1      -0.777   0.477  25.370  0.00  0.00    +0.066 A 
ATOM     17  C   UNL     1      -0.280  -1.145  24.098  0.00  0.00    +0.200 A 
ENDROOT
BRANCH   7   1
ATOM      1  S   UNL     1      -1.445   4.146  24.465  0.00  0.00    +0.068 S 
ATOM      3  O   UNL     1      -1.077   4.286  23.073  0.00  0.00    -0.152 OA
ATOM      4  O   UNL     1      -1.784   5.301  25.267  0.00  0.00    -0.152 OA
BRANCH   1  18
ATOM      2  S   UNL     1      -4.002   3.417  25.696  0.00  0.00    -0.077 S 
ATOM     18  C   UNL     1      -2.792   3.008  24.555  0.00  0.00    +0.143 A 
ATOM     20  C   UNL     1      -3.083   1.837  23.891  0.00  0.00    +0.036 A 
ATOM     23  C   UNL     1      -4.315   1.269  24.324  0.00  0.00    +0.010 A 
ATOM     24  C   UNL     1      -4.919   2.027  25.302  0.00  0.00    +0.047 A 
ENDBRANCH   1  18
ENDBRANCH   7   1
BRANCH  10  15
ATOM      6  O   UNL     1       1.731   2.651  26.975  0.00  0.00    -0.249 OA
ATOM     15  C   UNL     1       0.600   2.508  27.418  0.00  0.00    +0.326 C 
BRANCH  15   5
ATOM      5  O   UNL     1       0.269   2.211  28.707  0.00  0.00    -0.467 OA
ATOM     25  C   UNL     1       1.325   2.352  29.662  0.00  0.00    +0.280 C 
ENDBRANCH  15   5
ENDBRANCH  10  15
BRANCH   8  16
ATOM     16  C   UNL     1       1.349  -0.058  22.530  0.00  0.00    +0.158 C 
BRANCH  16  19
ATOM     19  C   UNL     1       2.799  -0.118  22.945  0.00  0.00    -0.028 A 
ATOM     21  C   UNL     1       3.312  -1.283  23.515  0.00  0.00    +0.005 A 
ATOM     22  C   UNL     1       3.624   0.990  22.760  0.00  0.00    +0.005 A 
ATOM     26  C   UNL     1       4.652  -1.340  23.898  0.00  0.00    +0.000 A 
ATOM     27  C   UNL     1       4.964   0.934  23.144  0.00  0.00    +0.000 A 
ATOM     28  C   UNL     1       5.478  -0.231  23.713  0.00  0.00    +0.000 A 
ENDBRANCH  16  19
ENDBRANCH   8  16
TORSDOF 6
ENDMDL
MODEL 6
REMARK VINA RESULT:      -0.3      2.378      4.960
REMARK  Name = 25338953
REMARK  7 active torsions:
REMARK  status: ('A' for Active; 'I' for Inactive)
REMARK    1  A    between atoms: S_1  and  N_7
REMARK    2  A    between atoms: S_1  and  C_18
REMARK    3  A    between atoms: O_5  and  C_15
REMARK    4  A    between atoms: O_5  and  C_25
REMARK    5  A    between atoms: N_8  and  C_16
REMARK    6  A    between atoms: C_10  and  C_15
REMARK    7  A    between atoms: C_16  and  C_19
REMARK                            x       y       z     vdW  Elec       q    Type
REMARK                         _______ _______ _______ _____ _____    ______ ____
ROOT
ATOM      7  N   UNL     1      -2.470  -0.351  24.519  0.00  0.00    -0.156 NA
ATOM      8  N   UNL     1       0.640   1.714  24.844  0.00  0.00    -0.328 N 
ATOM      9  N   UNL     1       1.418   0.395  23.216  0.00  0.00    -0.240 NA
ATOM     10  C   UNL     1      -1.753  -1.557  23.965  0.00  0.00    +0.194 C 
ATOM     11  C   UNL     1      -0.560  -1.181  23.063  0.00  0.00    +0.089 C 
ATOM     12  C   UNL     1      -1.614   0.615  25.310  0.00  0.00    +0.165 C 
ATOM     13  C   UNL     1      -0.319   0.771  24.620  0.00  0.00    +0.057 A 
ATOM     14  C   UNL     1       0.183  -0.028  23.622  0.00  0.00    +0.066 A 
ATOM     17  C   UNL     1       1.666   1.446  23.973  0.00  0.00    +0.200 A 
ENDROOT
BRANCH   7   1
ATOM      1  S   UNL     1      -3.632   0.365  23.478  0.00  0.00    +0.068 S 
ATOM      3  O   UNL     1      -4.425  -0.679  22.867  0.00  0.00    -0.152 OA
ATOM      4  O   UNL     1      -2.981   1.376  22.674  0.00  0.00    -0.152 OA
BRANCH   1  18
ATOM      2  S   UNL     1      -4.932   2.844  24.343  0.00  0.00    -0.077 S 
ATOM     18  C   UNL     1      -4.645   1.187  24.668  0.00  0.00    +0.143 A 
ATOM     20  C   UNL     1      -5.266   0.772  25.826  0.00  0.00    +0.036 A 
ATOM     23  C   UNL     1      -5.987   1.828  26.453  0.00  0.00    +0.010 A 
ATOM     24  C   UNL     1      -5.890   3.010  25.752  0.00  0.00    +0.047 A 
ENDBRANCH   1  18
ENDBRANCH   7   1
BRANCH  10  15
ATOM      6  O   UNL     1      -0.187  -2.525  25.515  0.00  0.00    -0.249 OA
ATOM     15  C   UNL     1      -1.343  -2.392  25.138  0.00  0.00    +0.326 C 
BRANCH  15   5
ATOM      5  O   UNL     1      -2.448  -2.960  25.701  0.00  0.00    -0.467 OA
ATOM     25  C   UNL     1      -3.513  -3.263  24.796  0.00  0.00    +0.280 C 
ENDBRANCH  15   5
ENDBRANCH  10  15
BRANCH   8  16
ATOM     16  C   UNL     1       0.603   2.786  25.808  0.00  0.00    +0.158 C 
BRANCH  16  19
ATOM     19  C   UNL     1      -0.580   3.707  25.633  0.00  0.00    -0.028 A 
ATOM     21  C   UNL     1      -0.507   4.770  24.733  0.00  0.00    +0.005 A 
ATOM     22  C   UNL     1      -1.744   3.496  26.371  0.00  0.00    +0.005 A 
ATOM     26  C   UNL     1      -1.600   5.621  24.570  0.00  0.00    +0.000 A 
ATOM     27  C   UNL     1      -2.836   4.348  26.209  0.00  0.00    +0.000 A 
ATOM     28  C   UNL     1      -2.765   5.410  25.309  0.00  0.00    +0.000 A 
ENDBRANCH  16  19
ENDBRANCH   8  16
TORSDOF 6
ENDMDL
MODEL 7
REMARK VINA RESULT:      -0.2      3.256      6.435
REMARK  Name = 25338953
REMARK  7 active torsions:
REMARK  status: ('A' for Active; 'I' for Inactive)
REMARK    1  A    between atoms: S_1  and  N_7
REMARK    2  A    between atoms: S_1  and  C_18
REMARK    3  A    between atoms: O_5  and  C_15
REMARK    4  A    between atoms: O_5  and  C_25
REMARK    5  A    between atoms: N_8  and  C_16
REMARK    6  A    between atoms: C_10  and  C_15
REMARK    7  A    between atoms: C_16  and  C_19
REMARK                            x       y       z     vdW  Elec       q    Type
REMARK                         _______ _______ _______ _____ _____    ______ ____
ROOT
ATOM      7  N   UNL     1      -0.831   1.551  25.654  0.00  0.00    -0.156 NA
ATOM      8  N   UNL     1      -2.822   4.718  25.460  0.00  0.00    -0.328 N 
ATOM      9  N   UNL     1      -0.892   5.629  24.796  0.00  0.00    -0.240 NA
ATOM     10  C   UNL     1       0.489   2.254  25.859  0.00  0.00    +0.194 C 
ATOM     11  C   UNL     1       0.580   3.588  25.090  0.00  0.00    +0.089 C 
ATOM     12  C   UNL     1      -2.063   2.350  26.021  0.00  0.00    +0.165 C 
ATOM     13  C   UNL     1      -1.880   3.738  25.557  0.00  0.00    +0.057 A 
ATOM     14  C   UNL     1      -0.706   4.321  25.149  0.00  0.00    +0.066 A 
ATOM     17  C   UNL     1      -2.179   5.838  24.996  0.00  0.00    +0.200 A 
ENDROOT
BRANCH   7   1
ATOM      1  S   UNL     1      -0.955   0.604  24.228  0.00  0.00    +0.068 S 
ATOM      3  O   UNL     1       0.327  -0.008  23.955  0.00  0.00    -0.152 OA
ATOM      4  O   UNL     1      -1.647   1.372  23.215  0.00  0.00    -0.152 OA
BRANCH   1  18
ATOM      2  S   UNL     1      -1.803  -2.195  24.074  0.00  0.00    -0.077 S 
ATOM     18  C   UNL     1      -2.049  -0.661  24.792  0.00  0.00    +0.143 A 
ATOM     20  C   UNL     1      -3.081  -0.677  25.706  0.00  0.00    +0.036 A 
ATOM     23  C   UNL     1      -3.676  -1.966  25.818  0.00  0.00    +0.010 A 
ATOM     24  C   UNL     1      -3.077  -2.886  24.986  0.00  0.00    +0.047 A 
ENDBRANCH   1  18
ENDBRANCH   7   1
BRANCH  10  15
ATOM      6  O   UNL     1      -0.204   2.165  28.161  0.00  0.00    -0.249 OA
ATOM     15  C   UNL     1       0.659   2.430  27.335  0.00  0.00    +0.326 C 
BRANCH  15   5
ATOM      5  O   UNL     1       1.905   2.919  27.596  0.00  0.00    -0.467 OA
ATOM     25  C   UNL     1       2.353   2.772  28.946  0.00  0.00    +0.280 C 
ENDBRANCH  15   5
ENDBRANCH  10  15
BRANCH   8  16
ATOM     16  C   UNL     1      -4.224   4.619  25.784  0.00  0.00    +0.158 C 
BRANCH  16  19
ATOM     19  C   UNL     1      -4.834   3.294  25.394  0.00  0.00    -0.028 A 
ATOM     21  C   UNL     1      -4.501   2.706  24.175  0.00  0.00    +0.005 A 
ATOM     22  C   UNL     1      -5.732   2.660  26.252  0.00  0.00    +0.005 A 
ATOM     26  C   UNL     1      -5.064   1.482  23.813  0.00  0.00    +0.000 A 
ATOM     27  C   UNL     1      -6.297   1.437  25.891  0.00  0.00    +0.000 A 
ATOM     28  C   UNL     1      -5.962   0.848  24.671  0.00  0.00    +0.000 A 
ENDBRANCH  16  19
ENDBRANCH   8  16
TORSDOF 6
ENDMDL
MODEL 8
REMARK VINA RESULT:      -0.1      2.183      3.361
REMARK  Name = 25338953
REMARK  7 active torsions:
REMARK  status: ('A' for Active; 'I' for Inactive)
REMARK    1  A    between atoms: S_1  and  N_7
REMARK    2  A    between atoms: S_1  and  C_18
REMARK    3  A    between atoms: O_5  and  C_15
REMARK    4  A    between atoms: O_5  and  C_25
REMARK    5  A    between atoms: N_8  and  C_16
REMARK    6  A    between atoms: C_10  and  C_15
REMARK    7  A    between atoms: C_16  and  C_19
REMARK                            x       y       z     vdW  Elec       q    Type
REMARK                         _______ _______ _______ _____ _____    ______ ____
ROOT
ATOM      7  N   UNL     1      -4.116   2.584  24.527  0.00  0.00    -0.156 NA
ATOM      8  N   UNL     1      -0.690   1.069  24.548  0.00  0.00    -0.328 N 
ATOM      9  N   UNL     1      -0.457   2.170  26.478  0.00  0.00    -0.240 NA
ATOM     10  C   UNL     1      -3.730   3.760  25.390  0.00  0.00    +0.194 C 
ATOM     11  C   UNL     1      -2.672   3.400  26.452  0.00  0.00    +0.089 C 
ATOM     12  C   UNL     1      -2.978   1.905  23.796  0.00  0.00    +0.165 C 
ATOM     13  C   UNL     1      -1.822   1.811  24.707  0.00  0.00    +0.057 A 
ATOM     14  C   UNL     1      -1.653   2.481  25.894  0.00  0.00    +0.066 A 
ATOM     17  C   UNL     1       0.101   1.317  25.641  0.00  0.00    +0.200 A 
ENDROOT
BRANCH   7   1
ATOM      1  S   UNL     1      -5.306   1.537  25.188  0.00  0.00    +0.068 S 
ATOM      3  O   UNL     1      -6.383   1.385  24.236  0.00  0.00    -0.152 OA
ATOM      4  O   UNL     1      -5.568   1.931  26.556  0.00  0.00    -0.152 OA
BRANCH   1  18
ATOM      2  S   UNL     1      -4.430  -0.867  23.762  0.00  0.00    -0.077 S 
ATOM     18  C   UNL     1      -4.398   0.024  25.224  0.00  0.00    +0.143 A 
ATOM     20  C   UNL     1      -3.654  -0.607  26.197  0.00  0.00    +0.036 A 
ATOM     23  C   UNL     1      -3.103  -1.837  25.736  0.00  0.00    +0.010 A 
ATOM     24  C   UNL     1      -3.447  -2.100  24.429  0.00  0.00    +0.047 A 
ENDBRANCH   1  18
ENDBRANCH   7   1
BRANCH  10  15
ATOM      6  O   UNL     1      -3.731   5.032  23.348  0.00  0.00    -0.249 OA
ATOM     15  C   UNL     1      -3.267   4.840  24.463  0.00  0.00    +0.326 C 
BRANCH  15   5
ATOM      5  O   UNL     1      -2.269   5.555  25.058  0.00  0.00    -0.467 OA
ATOM     25  C   UNL     1      -0.960   5.349  24.519  0.00  0.00    +0.280 C 
ENDBRANCH  15   5
ENDBRANCH  10  15
BRANCH   8  16
ATOM     16  C   UNL     1      -0.367   0.192  23.448  0.00  0.00    +0.158 C 
BRANCH  16  19
ATOM     19  C   UNL     1       1.058   0.334  22.971  0.00  0.00    -0.028 A 
ATOM     21  C   UNL     1       1.508  -0.422  21.889  0.00  0.00    +0.005 A 
ATOM     22  C   UNL     1       1.924   1.218  23.613  0.00  0.00    +0.005 A 
ATOM     26  C   UNL     1       2.825  -0.293  21.447  0.00  0.00    +0.000 A 
ATOM     27  C   UNL     1       3.242   1.347  23.172  0.00  0.00    +0.000 A 
ATOM     28  C   UNL     1       3.692   0.592  22.089  0.00  0.00    +0.000 A 
ENDBRANCH  16  19
ENDBRANCH   8  16
TORSDOF 6
ENDMDL
MODEL 9
REMARK VINA RESULT:       0.1      1.678      2.835
REMARK  Name = 25338953
REMARK  7 active torsions:
REMARK  status: ('A' for Active; 'I' for Inactive)
REMARK    1  A    between atoms: S_1  and  N_7
REMARK    2  A    between atoms: S_1  and  C_18
REMARK    3  A    between atoms: O_5  and  C_15
REMARK    4  A    between atoms: O_5  and  C_25
REMARK    5  A    between atoms: N_8  and  C_16
REMARK    6  A    between atoms: C_10  and  C_15
REMARK    7  A    between atoms: C_16  and  C_19
REMARK                            x       y       z     vdW  Elec       q    Type
REMARK                         _______ _______ _______ _____ _____    ______ ____
ROOT
ATOM      7  N   UNL     1      -1.300   1.399  24.810  0.00  0.00    -0.156 NA
ATOM      8  N   UNL     1       1.699   0.548  22.732  0.00  0.00    -0.328 N 
ATOM      9  N   UNL     1       0.293  -0.823  21.665  0.00  0.00    -0.240 NA
ATOM     10  C   UNL     1      -1.995   0.084  24.557  0.00  0.00    +0.194 C 
ATOM     11  C   UNL     1      -1.735  -0.466  23.140  0.00  0.00    +0.089 C 
ATOM     12  C   UNL     1       0.201   1.396  24.613  0.00  0.00    +0.165 C 
ATOM     13  C   UNL     1       0.516   0.608  23.406  0.00  0.00    +0.057 A 
ATOM     14  C   UNL     1      -0.327  -0.244  22.736  0.00  0.00    +0.066 A 
ATOM     17  C   UNL     1       1.514  -0.326  21.690  0.00  0.00    +0.200 A 
ENDROOT
BRANCH   7   1
ATOM      1  S   UNL     1      -2.122   2.796  24.244  0.00  0.00    +0.068 S 
ATOM      3  O   UNL     1      -2.145   2.776  22.798  0.00  0.00    -0.152 OA
ATOM      4  O   UNL     1      -1.635   3.951  24.967  0.00  0.00    -0.152 OA
BRANCH   1  18
ATOM      2  S   UNL     1      -4.457   3.674  25.778  0.00  0.00    -0.077 S 
ATOM     18  C   UNL     1      -3.754   2.445  24.816  0.00  0.00    +0.143 A 
ATOM     20  C   UNL     1      -4.601   1.371  24.650  0.00  0.00    +0.036 A 
ATOM     23  C   UNL     1      -5.842   1.561  25.322  0.00  0.00    +0.010 A 
ATOM     24  C   UNL     1      -5.898   2.772  25.976  0.00  0.00    +0.047 A 
ENDBRANCH   1  18
ENDBRANCH   7   1
BRANCH  10  15
ATOM      6  O   UNL     1      -0.976  -0.505  26.655  0.00  0.00    -0.249 OA
ATOM     15  C   UNL     1      -1.542  -0.856  25.629  0.00  0.00    +0.326 C 
BRANCH  15   5
ATOM      5  O   UNL     1      -1.859  -2.135  25.278  0.00  0.00    -0.467 OA
ATOM     25  C   UNL     1      -3.252  -2.458  25.323  0.00  0.00    +0.280 C 
ENDBRANCH  15   5
ENDBRANCH  10  15
BRANCH   8  16
ATOM     16  C   UNL     1       2.919   1.253  23.042  0.00  0.00    +0.158 C 
BRANCH  16  19
ATOM     19  C   UNL     1       4.061   0.338  23.409  0.00  0.00    -0.028 A 
ATOM     21  C   UNL     1       5.353   0.848  23.524  0.00  0.00    +0.005 A 
ATOM     22  C   UNL     1       3.825  -1.018  23.631  0.00  0.00    +0.005 A 
ATOM     26  C   UNL     1       6.410   0.003  23.863  0.00  0.00    +0.000 A 
ATOM     27  C   UNL     1       4.881  -1.865  23.969  0.00  0.00    +0.000 A 
ATOM     28  C   UNL     1       6.174  -1.354  24.085  0.00  0.00    +0.000 A 
ENDBRANCH  16  19
ENDBRANCH   8  16
TORSDOF 6
ENDMDL
MODEL 10
REMARK VINA RESULT:       0.1      2.728      6.530
REMARK  Name = 25338953
REMARK  7 active torsions:
REMARK  status: ('A' for Active; 'I' for Inactive)
REMARK    1  A    between atoms: S_1  and  N_7
REMARK    2  A    between atoms: S_1  and  C_18
REMARK    3  A    between atoms: O_5  and  C_15
REMARK    4  A    between atoms: O_5  and  C_25
REMARK    5  A    between atoms: N_8  and  C_16
REMARK    6  A    between atoms: C_10  and  C_15
REMARK    7  A    between atoms: C_16  and  C_19
REMARK                            x       y       z     vdW  Elec       q    Type
REMARK                         _______ _______ _______ _____ _____    ______ ____
ROOT
ATOM      7  N   UNL     1      -0.026   0.198  24.959  0.00  0.00    -0.156 NA
ATOM      8  N   UNL     1      -2.554   2.435  23.334  0.00  0.00    -0.328 N 
ATOM      9  N   UNL     1      -2.242   1.122  21.553  0.00  0.00    -0.240 NA
ATOM     10  C   UNL     1       0.625  -0.207  23.659  0.00  0.00    +0.194 C 
ATOM     11  C   UNL     1      -0.382  -0.315  22.495  0.00  0.00    +0.089 C 
ATOM     12  C   UNL     1      -0.797   1.500  24.928  0.00  0.00    +0.165 C 
ATOM     13  C   UNL     1      -1.554   1.570  23.664  0.00  0.00    +0.057 A 
ATOM     14  C   UNL     1      -1.378   0.779  22.555  0.00  0.00    +0.066 A 
ATOM     17  C   UNL     1      -2.937   2.125  22.053  0.00  0.00    +0.200 A 
ENDROOT
BRANCH   7   1
ATOM      1  S   UNL     1      -0.748  -1.074  25.856  0.00  0.00    +0.068 S 
ATOM      3  O   UNL     1      -0.986  -0.622  27.209  0.00  0.00    -0.152 OA
ATOM      4  O   UNL     1      -0.026  -2.300  25.594  0.00  0.00    -0.152 OA
BRANCH   1  18
ATOM      2  S   UNL     1      -2.520  -2.574  24.070  0.00  0.00    -0.077 S 
ATOM     18  C   UNL     1      -2.310  -1.179  25.039  0.00  0.00    +0.143 A 
ATOM     20  C   UNL     1      -3.417  -0.360  25.013  0.00  0.00    +0.036 A 
ATOM     23  C   UNL     1      -4.452  -0.886  24.188  0.00  0.00    +0.010 A 
ATOM     24  C   UNL     1      -4.096  -2.086  23.614  0.00  0.00    +0.047 A 
ENDBRANCH   1  18
ENDBRANCH   7   1
BRANCH  10  15
ATOM      6  O   UNL     1       1.741   1.913  23.874  0.00  0.00    -0.249 OA
ATOM     15  C   UNL     1       1.708   0.790  23.389  0.00  0.00    +0.326 C 
BRANCH  15   5
ATOM      5  O   UNL     1       2.624   0.250  22.537  0.00  0.00    -0.467 OA
ATOM     25  C   UNL     1       3.970   0.700  22.715  0.00  0.00    +0.280 C 
ENDBRANCH  15   5
ENDBRANCH  10  15
BRANCH   8  16
ATOM     16  C   UNL     1      -3.110   3.482  24.156  0.00  0.00    +0.158 C 
BRANCH  16  19
ATOM     19  C   UNL     1      -4.327   3.048  24.936  0.00  0.00    -0.028 A 
ATOM     21  C   UNL     1      -5.337   2.323  24.304  0.00  0.00    +0.005 A 
ATOM     22  C   UNL     1      -4.441   3.372  26.287  0.00  0.00    +0.005 A 
ATOM     26  C   UNL     1      -6.462   1.921  25.024  0.00  0.00    +0.000 A 
ATOM     27  C   UNL     1      -5.567   2.970  27.008  0.00  0.00    +0.000 A 
ATOM     28  C   UNL     1      -6.577   2.245  26.376  0.00  0.00    +0.000 A 
ENDBRANCH  16  19
ENDBRANCH   8  16
TORSDOF 6
ENDMDL
