MODEL 1
REMARK VINA RESULT:       5.4      0.000      0.000
REMARK  Name = 45361326
REMARK  10 active torsions:
REMARK  status: ('A' for Active; 'I' for Inactive)
REMARK    1  A    between atoms: O_2  and  C_10
REMARK    2  A    between atoms: N_6  and  C_28
REMARK    3  A    between atoms: N_6  and  C_29
REMARK    4  A    between atoms: C_8  and  C_16
REMARK    5  A    between atoms: C_11  and  C_17
REMARK    6  A    between atoms: C_13  and  C_20
REMARK    7  A    between atoms: C_17  and  C_21
REMARK    8  A    between atoms: C_17  and  C_22
REMARK    9  A    between atoms: C_24  and  C_27
REMARK   10  A    between atoms: C_28  and  C_30
REMARK                            x       y       z     vdW  Elec       q    Type
REMARK                         _______ _______ _______ _____ _____    ______ ____
ROOT
ATOM      1  S   UNL     1       1.429  -1.968  24.106  0.00  0.00    -0.057 S 
ATOM      4  O   UNL     1       4.095   1.572  22.566  0.00  0.00    -0.275 OA
ATOM      5  N   UNL     1       1.387   0.530  23.439  0.00  0.00    -0.229 NA
ATOM      7  N   UNL     1       3.508  -0.602  23.276  0.00  0.00    -0.264 N 
ATOM      8  C   UNL     1      -2.327  -0.648  25.139  0.00  0.00    -0.022 C 
ATOM      9  C   UNL     1      -2.416   0.474  24.031  0.00  0.00    +0.033 C 
ATOM     10  C   UNL     1      -3.579   1.466  24.320  0.00  0.00    +0.123 C 
ATOM     11  C   UNL     1      -4.926   0.752  24.563  0.00  0.00    +0.029 C 
ATOM     12  C   UNL     1      -3.706  -1.327  25.305  0.00  0.00    +0.008 C 
ATOM     13  C   UNL     1      -1.022   1.187  23.797  0.00  0.00    +0.042 C 
ATOM     14  C   UNL     1      -4.824  -0.343  25.625  0.00  0.00    +0.007 C 
ATOM     15  C   UNL     1      -1.314  -1.750  24.695  0.00  0.00    +0.051 C 
ATOM     16  C   UNL     1      -1.879  -0.078  26.510  0.00  0.00    +0.012 C 
ATOM     18  C   UNL     1       0.100   0.176  23.801  0.00  0.00    +0.057 A 
ATOM     19  C   UNL     1      -0.049  -1.132  24.215  0.00  0.00    +0.015 A 
ATOM     20  C   UNL     1      -0.973   2.017  22.505  0.00  0.00    +0.014 C 
ATOM     23  C   UNL     1       2.169  -0.522  23.549  0.00  0.00    +0.165 A 
ATOM     27  C   UNL     1       4.382   0.408  22.815  0.00  0.00    +0.222 C 
ATOM     33  H   UNL     1       3.912  -1.522  23.440  0.00  0.00    +0.157 HD
ENDROOT
BRANCH  27  24
ATOM     24  C   UNL     1       5.800  -0.031  22.622  0.00  0.00    +0.075 C 
ATOM     25  C   UNL     1       6.794   0.207  23.720  0.00  0.00    +0.013 C 
ATOM     26  C   UNL     1       6.322  -1.187  23.424  0.00  0.00    +0.013 C 
ENDBRANCH  27  24
BRANCH  10   2
ATOM      2  O   UNL     1      -3.754   2.330  23.199  0.00  0.00    -0.391 OA
ATOM     32  H   UNL     1      -4.675   2.251  22.899  0.00  0.00    +0.210 HD
ENDBRANCH  10   2
BRANCH  11  17
ATOM     17  C   UNL     1      -6.033   1.740  24.951  0.00  0.00    +0.078 C 
ATOM     21  C   UNL     1      -6.303   2.687  23.781  0.00  0.00    +0.017 C 
BRANCH  17  22
ATOM      3  O   UNL     1      -6.130   2.230  27.292  0.00  0.00    -0.275 OA
ATOM      6  N   UNL     1      -4.682   3.544  26.055  0.00  0.00    -0.293 N 
ATOM     22  C   UNL     1      -5.619   2.516  26.204  0.00  0.00    +0.219 C 
ATOM     29  C   UNL     1      -4.283   4.318  27.226  0.00  0.00    +0.133 C 
BRANCH   6  28
ATOM     28  C   UNL     1      -4.007   3.922  24.814  0.00  0.00    +0.196 C 
BRANCH  28  30
ATOM     30  C   UNL     1      -2.652   4.405  25.079  0.00  0.00    -0.086 C 
ATOM     31  C   UNL     1      -1.540   4.804  25.291  0.00  0.00    +0.005 C 
ENDBRANCH  28  30
ENDBRANCH   6  28
ENDBRANCH  17  22
ENDBRANCH  11  17
TORSDOF 6
ENDMDL
MODEL 2
REMARK VINA RESULT:       7.0      1.007      1.136
REMARK  Name = 45361326
REMARK  10 active torsions:
REMARK  status: ('A' for Active; 'I' for Inactive)
REMARK    1  A    between atoms: O_2  and  C_10
REMARK    2  A    between atoms: N_6  and  C_28
REMARK    3  A    between atoms: N_6  and  C_29
REMARK    4  A    between atoms: C_8  and  C_16
REMARK    5  A    between atoms: C_11  and  C_17
REMARK    6  A    between atoms: C_13  and  C_20
REMARK    7  A    between atoms: C_17  and  C_21
REMARK    8  A    between atoms: C_17  and  C_22
REMARK    9  A    between atoms: C_24  and  C_27
REMARK   10  A    between atoms: C_28  and  C_30
REMARK                            x       y       z     vdW  Elec       q    Type
REMARK                         _______ _______ _______ _____ _____    ______ ____
ROOT
ATOM      1  S   UNL     1       1.338  -1.861  23.738  0.00  0.00    -0.057 S 
ATOM      4  O   UNL     1       4.308   1.664  22.864  0.00  0.00    -0.275 OA
ATOM      5  N   UNL     1       1.516   0.713  23.555  0.00  0.00    -0.229 NA
ATOM      7  N   UNL     1       3.532  -0.546  23.157  0.00  0.00    -0.264 N 
ATOM      8  C   UNL     1      -2.294  -0.441  25.044  0.00  0.00    -0.022 C 
ATOM      9  C   UNL     1      -2.280   0.873  24.170  0.00  0.00    +0.033 C 
ATOM     10  C   UNL     1      -3.355   1.888  24.654  0.00  0.00    +0.123 C 
ATOM     11  C   UNL     1      -4.760   1.260  24.773  0.00  0.00    +0.029 C 
ATOM     12  C   UNL     1      -3.729  -1.018  25.095  0.00  0.00    +0.008 C 
ATOM     13  C   UNL     1      -0.829   1.495  24.059  0.00  0.00    +0.042 C 
ATOM     14  C   UNL     1      -4.758  -0.021  25.608  0.00  0.00    +0.007 C 
ATOM     15  C   UNL     1      -1.379  -1.523  24.389  0.00  0.00    +0.051 C 
ATOM     16  C   UNL     1      -1.806  -0.182  26.493  0.00  0.00    +0.012 C 
ATOM     18  C   UNL     1       0.201   0.409  23.859  0.00  0.00    +0.057 A 
ATOM     19  C   UNL     1      -0.063  -0.936  24.020  0.00  0.00    +0.015 A 
ATOM     20  C   UNL     1      -0.702   2.547  22.946  0.00  0.00    +0.014 C 
ATOM     23  C   UNL     1       2.203  -0.404  23.455  0.00  0.00    +0.165 A 
ATOM     27  C   UNL     1       4.492   0.454  22.885  0.00  0.00    +0.222 C 
ATOM     33  H   UNL     1       3.854  -1.512  23.140  0.00  0.00    +0.157 HD
ENDROOT
BRANCH  27  24
ATOM     24  C   UNL     1       5.867  -0.061  22.596  0.00  0.00    +0.075 C 
ATOM     25  C   UNL     1       6.952   0.143  23.613  0.00  0.00    +0.013 C 
ATOM     26  C   UNL     1       6.390  -1.229  23.382  0.00  0.00    +0.013 C 
ENDBRANCH  27  24
BRANCH  10   2
ATOM      2  O   UNL     1      -3.448   2.961  23.718  0.00  0.00    -0.391 OA
ATOM     32  H   UNL     1      -3.157   2.631  22.852  0.00  0.00    +0.210 HD
ENDBRANCH  10   2
BRANCH  11  17
ATOM     17  C   UNL     1      -5.779   2.249  25.353  0.00  0.00    +0.078 C 
ATOM     21  C   UNL     1      -7.118   2.081  24.633  0.00  0.00    +0.017 C 
BRANCH  17  22
ATOM      3  O   UNL     1      -5.806   4.455  24.424  0.00  0.00    -0.275 OA
ATOM      6  N   UNL     1      -4.138   4.043  25.973  0.00  0.00    -0.293 N 
ATOM     22  C   UNL     1      -5.252   3.679  25.211  0.00  0.00    +0.219 C 
ATOM     29  C   UNL     1      -3.598   5.392  25.845  0.00  0.00    +0.133 C 
BRANCH   6  28
ATOM     28  C   UNL     1      -3.448   3.200  26.949  0.00  0.00    +0.196 C 
BRANCH  28  30
ATOM     30  C   UNL     1      -1.998   3.273  26.774  0.00  0.00    -0.086 C 
ATOM     31  C   UNL     1      -0.808   3.334  26.627  0.00  0.00    +0.005 C 
ENDBRANCH  28  30
ENDBRANCH   6  28
ENDBRANCH  17  22
ENDBRANCH  11  17
TORSDOF 6
ENDMDL
MODEL 3
REMARK VINA RESULT:       7.8      1.166      1.357
REMARK  Name = 45361326
REMARK  10 active torsions:
REMARK  status: ('A' for Active; 'I' for Inactive)
REMARK    1  A    between atoms: O_2  and  C_10
REMARK    2  A    between atoms: N_6  and  C_28
REMARK    3  A    between atoms: N_6  and  C_29
REMARK    4  A    between atoms: C_8  and  C_16
REMARK    5  A    between atoms: C_11  and  C_17
REMARK    6  A    between atoms: C_13  and  C_20
REMARK    7  A    between atoms: C_17  and  C_21
REMARK    8  A    between atoms: C_17  and  C_22
REMARK    9  A    between atoms: C_24  and  C_27
REMARK   10  A    between atoms: C_28  and  C_30
REMARK                            x       y       z     vdW  Elec       q    Type
REMARK                         _______ _______ _______ _____ _____    ______ ____
ROOT
ATOM      1  S   UNL     1       1.499  -1.748  22.912  0.00  0.00    -0.057 S 
ATOM      4  O   UNL     1       4.711   1.623  23.483  0.00  0.00    -0.275 OA
ATOM      5  N   UNL     1       1.849   0.669  23.763  0.00  0.00    -0.229 NA
ATOM      7  N   UNL     1       3.786  -0.465  22.883  0.00  0.00    -0.264 N 
ATOM      8  C   UNL     1      -2.058  -0.717  24.702  0.00  0.00    -0.022 C 
ATOM      9  C   UNL     1      -1.940   0.831  24.419  0.00  0.00    +0.033 C 
ATOM     10  C   UNL     1      -2.955   1.643  25.274  0.00  0.00    +0.123 C 
ATOM     11  C   UNL     1      -4.400   1.116  25.145  0.00  0.00    +0.029 C 
ATOM     12  C   UNL     1      -3.527  -1.168  24.531  0.00  0.00    +0.008 C 
ATOM     13  C   UNL     1      -0.448   1.346  24.552  0.00  0.00    +0.042 C 
ATOM     14  C   UNL     1      -4.499  -0.387  25.404  0.00  0.00    +0.007 C 
ATOM     15  C   UNL     1      -1.202  -1.511  23.665  0.00  0.00    +0.051 C 
ATOM     16  C   UNL     1      -1.582  -1.086  26.131  0.00  0.00    +0.012 C 
ATOM     18  C   UNL     1       0.511   0.360  23.931  0.00  0.00    +0.057 A 
ATOM     19  C   UNL     1       0.157  -0.918  23.548  0.00  0.00    +0.015 A 
ATOM     20  C   UNL     1      -0.231   2.741  23.946  0.00  0.00    +0.014 C 
ATOM     23  C   UNL     1       2.464  -0.362  23.223  0.00  0.00    +0.165 A 
ATOM     27  C   UNL     1       4.815   0.494  23.022  0.00  0.00    +0.222 C 
ATOM     33  H   UNL     1       4.044  -1.364  22.482  0.00  0.00    +0.157 HD
ENDROOT
BRANCH  27  24
ATOM     24  C   UNL     1       6.159   0.042  22.542  0.00  0.00    +0.075 C 
ATOM     25  C   UNL     1       7.320   0.067  23.493  0.00  0.00    +0.013 C 
ATOM     26  C   UNL     1       6.727  -1.244  23.067  0.00  0.00    +0.013 C 
ENDBRANCH  27  24
BRANCH  10   2
ATOM      2  O   UNL     1      -2.959   3.003  24.840  0.00  0.00    -0.391 OA
ATOM     32  H   UNL     1      -2.293   3.096  24.138  0.00  0.00    +0.210 HD
ENDBRANCH  10   2
BRANCH  11  17
ATOM     17  C   UNL     1      -5.363   1.862  26.077  0.00  0.00    +0.078 C 
ATOM     21  C   UNL     1      -6.490   0.920  26.505  0.00  0.00    +0.017 C 
BRANCH  17  22
ATOM      3  O   UNL     1      -6.851   2.969  24.563  0.00  0.00    -0.275 OA
ATOM      6  N   UNL     1      -5.327   4.334  25.644  0.00  0.00    -0.293 N 
ATOM     22  C   UNL     1      -5.920   3.098  25.365  0.00  0.00    +0.219 C 
ATOM     29  C   UNL     1      -5.820   5.528  24.966  0.00  0.00    +0.133 C 
BRANCH   6  28
ATOM     28  C   UNL     1      -4.249   4.576  26.602  0.00  0.00    +0.196 C 
BRANCH  28  30
ATOM     30  C   UNL     1      -3.051   5.077  25.930  0.00  0.00    -0.086 C 
ATOM     31  C   UNL     1      -2.064   5.488  25.382  0.00  0.00    +0.005 C 
ENDBRANCH  28  30
ENDBRANCH   6  28
ENDBRANCH  17  22
ENDBRANCH  11  17
TORSDOF 6
ENDMDL
