MODEL 1
REMARK VINA RESULT:      -5.8      0.000      0.000
REMARK  Name = 56774074
REMARK  11 active torsions:
REMARK  status: ('A' for Active; 'I' for Inactive)
REMARK    1  A    between atoms: S_1  and  N_5
REMARK    2  A    between atoms: S_1  and  C_16
REMARK    3  A    between atoms: N_5  and  C_9
REMARK    4  A    between atoms: C_7  and  C_12
REMARK    5  A    between atoms: C_7  and  C_13
REMARK    6  A    between atoms: C_8  and  C_11
REMARK    7  A    between atoms: C_11  and  C_14
REMARK    8  A    between atoms: C_17  and  C_18
REMARK    9  A    between atoms: C_18  and  C_19
REMARK   10  A    between atoms: C_19  and  C_20
REMARK   11  A    between atoms: C_20  and  C_21
REMARK                            x       y       z     vdW  Elec       q    Type
REMARK                         _______ _______ _______ _____ _____    ______ ____
ROOT
ATOM      7  C   UNL     1      -3.513  -0.502  24.491  0.00  0.00    -0.015 C 
ATOM      8  C   UNL     1      -2.179  -0.264  23.753  0.00  0.00    +0.004 C 
ATOM      9  C   UNL     1      -3.898   0.940  24.097  0.00  0.00    +0.082 C 
ATOM     10  C   UNL     1      -2.387   1.241  24.019  0.00  0.00    +0.025 C 
ATOM     12  C   UNL     1      -3.413  -0.699  25.992  0.00  0.00    +0.013 C 
ATOM     13  C   UNL     1      -4.355  -1.599  23.878  0.00  0.00    +0.013 C 
ENDROOT
BRANCH   9   5
ATOM      5  N   UNL     1      -4.673   1.752  25.099  0.00  0.00    -0.191 NA
ATOM     22  H   UNL     1      -5.582   1.327  25.332  0.00  0.00    +0.148 HD
BRANCH   5   1
ATOM      1  S   UNL     1      -4.659   3.459  25.188  0.00  0.00    +0.027 S 
ATOM      2  O   UNL     1      -5.868   3.921  25.842  0.00  0.00    -0.158 OA
ATOM      3  O   UNL     1      -4.258   3.985  23.899  0.00  0.00    -0.158 OA
ATOM     16  C   UNL     1      -3.304   3.699  26.313  0.00  0.00    +0.214 C 
ENDBRANCH   5   1
ENDBRANCH   9   5
BRANCH   8  11
ATOM     11  C   UNL     1      -0.911  -0.861  24.379  0.00  0.00    +0.063 C 
BRANCH  11  14
ATOM      4  O   UNL     1       1.720   1.432  23.625  0.00  0.00    -0.359 OA
ATOM      6  N   UNL     1       0.520   1.099  24.240  0.00  0.00    -0.083 NA
ATOM     14  C   UNL     1       0.295  -0.172  23.894  0.00  0.00    +0.084 A 
ATOM     15  C   UNL     1       1.308  -0.687  23.067  0.00  0.00    +0.071 A 
ATOM     17  C   UNL     1       2.181   0.361  22.929  0.00  0.00    +0.138 A 
BRANCH  17  18
ATOM     18  C   UNL     1       3.483   0.545  22.193  0.00  0.00    +0.077 C 
BRANCH  18  19
ATOM     19  C   UNL     1       4.605   0.994  23.132  0.00  0.00    +0.007 C 
BRANCH  19  20
ATOM     20  C   UNL     1       5.577  -0.150  23.419  0.00  0.00    -0.003 C 
ATOM     21  C   UNL     1       4.854  -1.367  23.977  0.00  0.00    +0.004 C 
ENDBRANCH  19  20
ENDBRANCH  18  19
ENDBRANCH  17  18
ENDBRANCH  11  14
ENDBRANCH   8  11
TORSDOF 7
ENDMDL
MODEL 2
REMARK VINA RESULT:      -5.7      2.791      4.994
REMARK  Name = 56774074
REMARK  11 active torsions:
REMARK  status: ('A' for Active; 'I' for Inactive)
REMARK    1  A    between atoms: S_1  and  N_5
REMARK    2  A    between atoms: S_1  and  C_16
REMARK    3  A    between atoms: N_5  and  C_9
REMARK    4  A    between atoms: C_7  and  C_12
REMARK    5  A    between atoms: C_7  and  C_13
REMARK    6  A    between atoms: C_8  and  C_11
REMARK    7  A    between atoms: C_11  and  C_14
REMARK    8  A    between atoms: C_17  and  C_18
REMARK    9  A    between atoms: C_18  and  C_19
REMARK   10  A    between atoms: C_19  and  C_20
REMARK   11  A    between atoms: C_20  and  C_21
REMARK                            x       y       z     vdW  Elec       q    Type
REMARK                         _______ _______ _______ _____ _____    ______ ____
ROOT
ATOM      7  C   UNL     1      -1.604   3.786  24.886  0.00  0.00    -0.015 C 
ATOM      8  C   UNL     1      -0.780   2.838  25.780  0.00  0.00    +0.004 C 
ATOM      9  C   UNL     1      -2.840   3.363  25.709  0.00  0.00    +0.082 C 
ATOM     10  C   UNL     1      -2.086   2.054  26.024  0.00  0.00    +0.025 C 
ATOM     12  C   UNL     1      -1.705   3.395  23.423  0.00  0.00    +0.013 C 
ATOM     13  C   UNL     1      -1.197   5.238  25.008  0.00  0.00    +0.013 C 
ENDROOT
BRANCH   9   5
ATOM      5  N   UNL     1      -4.144   3.204  24.976  0.00  0.00    -0.191 NA
ATOM     22  H   UNL     1      -4.127   3.638  24.043  0.00  0.00    +0.148 HD
BRANCH   5   1
ATOM      1  S   UNL     1      -5.683   3.206  25.718  0.00  0.00    +0.027 S 
ATOM      2  O   UNL     1      -6.294   4.513  25.565  0.00  0.00    -0.158 OA
ATOM      3  O   UNL     1      -5.569   2.581  27.020  0.00  0.00    -0.158 OA
ATOM     16  C   UNL     1      -6.543   2.074  24.651  0.00  0.00    +0.214 C 
ENDBRANCH   5   1
ENDBRANCH   9   5
BRANCH   8  11
ATOM     11  C   UNL     1       0.340   2.031  25.109  0.00  0.00    +0.063 C 
BRANCH  11  14
ATOM      4  O   UNL     1      -0.434  -1.026  23.433  0.00  0.00    -0.359 OA
ATOM      6  N   UNL     1       0.153   0.232  23.485  0.00  0.00    -0.083 NA
ATOM     14  C   UNL     1      -0.135   0.699  24.703  0.00  0.00    +0.084 A 
ATOM     15  C   UNL     1      -0.896  -0.211  25.457  0.00  0.00    +0.071 A 
ATOM     17  C   UNL     1      -1.056  -1.279  24.613  0.00  0.00    +0.138 A 
BRANCH  17  18
ATOM     18  C   UNL     1      -1.752  -2.611  24.735  0.00  0.00    +0.077 C 
BRANCH  18  19
ATOM     19  C   UNL     1      -3.224  -2.447  25.118  0.00  0.00    +0.007 C 
BRANCH  19  20
ATOM     20  C   UNL     1      -4.032  -1.847  23.968  0.00  0.00    -0.003 C 
ATOM     21  C   UNL     1      -4.365  -0.385  24.224  0.00  0.00    +0.004 C 
ENDBRANCH  19  20
ENDBRANCH  18  19
ENDBRANCH  17  18
ENDBRANCH  11  14
ENDBRANCH   8  11
TORSDOF 7
ENDMDL
MODEL 3
REMARK VINA RESULT:      -5.6      2.681      3.869
REMARK  Name = 56774074
REMARK  11 active torsions:
REMARK  status: ('A' for Active; 'I' for Inactive)
REMARK    1  A    between atoms: S_1  and  N_5
REMARK    2  A    between atoms: S_1  and  C_16
REMARK    3  A    between atoms: N_5  and  C_9
REMARK    4  A    between atoms: C_7  and  C_12
REMARK    5  A    between atoms: C_7  and  C_13
REMARK    6  A    between atoms: C_8  and  C_11
REMARK    7  A    between atoms: C_11  and  C_14
REMARK    8  A    between atoms: C_17  and  C_18
REMARK    9  A    between atoms: C_18  and  C_19
REMARK   10  A    between atoms: C_19  and  C_20
REMARK   11  A    between atoms: C_20  and  C_21
REMARK                            x       y       z     vdW  Elec       q    Type
REMARK                         _______ _______ _______ _____ _____    ______ ____
ROOT
ATOM      7  C   UNL     1      -3.369  -1.538  24.893  0.00  0.00    -0.015 C 
ATOM      8  C   UNL     1      -2.371  -1.121  23.793  0.00  0.00    +0.004 C 
ATOM      9  C   UNL     1      -4.279  -0.397  24.392  0.00  0.00    +0.082 C 
ATOM     10  C   UNL     1      -3.002   0.285  23.860  0.00  0.00    +0.025 C 
ATOM     12  C   UNL     1      -2.900  -1.338  26.322  0.00  0.00    +0.013 C 
ATOM     13  C   UNL     1      -3.911  -2.939  24.715  0.00  0.00    +0.013 C 
ENDROOT
BRANCH   9   5
ATOM      5  N   UNL     1      -5.052   0.380  25.423  0.00  0.00    -0.191 NA
ATOM     22  H   UNL     1      -5.601  -0.229  26.046  0.00  0.00    +0.148 HD
BRANCH   5   1
ATOM      1  S   UNL     1      -5.750   1.918  25.160  0.00  0.00    +0.027 S 
ATOM      2  O   UNL     1      -5.696   2.692  26.385  0.00  0.00    -0.158 OA
ATOM      3  O   UNL     1      -6.995   1.743  24.440  0.00  0.00    -0.158 OA
ATOM     16  C   UNL     1      -4.566   2.606  24.027  0.00  0.00    +0.214 C 
ENDBRANCH   5   1
ENDBRANCH   9   5
BRANCH   8  11
ATOM     11  C   UNL     1      -0.877  -1.174  24.139  0.00  0.00    +0.063 C 
BRANCH  11  14
ATOM      4  O   UNL     1       1.000   1.863  24.084  0.00  0.00    -0.359 OA
ATOM      6  N   UNL     1       0.761   0.559  23.669  0.00  0.00    -0.083 NA
ATOM     14  C   UNL     1      -0.330   0.177  24.339  0.00  0.00    +0.084 A 
ATOM     15  C   UNL     1      -0.817   1.188  25.185  0.00  0.00    +0.071 A 
ATOM     17  C   UNL     1       0.053   2.227  24.987  0.00  0.00    +0.138 A 
BRANCH  17  18
ATOM     18  C   UNL     1       0.159   3.622  25.548  0.00  0.00    +0.077 C 
BRANCH  18  19
ATOM     19  C   UNL     1      -0.499   4.653  24.628  0.00  0.00    +0.007 C 
BRANCH  19  20
ATOM     20  C   UNL     1      -1.734   5.271  25.283  0.00  0.00    -0.003 C 
ATOM     21  C   UNL     1      -2.517   4.238  26.078  0.00  0.00    +0.004 C 
ENDBRANCH  19  20
ENDBRANCH  18  19
ENDBRANCH  17  18
ENDBRANCH  11  14
ENDBRANCH   8  11
TORSDOF 7
ENDMDL
MODEL 4
REMARK VINA RESULT:      -5.2      2.402      5.830
REMARK  Name = 56774074
REMARK  11 active torsions:
REMARK  status: ('A' for Active; 'I' for Inactive)
REMARK    1  A    between atoms: S_1  and  N_5
REMARK    2  A    between atoms: S_1  and  C_16
REMARK    3  A    between atoms: N_5  and  C_9
REMARK    4  A    between atoms: C_7  and  C_12
REMARK    5  A    between atoms: C_7  and  C_13
REMARK    6  A    between atoms: C_8  and  C_11
REMARK    7  A    between atoms: C_11  and  C_14
REMARK    8  A    between atoms: C_17  and  C_18
REMARK    9  A    between atoms: C_18  and  C_19
REMARK   10  A    between atoms: C_19  and  C_20
REMARK   11  A    between atoms: C_20  and  C_21
REMARK                            x       y       z     vdW  Elec       q    Type
REMARK                         _______ _______ _______ _____ _____    ______ ____
ROOT
ATOM      7  C   UNL     1      -3.311  -1.537  24.599  0.00  0.00    -0.015 C 
ATOM      8  C   UNL     1      -3.986  -0.607  25.628  0.00  0.00    +0.004 C 
ATOM      9  C   UNL     1      -1.962  -1.115  25.217  0.00  0.00    +0.082 C 
ATOM     10  C   UNL     1      -2.661   0.183  25.668  0.00  0.00    +0.025 C 
ATOM     12  C   UNL     1      -3.450  -1.126  23.145  0.00  0.00    +0.013 C 
ATOM     13  C   UNL     1      -3.686  -2.993  24.765  0.00  0.00    +0.013 C 
ENDROOT
BRANCH   9   5
ATOM      5  N   UNL     1      -0.794  -0.937  24.285  0.00  0.00    -0.191 NA
ATOM     22  H   UNL     1      -0.094  -1.685  24.383  0.00  0.00    +0.148 HD
BRANCH   5   1
ATOM      1  S   UNL     1      -0.140   0.573  23.823  0.00  0.00    +0.027 S 
ATOM      2  O   UNL     1       0.390   1.251  24.991  0.00  0.00    -0.158 OA
ATOM      3  O   UNL     1      -1.079   1.232  22.938  0.00  0.00    -0.158 OA
ATOM     16  C   UNL     1       1.235   0.027  22.838  0.00  0.00    +0.214 C 
ENDBRANCH   5   1
ENDBRANCH   9   5
BRANCH   8  11
ATOM     11  C   UNL     1      -5.203   0.200  25.158  0.00  0.00    +0.063 C 
BRANCH  11  14
ATOM      4  O   UNL     1      -5.033   3.722  25.727  0.00  0.00    -0.359 OA
ATOM      6  N   UNL     1      -5.532   2.455  26.004  0.00  0.00    -0.083 NA
ATOM     14  C   UNL     1      -4.912   1.642  25.144  0.00  0.00    +0.084 A 
ATOM     15  C   UNL     1      -4.019   2.333  24.306  0.00  0.00    +0.071 A 
ATOM     17  C   UNL     1      -4.133   3.637  24.713  0.00  0.00    +0.138 A 
BRANCH  17  18
ATOM     18  C   UNL     1      -3.486   4.927  24.278  0.00  0.00    +0.077 C 
BRANCH  18  19
ATOM     19  C   UNL     1      -2.366   5.348  25.230  0.00  0.00    +0.007 C 
BRANCH  19  20
ATOM     20  C   UNL     1      -1.285   4.272  25.324  0.00  0.00    -0.003 C 
ATOM     21  C   UNL     1      -0.248   4.426  24.221  0.00  0.00    +0.004 C 
ENDBRANCH  19  20
ENDBRANCH  18  19
ENDBRANCH  17  18
ENDBRANCH  11  14
ENDBRANCH   8  11
TORSDOF 7
ENDMDL
MODEL 5
REMARK VINA RESULT:      -4.9      3.080      5.838
REMARK  Name = 56774074
REMARK  11 active torsions:
REMARK  status: ('A' for Active; 'I' for Inactive)
REMARK    1  A    between atoms: S_1  and  N_5
REMARK    2  A    between atoms: S_1  and  C_16
REMARK    3  A    between atoms: N_5  and  C_9
REMARK    4  A    between atoms: C_7  and  C_12
REMARK    5  A    between atoms: C_7  and  C_13
REMARK    6  A    between atoms: C_8  and  C_11
REMARK    7  A    between atoms: C_11  and  C_14
REMARK    8  A    between atoms: C_17  and  C_18
REMARK    9  A    between atoms: C_18  and  C_19
REMARK   10  A    between atoms: C_19  and  C_20
REMARK   11  A    between atoms: C_20  and  C_21
REMARK                            x       y       z     vdW  Elec       q    Type
REMARK                         _______ _______ _______ _____ _____    ______ ____
ROOT
ATOM      7  C   UNL     1      -3.944  -0.588  24.287  0.00  0.00    -0.015 C 
ATOM      8  C   UNL     1      -5.041   0.104  25.122  0.00  0.00    +0.004 C 
ATOM      9  C   UNL     1      -3.247  -0.924  25.623  0.00  0.00    +0.082 C 
ATOM     10  C   UNL     1      -3.977   0.296  26.222  0.00  0.00    +0.025 C 
ATOM     12  C   UNL     1      -3.114   0.323  23.400  0.00  0.00    +0.013 C 
ATOM     13  C   UNL     1      -4.446  -1.771  23.491  0.00  0.00    +0.013 C 
ENDROOT
BRANCH   9   5
ATOM      5  N   UNL     1      -1.744  -0.867  25.658  0.00  0.00    -0.191 NA
ATOM     22  H   UNL     1      -1.388   0.097  25.718  0.00  0.00    +0.148 HD
BRANCH   5   1
ATOM      1  S   UNL     1      -0.710  -1.941  24.823  0.00  0.00    +0.027 S 
ATOM      2  O   UNL     1      -1.503  -2.851  24.019  0.00  0.00    -0.158 OA
ATOM      3  O   UNL     1       0.288  -2.436  25.750  0.00  0.00    -0.158 OA
ATOM     16  C   UNL     1       0.096  -0.802  23.722  0.00  0.00    +0.214 C 
ENDBRANCH   5   1
ENDBRANCH   9   5
BRANCH   8  11
ATOM     11  C   UNL     1      -5.635   1.405  24.565  0.00  0.00    +0.063 C 
BRANCH  11  14
ATOM      4  O   UNL     1      -4.202   4.260  26.160  0.00  0.00    -0.359 OA
ATOM      6  N   UNL     1      -5.144   3.242  26.078  0.00  0.00    -0.083 NA
ATOM     14  C   UNL     1      -4.832   2.570  24.967  0.00  0.00    +0.084 A 
ATOM     15  C   UNL     1      -3.714   3.114  24.311  0.00  0.00    +0.071 A 
ATOM     17  C   UNL     1      -3.355   4.174  25.102  0.00  0.00    +0.138 A 
BRANCH  17  18
ATOM     18  C   UNL     1      -2.261   5.208  25.030  0.00  0.00    +0.077 C 
BRANCH  18  19
ATOM     19  C   UNL     1      -0.873   4.566  25.062  0.00  0.00    +0.007 C 
BRANCH  19  20
ATOM     20  C   UNL     1      -0.869   3.299  25.918  0.00  0.00    -0.003 C 
ATOM     21  C   UNL     1       0.062   2.243  25.342  0.00  0.00    +0.004 C 
ENDBRANCH  19  20
ENDBRANCH  18  19
ENDBRANCH  17  18
ENDBRANCH  11  14
ENDBRANCH   8  11
TORSDOF 7
ENDMDL
MODEL 6
REMARK VINA RESULT:      -4.9      2.955      4.851
REMARK  Name = 56774074
REMARK  11 active torsions:
REMARK  status: ('A' for Active; 'I' for Inactive)
REMARK    1  A    between atoms: S_1  and  N_5
REMARK    2  A    between atoms: S_1  and  C_16
REMARK    3  A    between atoms: N_5  and  C_9
REMARK    4  A    between atoms: C_7  and  C_12
REMARK    5  A    between atoms: C_7  and  C_13
REMARK    6  A    between atoms: C_8  and  C_11
REMARK    7  A    between atoms: C_11  and  C_14
REMARK    8  A    between atoms: C_17  and  C_18
REMARK    9  A    between atoms: C_18  and  C_19
REMARK   10  A    between atoms: C_19  and  C_20
REMARK   11  A    between atoms: C_20  and  C_21
REMARK                            x       y       z     vdW  Elec       q    Type
REMARK                         _______ _______ _______ _____ _____    ______ ____
ROOT
ATOM      7  C   UNL     1      -4.849   3.416  25.375  0.00  0.00    -0.015 C 
ATOM      8  C   UNL     1      -5.090   2.143  24.538  0.00  0.00    +0.004 C 
ATOM      9  C   UNL     1      -3.743   3.780  24.363  0.00  0.00    +0.082 C 
ATOM     10  C   UNL     1      -3.628   2.271  24.062  0.00  0.00    +0.025 C 
ATOM     12  C   UNL     1      -4.318   3.193  26.779  0.00  0.00    +0.013 C 
ATOM     13  C   UNL     1      -6.040   4.348  25.413  0.00  0.00    +0.013 C 
ENDROOT
BRANCH   9   5
ATOM      5  N   UNL     1      -2.498   4.434  24.897  0.00  0.00    -0.191 NA
ATOM     22  H   UNL     1      -2.576   5.460  24.932  0.00  0.00    +0.148 HD
BRANCH   5   1
ATOM      1  S   UNL     1      -0.908   3.866  24.630  0.00  0.00    +0.027 S 
ATOM      2  O   UNL     1       0.021   4.978  24.683  0.00  0.00    -0.158 OA
ATOM      3  O   UNL     1      -0.926   2.959  23.500  0.00  0.00    -0.158 OA
ATOM     16  C   UNL     1      -0.677   2.891  26.098  0.00  0.00    +0.214 C 
ENDBRANCH   5   1
ENDBRANCH   9   5
BRANCH   8  11
ATOM     11  C   UNL     1      -5.410   0.849  25.298  0.00  0.00    +0.063 C 
BRANCH  11  14
ATOM      4  O   UNL     1      -3.588  -1.875  23.879  0.00  0.00    -0.359 OA
ATOM      6  N   UNL     1      -4.667  -1.000  23.906  0.00  0.00    -0.083 NA
ATOM     14  C   UNL     1      -4.449  -0.214  24.964  0.00  0.00    +0.084 A 
ATOM     15  C   UNL     1      -3.260  -0.544  25.638  0.00  0.00    +0.071 A 
ATOM     17  C   UNL     1      -2.757  -1.594  24.915  0.00  0.00    +0.138 A 
BRANCH  17  18
ATOM     18  C   UNL     1      -1.524  -2.452  25.042  0.00  0.00    +0.077 C 
BRANCH  18  19
ATOM     19  C   UNL     1      -0.246  -1.611  25.040  0.00  0.00    +0.007 C 
BRANCH  19  20
ATOM     20  C   UNL     1      -0.420  -0.341  24.209  0.00  0.00    -0.003 C 
ATOM     21  C   UNL     1       0.711  -0.172  23.207  0.00  0.00    +0.004 C 
ENDBRANCH  19  20
ENDBRANCH  18  19
ENDBRANCH  17  18
ENDBRANCH  11  14
ENDBRANCH   8  11
TORSDOF 7
ENDMDL
MODEL 7
REMARK VINA RESULT:      -4.8      2.599      6.345
REMARK  Name = 56774074
REMARK  11 active torsions:
REMARK  status: ('A' for Active; 'I' for Inactive)
REMARK    1  A    between atoms: S_1  and  N_5
REMARK    2  A    between atoms: S_1  and  C_16
REMARK    3  A    between atoms: N_5  and  C_9
REMARK    4  A    between atoms: C_7  and  C_12
REMARK    5  A    between atoms: C_7  and  C_13
REMARK    6  A    between atoms: C_8  and  C_11
REMARK    7  A    between atoms: C_11  and  C_14
REMARK    8  A    between atoms: C_17  and  C_18
REMARK    9  A    between atoms: C_18  and  C_19
REMARK   10  A    between atoms: C_19  and  C_20
REMARK   11  A    between atoms: C_20  and  C_21
REMARK                            x       y       z     vdW  Elec       q    Type
REMARK                         _______ _______ _______ _____ _____    ______ ____
ROOT
ATOM      7  C   UNL     1      -0.975   3.315  24.647  0.00  0.00    -0.015 C 
ATOM      8  C   UNL     1      -2.218   3.220  23.739  0.00  0.00    +0.004 C 
ATOM      9  C   UNL     1      -0.247   2.430  23.614  0.00  0.00    +0.082 C 
ATOM     10  C   UNL     1      -1.635   1.893  23.210  0.00  0.00    +0.025 C 
ATOM     12  C   UNL     1      -1.098   2.657  26.009  0.00  0.00    +0.013 C 
ATOM     13  C   UNL     1      -0.444   4.724  24.798  0.00  0.00    +0.013 C 
ENDROOT
BRANCH   9   5
ATOM      5  N   UNL     1       0.722   1.404  24.136  0.00  0.00    -0.191 NA
ATOM     22  H   UNL     1       1.352   1.787  24.855  0.00  0.00    +0.148 HD
BRANCH   5   1
ATOM      1  S   UNL     1       1.414   0.153  23.198  0.00  0.00    +0.027 S 
ATOM      2  O   UNL     1       0.730   0.069  21.922  0.00  0.00    -0.158 OA
ATOM      3  O   UNL     1       1.579  -1.016  24.038  0.00  0.00    -0.158 OA
ATOM     16  C   UNL     1       3.027   0.840  22.908  0.00  0.00    +0.214 C 
ENDBRANCH   5   1
ENDBRANCH   9   5
BRANCH   8  11
ATOM     11  C   UNL     1      -3.585   3.096  24.425  0.00  0.00    +0.063 C 
BRANCH  11  14
ATOM      4  O   UNL     1      -5.071  -0.041  25.264  0.00  0.00    -0.359 OA
ATOM      6  N   UNL     1      -4.909   1.327  25.439  0.00  0.00    -0.083 NA
ATOM     14  C   UNL     1      -4.002   1.688  24.527  0.00  0.00    +0.084 A 
ATOM     15  C   UNL     1      -3.558   0.600  23.757  0.00  0.00    +0.071 A 
ATOM     17  C   UNL     1      -4.261  -0.464  24.260  0.00  0.00    +0.138 A 
BRANCH  17  18
ATOM     18  C   UNL     1      -4.306  -1.934  23.931  0.00  0.00    +0.077 C 
BRANCH  18  19
ATOM     19  C   UNL     1      -3.337  -2.738  24.801  0.00  0.00    +0.007 C 
BRANCH  19  20
ATOM     20  C   UNL     1      -1.884  -2.435  24.436  0.00  0.00    -0.003 C 
ATOM     21  C   UNL     1      -1.215  -1.569  25.492  0.00  0.00    +0.004 C 
ENDBRANCH  19  20
ENDBRANCH  18  19
ENDBRANCH  17  18
ENDBRANCH  11  14
ENDBRANCH   8  11
TORSDOF 7
ENDMDL
MODEL 8
REMARK VINA RESULT:      -4.3      3.301      6.404
REMARK  Name = 56774074
REMARK  11 active torsions:
REMARK  status: ('A' for Active; 'I' for Inactive)
REMARK    1  A    between atoms: S_1  and  N_5
REMARK    2  A    between atoms: S_1  and  C_16
REMARK    3  A    between atoms: N_5  and  C_9
REMARK    4  A    between atoms: C_7  and  C_12
REMARK    5  A    between atoms: C_7  and  C_13
REMARK    6  A    between atoms: C_8  and  C_11
REMARK    7  A    between atoms: C_11  and  C_14
REMARK    8  A    between atoms: C_17  and  C_18
REMARK    9  A    between atoms: C_18  and  C_19
REMARK   10  A    between atoms: C_19  and  C_20
REMARK   11  A    between atoms: C_20  and  C_21
REMARK                            x       y       z     vdW  Elec       q    Type
REMARK                         _______ _______ _______ _____ _____    ______ ____
ROOT
ATOM      7  C   UNL     1      -0.521   0.076  24.399  0.00  0.00    -0.015 C 
ATOM      8  C   UNL     1      -0.228   1.429  23.718  0.00  0.00    +0.004 C 
ATOM      9  C   UNL     1      -1.756  -0.032  23.480  0.00  0.00    +0.082 C 
ATOM     10  C   UNL     1      -1.736   1.508  23.399  0.00  0.00    +0.025 C 
ATOM     12  C   UNL     1      -0.882   0.141  25.871  0.00  0.00    +0.013 C 
ATOM     13  C   UNL     1       0.560  -0.959  24.174  0.00  0.00    +0.013 C 
ENDROOT
BRANCH   9   5
ATOM      5  N   UNL     1      -3.004  -0.639  24.059  0.00  0.00    -0.191 NA
ATOM     22  H   UNL     1      -3.534   0.028  24.638  0.00  0.00    +0.148 HD
BRANCH   5   1
ATOM      1  S   UNL     1      -3.153  -2.267  24.559  0.00  0.00    +0.027 S 
ATOM      2  O   UNL     1      -3.514  -2.312  25.963  0.00  0.00    -0.158 OA
ATOM      3  O   UNL     1      -2.018  -3.011  24.053  0.00  0.00    -0.158 OA
ATOM     16  C   UNL     1      -4.579  -2.751  23.615  0.00  0.00    +0.214 C 
ENDBRANCH   5   1
ENDBRANCH   9   5
BRANCH   8  11
ATOM     11  C   UNL     1       0.304   2.563  24.603  0.00  0.00    +0.063 C 
BRANCH  11  14
ATOM      4  O   UNL     1      -1.851   5.299  25.392  0.00  0.00    -0.359 OA
ATOM      6  N   UNL     1      -0.669   4.773  24.886  0.00  0.00    -0.083 NA
ATOM     14  C   UNL     1      -0.785   3.451  25.041  0.00  0.00    +0.084 A 
ATOM     15  C   UNL     1      -2.006   3.088  25.634  0.00  0.00    +0.071 A 
ATOM     17  C   UNL     1      -2.640   4.287  25.835  0.00  0.00    +0.138 A 
BRANCH  17  18
ATOM     18  C   UNL     1      -3.972   4.678  26.421  0.00  0.00    +0.077 C 
BRANCH  18  19
ATOM     19  C   UNL     1      -5.137   4.140  25.588  0.00  0.00    +0.007 C 
BRANCH  19  20
ATOM     20  C   UNL     1      -5.534   2.733  26.036  0.00  0.00    -0.003 C 
ATOM     21  C   UNL     1      -5.554   1.762  24.866  0.00  0.00    +0.004 C 
ENDBRANCH  19  20
ENDBRANCH  18  19
ENDBRANCH  17  18
ENDBRANCH  11  14
ENDBRANCH   8  11
TORSDOF 7
ENDMDL
MODEL 9
REMARK VINA RESULT:      -3.6      2.389      3.511
REMARK  Name = 56774074
REMARK  11 active torsions:
REMARK  status: ('A' for Active; 'I' for Inactive)
REMARK    1  A    between atoms: S_1  and  N_5
REMARK    2  A    between atoms: S_1  and  C_16
REMARK    3  A    between atoms: N_5  and  C_9
REMARK    4  A    between atoms: C_7  and  C_12
REMARK    5  A    between atoms: C_7  and  C_13
REMARK    6  A    between atoms: C_8  and  C_11
REMARK    7  A    between atoms: C_11  and  C_14
REMARK    8  A    between atoms: C_17  and  C_18
REMARK    9  A    between atoms: C_18  and  C_19
REMARK   10  A    between atoms: C_19  and  C_20
REMARK   11  A    between atoms: C_20  and  C_21
REMARK                            x       y       z     vdW  Elec       q    Type
REMARK                         _______ _______ _______ _____ _____    ______ ____
ROOT
ATOM      7  C   UNL     1      -4.935   1.986  24.984  0.00  0.00    -0.015 C 
ATOM      8  C   UNL     1      -4.607   0.729  24.153  0.00  0.00    +0.004 C 
ATOM      9  C   UNL     1      -4.134   2.791  23.939  0.00  0.00    +0.082 C 
ATOM     10  C   UNL     1      -3.369   1.487  23.634  0.00  0.00    +0.025 C 
ATOM     12  C   UNL     1      -4.321   2.041  26.371  0.00  0.00    +0.013 C 
ATOM     13  C   UNL     1      -6.414   2.292  25.059  0.00  0.00    +0.013 C 
ENDROOT
BRANCH   9   5
ATOM      5  N   UNL     1      -3.296   3.938  24.436  0.00  0.00    -0.191 NA
ATOM     22  H   UNL     1      -3.534   4.827  23.975  0.00  0.00    +0.148 HD
BRANCH   5   1
ATOM      1  S   UNL     1      -1.658   3.813  24.908  0.00  0.00    +0.027 S 
ATOM      2  O   UNL     1      -0.888   3.214  23.834  0.00  0.00    -0.158 OA
ATOM      3  O   UNL     1      -1.605   3.281  26.255  0.00  0.00    -0.158 OA
ATOM     16  C   UNL     1      -1.228   5.536  24.992  0.00  0.00    +0.214 C 
ENDBRANCH   5   1
ENDBRANCH   9   5
BRANCH   8  11
ATOM     11  C   UNL     1      -4.297  -0.563  24.922  0.00  0.00    +0.063 C 
BRANCH  11  14
ATOM      4  O   UNL     1      -1.304  -2.387  24.238  0.00  0.00    -0.359 OA
ATOM      6  N   UNL     1      -2.676  -2.309  24.440  0.00  0.00    -0.083 NA
ATOM     14  C   UNL     1      -2.920  -1.015  24.665  0.00  0.00    +0.084 A 
ATOM     15  C   UNL     1      -1.751  -0.236  24.619  0.00  0.00    +0.071 A 
ATOM     17  C   UNL     1      -0.764  -1.146  24.346  0.00  0.00    +0.138 A 
BRANCH  17  18
ATOM     18  C   UNL     1       0.728  -1.042  24.154  0.00  0.00    +0.077 C 
BRANCH  18  19
ATOM     19  C   UNL     1       1.112   0.222  23.381  0.00  0.00    +0.007 C 
BRANCH  19  20
ATOM     20  C   UNL     1       2.302  -0.036  22.457  0.00  0.00    -0.003 C 
ATOM     21  C   UNL     1       3.472   0.878  22.789  0.00  0.00    +0.004 C 
ENDBRANCH  19  20
ENDBRANCH  18  19
ENDBRANCH  17  18
ENDBRANCH  11  14
ENDBRANCH   8  11
TORSDOF 7
ENDMDL
MODEL 10
REMARK VINA RESULT:      -3.5      2.737      3.504
REMARK  Name = 56774074
REMARK  11 active torsions:
REMARK  status: ('A' for Active; 'I' for Inactive)
REMARK    1  A    between atoms: S_1  and  N_5
REMARK    2  A    between atoms: S_1  and  C_16
REMARK    3  A    between atoms: N_5  and  C_9
REMARK    4  A    between atoms: C_7  and  C_12
REMARK    5  A    between atoms: C_7  and  C_13
REMARK    6  A    between atoms: C_8  and  C_11
REMARK    7  A    between atoms: C_11  and  C_14
REMARK    8  A    between atoms: C_17  and  C_18
REMARK    9  A    between atoms: C_18  and  C_19
REMARK   10  A    between atoms: C_19  and  C_20
REMARK   11  A    between atoms: C_20  and  C_21
REMARK                            x       y       z     vdW  Elec       q    Type
REMARK                         _______ _______ _______ _____ _____    ______ ____
ROOT
ATOM      7  C   UNL     1      -3.447  -1.442  24.685  0.00  0.00    -0.015 C 
ATOM      8  C   UNL     1      -2.446  -0.976  23.608  0.00  0.00    +0.004 C 
ATOM      9  C   UNL     1      -4.295  -0.205  24.323  0.00  0.00    +0.082 C 
ATOM     10  C   UNL     1      -2.989   0.451  23.830  0.00  0.00    +0.025 C 
ATOM     12  C   UNL     1      -2.941  -1.415  26.115  0.00  0.00    +0.013 C 
ATOM     13  C   UNL     1      -4.077  -2.784  24.382  0.00  0.00    +0.013 C 
ENDROOT
BRANCH   9   5
ATOM      5  N   UNL     1      -5.000   0.509  25.444  0.00  0.00    -0.191 NA
ATOM     22  H   UNL     1      -5.607  -0.118  25.990  0.00  0.00    +0.148 HD
BRANCH   5   1
ATOM      1  S   UNL     1      -5.552   2.125  25.374  0.00  0.00    +0.027 S 
ATOM      2  O   UNL     1      -4.642   2.914  24.565  0.00  0.00    -0.158 OA
ATOM      3  O   UNL     1      -5.922   2.545  26.710  0.00  0.00    -0.158 OA
ATOM     16  C   UNL     1      -7.051   1.900  24.446  0.00  0.00    +0.214 C 
ENDBRANCH   5   1
ENDBRANCH   9   5
BRANCH   8  11
ATOM     11  C   UNL     1      -0.952  -1.152  23.910  0.00  0.00    +0.063 C 
BRANCH  11  14
ATOM      4  O   UNL     1       0.871   1.888  24.346  0.00  0.00    -0.359 OA
ATOM      6  N   UNL     1       0.511   0.766  23.610  0.00  0.00    -0.083 NA
ATOM     14  C   UNL     1      -0.355   0.107  24.385  0.00  0.00    +0.084 A 
ATOM     15  C   UNL     1      -0.575   0.757  25.611  0.00  0.00    +0.071 A 
ATOM     17  C   UNL     1       0.218   1.872  25.536  0.00  0.00    +0.138 A 
BRANCH  17  18
ATOM     18  C   UNL     1       0.492   3.023  26.470  0.00  0.00    +0.077 C 
BRANCH  18  19
ATOM     19  C   UNL     1       0.496   2.576  27.933  0.00  0.00    +0.007 C 
BRANCH  19  20
ATOM     20  C   UNL     1       1.854   2.829  28.586  0.00  0.00    -0.003 C 
ATOM     21  C   UNL     1       1.967   2.122  29.928  0.00  0.00    +0.004 C 
ENDBRANCH  19  20
ENDBRANCH  18  19
ENDBRANCH  17  18
ENDBRANCH  11  14
ENDBRANCH   8  11
TORSDOF 7
ENDMDL
