MODEL 1
REMARK VINA RESULT:      -4.8      0.000      0.000
REMARK  Name = 75537016
REMARK  5 active torsions:
REMARK  status: ('A' for Active; 'I' for Inactive)
REMARK    1  A    between atoms: O_3  and  C_23
REMARK    2  A    between atoms: N_5  and  C_9
REMARK    3  A    between atoms: C_20  and  C_21
REMARK    4  A    between atoms: C_21  and  C_22
REMARK    5  A    between atoms: C_22  and  C_23
REMARK                            x       y       z     vdW  Elec       q    Type
REMARK                         _______ _______ _______ _____ _____    ______ ____
ROOT
ATOM      1  O   UNL     1      -8.849  -9.607  14.855  0.00  0.00    -0.252 OA
ATOM      2  O   UNL     1      -6.075  -9.353   8.475  0.00  0.00    -0.276 OA
ATOM      5  N   UNL     1      -6.645 -10.366  15.213  0.00  0.00    -0.281 N 
ATOM      6  N   UNL     1      -7.223  -9.658  13.160  0.00  0.00    -0.278 N 
ATOM      7  N   UNL     1      -6.152 -10.180  10.644  0.00  0.00    -0.298 N 
ATOM      8  C   UNL     1      -5.800  -9.936  13.063  0.00  0.00    +0.112 C 
ATOM     10  C   UNL     1      -5.472 -10.613  14.392  0.00  0.00    +0.133 C 
ATOM     11  C   UNL     1      -5.505 -10.780  11.826  0.00  0.00    +0.132 C 
ATOM     14  C   UNL     1      -7.715  -9.844  14.459  0.00  0.00    +0.305 C 
ATOM     15  C   UNL     1      -7.936  -9.144  12.004  0.00  0.00    +0.128 C 
ATOM     18  C   UNL     1      -7.604  -9.984  10.773  0.00  0.00    +0.127 C 
ATOM     20  C   UNL     1      -5.506  -9.831   9.461  0.00  0.00    +0.216 C 
ENDROOT
BRANCH   5   9
ATOM      9  C   UNL     1      -6.703 -10.757  16.601  0.00  0.00    +0.078 C 
ATOM     12  C   UNL     1      -7.893 -10.092  17.295  0.00  0.00    +0.022 C 
ATOM     13  C   UNL     1      -5.387 -10.427  17.311  0.00  0.00    +0.022 C 
ATOM     16  C   UNL     1      -7.948 -10.446  18.779  0.00  0.00    +0.002 C 
ATOM     17  C   UNL     1      -5.446 -10.781  18.795  0.00  0.00    +0.002 C 
ATOM     19  C   UNL     1      -6.635 -10.120  19.485  0.00  0.00    +0.000 C 
ENDBRANCH   5   9
BRANCH  20  21
ATOM     21  C   UNL     1      -4.016 -10.060   9.413  0.00  0.00    +0.107 C 
BRANCH  21  22
ATOM     22  C   UNL     1      -3.300  -8.958  10.166  0.00  0.00    +0.129 C 
BRANCH  22  23
ATOM      4  O   UNL     1      -0.982  -8.925  10.844  0.00  0.00    -0.251 OA
ATOM     23  C   UNL     1      -2.071  -9.483  10.865  0.00  0.00    +0.305 C 
BRANCH  23   3
ATOM      3  O   UNL     1      -2.295 -10.658  11.504  0.00  0.00    -0.481 OA
ATOM     24  H   UNL     1      -3.251 -10.876  11.544  0.00  0.00    +0.295 HD
ENDBRANCH  23   3
ENDBRANCH  22  23
ENDBRANCH  21  22
ENDBRANCH  20  21
TORSDOF 5
ENDMDL
MODEL 2
REMARK VINA RESULT:      -3.7     15.177     17.393
REMARK  Name = 75537016
REMARK  5 active torsions:
REMARK  status: ('A' for Active; 'I' for Inactive)
REMARK    1  A    between atoms: O_3  and  C_23
REMARK    2  A    between atoms: N_5  and  C_9
REMARK    3  A    between atoms: C_20  and  C_21
REMARK    4  A    between atoms: C_21  and  C_22
REMARK    5  A    between atoms: C_22  and  C_23
REMARK                            x       y       z     vdW  Elec       q    Type
REMARK                         _______ _______ _______ _____ _____    ______ ____
ROOT
ATOM      1  O   UNL     1       0.063  -2.081  24.061  0.00  0.00    -0.252 OA
ATOM      2  O   UNL     1      -5.663   1.757  25.031  0.00  0.00    -0.276 OA
ATOM      5  N   UNL     1       0.803   0.100  23.554  0.00  0.00    -0.281 N 
ATOM      6  N   UNL     1      -1.295  -0.179  24.309  0.00  0.00    -0.278 N 
ATOM      7  N   UNL     1      -3.580   1.392  24.072  0.00  0.00    -0.298 N 
ATOM      8  C   UNL     1      -1.130   1.261  24.211  0.00  0.00    +0.112 C 
ATOM     10  C   UNL     1       0.211   1.425  23.500  0.00  0.00    +0.133 C 
ATOM     11  C   UNL     1      -2.319   1.885  23.485  0.00  0.00    +0.132 C 
ATOM     14  C   UNL     1      -0.119  -0.873  23.987  0.00  0.00    +0.305 C 
ATOM     15  C   UNL     1      -2.545  -0.729  24.801  0.00  0.00    +0.128 C 
ATOM     18  C   UNL     1      -3.720  -0.072  24.083  0.00  0.00    +0.127 C 
ATOM     20  C   UNL     1      -4.606   2.194  24.567  0.00  0.00    +0.216 C 
ENDROOT
BRANCH   5   9
ATOM      9  C   UNL     1       2.140  -0.160  23.077  0.00  0.00    +0.078 C 
ATOM     12  C   UNL     1       2.865  -1.127  24.014  0.00  0.00    +0.022 C 
ATOM     13  C   UNL     1       2.921   1.148  22.913  0.00  0.00    +0.022 C 
ATOM     16  C   UNL     1       4.301  -1.380  23.561  0.00  0.00    +0.002 C 
ATOM     17  C   UNL     1       4.356   0.892  22.462  0.00  0.00    +0.002 C 
ATOM     19  C   UNL     1       5.076  -0.076  23.396  0.00  0.00    +0.000 C 
ENDBRANCH   5   9
BRANCH  20  21
ATOM     21  C   UNL     1      -4.380   3.684  24.522  0.00  0.00    +0.107 C 
BRANCH  21  22
ATOM     22  C   UNL     1      -3.823   4.161  25.848  0.00  0.00    +0.129 C 
BRANCH  22  23
ATOM      4  O   UNL     1      -1.779   5.224  25.121  0.00  0.00    -0.251 OA
ATOM     23  C   UNL     1      -2.328   4.348  25.778  0.00  0.00    +0.305 C 
BRANCH  23   3
ATOM      3  O   UNL     1      -1.651   3.425  26.504  0.00  0.00    -0.481 OA
ATOM     24  H   UNL     1      -0.681   3.567  26.464  0.00  0.00    +0.295 HD
ENDBRANCH  23   3
ENDBRANCH  22  23
ENDBRANCH  21  22
ENDBRANCH  20  21
TORSDOF 5
ENDMDL
MODEL 3
REMARK VINA RESULT:      -2.4     15.265     16.520
REMARK  Name = 75537016
REMARK  5 active torsions:
REMARK  status: ('A' for Active; 'I' for Inactive)
REMARK    1  A    between atoms: O_3  and  C_23
REMARK    2  A    between atoms: N_5  and  C_9
REMARK    3  A    between atoms: C_20  and  C_21
REMARK    4  A    between atoms: C_21  and  C_22
REMARK    5  A    between atoms: C_22  and  C_23
REMARK                            x       y       z     vdW  Elec       q    Type
REMARK                         _______ _______ _______ _____ _____    ______ ____
ROOT
ATOM      1  O   UNL     1      -3.433  -0.705  25.223  0.00  0.00    -0.252 OA
ATOM      2  O   UNL     1       3.192  -1.690  23.327  0.00  0.00    -0.276 OA
ATOM      5  N   UNL     1      -2.939   1.256  24.008  0.00  0.00    -0.281 N 
ATOM      6  N   UNL     1      -1.388  -0.366  24.117  0.00  0.00    -0.278 N 
ATOM      7  N   UNL     1       1.376  -0.319  23.788  0.00  0.00    -0.298 N 
ATOM      8  C   UNL     1      -0.821   0.623  23.217  0.00  0.00    +0.112 C 
ATOM     10  C   UNL     1      -1.783   1.804  23.322  0.00  0.00    +0.133 C 
ATOM     11  C   UNL     1       0.621   0.936  23.609  0.00  0.00    +0.132 C 
ATOM     14  C   UNL     1      -2.683  -0.026  24.534  0.00  0.00    +0.305 C 
ATOM     15  C   UNL     1      -0.655  -1.586  24.400  0.00  0.00    +0.128 C 
ATOM     18  C   UNL     1       0.790  -1.253  24.762  0.00  0.00    +0.127 C 
ATOM     20  C   UNL     1       2.566  -0.643  23.141  0.00  0.00    +0.216 C 
ENDROOT
BRANCH   5   9
ATOM      9  C   UNL     1      -4.140   2.029  24.220  0.00  0.00    +0.078 C 
ATOM     12  C   UNL     1      -3.838   3.266  25.068  0.00  0.00    +0.022 C 
ATOM     13  C   UNL     1      -5.232   1.167  24.861  0.00  0.00    +0.022 C 
ATOM     16  C   UNL     1      -5.101   4.075  25.352  0.00  0.00    +0.002 C 
ATOM     17  C   UNL     1      -6.493   1.980  25.145  0.00  0.00    +0.002 C 
ATOM     19  C   UNL     1      -6.189   3.215  25.987  0.00  0.00    +0.000 C 
ENDBRANCH   5   9
BRANCH  20  21
ATOM     21  C   UNL     1       3.095   0.368  22.156  0.00  0.00    +0.107 C 
BRANCH  21  22
ATOM     22  C   UNL     1       4.139   1.241  22.823  0.00  0.00    +0.129 C 
BRANCH  22  23
ATOM      4  O   UNL     1       6.072  -0.209  22.809  0.00  0.00    -0.251 OA
ATOM     23  C   UNL     1       5.229   0.407  23.449  0.00  0.00    +0.305 C 
BRANCH  23   3
ATOM      3  O   UNL     1       5.162   0.392  24.803  0.00  0.00    -0.481 OA
ATOM     24  H   UNL     1       6.052   0.440  25.215  0.00  0.00    +0.295 HD
ENDBRANCH  23   3
ENDBRANCH  22  23
ENDBRANCH  21  22
ENDBRANCH  20  21
TORSDOF 5
ENDMDL
MODEL 4
REMARK VINA RESULT:      -1.2      2.066      2.828
REMARK  Name = 75537016
REMARK  5 active torsions:
REMARK  status: ('A' for Active; 'I' for Inactive)
REMARK    1  A    between atoms: O_3  and  C_23
REMARK    2  A    between atoms: N_5  and  C_9
REMARK    3  A    between atoms: C_20  and  C_21
REMARK    4  A    between atoms: C_21  and  C_22
REMARK    5  A    between atoms: C_22  and  C_23
REMARK                            x       y       z     vdW  Elec       q    Type
REMARK                         _______ _______ _______ _____ _____    ______ ____
ROOT
ATOM      1  O   UNL     1      -7.086 -10.440  15.188  0.00  0.00    -0.252 OA
ATOM      2  O   UNL     1      -2.381  -9.821  10.096  0.00  0.00    -0.276 OA
ATOM      5  N   UNL     1      -5.040 -10.488  16.359  0.00  0.00    -0.281 N 
ATOM      6  N   UNL     1      -5.007 -10.126  14.141  0.00  0.00    -0.278 N 
ATOM      7  N   UNL     1      -3.015 -10.481  12.230  0.00  0.00    -0.298 N 
ATOM      8  C   UNL     1      -3.622  -9.978  14.557  0.00  0.00    +0.112 C 
ATOM     10  C   UNL     1      -3.630 -10.434  16.014  0.00  0.00    +0.133 C 
ATOM     11  C   UNL     1      -2.702 -10.780  13.640  0.00  0.00    +0.132 C 
ATOM     14  C   UNL     1      -5.866 -10.359  15.225  0.00  0.00    +0.305 C 
ATOM     15  C   UNL     1      -5.366  -9.927  12.749  0.00  0.00    +0.128 C 
ATOM     18  C   UNL     1      -4.417 -10.715  11.850  0.00  0.00    +0.127 C 
ATOM     20  C   UNL     1      -2.100 -10.040  11.277  0.00  0.00    +0.216 C 
ENDROOT
BRANCH   5   9
ATOM      9  C   UNL     1      -5.488 -10.781  17.699  0.00  0.00    +0.078 C 
ATOM     12  C   UNL     1      -6.748  -9.980  18.030  0.00  0.00    +0.022 C 
ATOM     13  C   UNL     1      -4.373 -10.511  18.714  0.00  0.00    +0.022 C 
ATOM     16  C   UNL     1      -7.215 -10.231  19.462  0.00  0.00    +0.002 C 
ATOM     17  C   UNL     1      -4.844 -10.762  20.144  0.00  0.00    +0.002 C 
ATOM     19  C   UNL     1      -6.102  -9.965  20.471  0.00  0.00    +0.000 C 
ENDBRANCH   5   9
BRANCH  20  21
ATOM     21  C   UNL     1      -0.685  -9.822  11.751  0.00  0.00    +0.107 C 
BRANCH  21  22
ATOM     22  C   UNL     1      -0.217  -8.437  11.356  0.00  0.00    +0.129 C 
BRANCH  22  23
ATOM      4  O   UNL     1       0.888  -6.629  12.519  0.00  0.00    -0.251 OA
ATOM     23  C   UNL     1       0.182  -7.629  12.566  0.00  0.00    +0.305 C 
BRANCH  23   3
ATOM      3  O   UNL     1      -0.307  -8.143  13.721  0.00  0.00    -0.481 OA
ATOM     24  H   UNL     1       0.399  -8.549  14.270  0.00  0.00    +0.295 HD
ENDBRANCH  23   3
ENDBRANCH  22  23
ENDBRANCH  21  22
ENDBRANCH  20  21
TORSDOF 5
ENDMDL
MODEL 5
REMARK VINA RESULT:      -1.0     14.348     16.973
REMARK  Name = 75537016
REMARK  5 active torsions:
REMARK  status: ('A' for Active; 'I' for Inactive)
REMARK    1  A    between atoms: O_3  and  C_23
REMARK    2  A    between atoms: N_5  and  C_9
REMARK    3  A    between atoms: C_20  and  C_21
REMARK    4  A    between atoms: C_21  and  C_22
REMARK    5  A    between atoms: C_22  and  C_23
REMARK                            x       y       z     vdW  Elec       q    Type
REMARK                         _______ _______ _______ _____ _____    ______ ____
ROOT
ATOM      1  O   UNL     1       1.961   2.653  23.567  0.00  0.00    -0.252 OA
ATOM      2  O   UNL     1      -4.781   2.174  25.231  0.00  0.00    -0.276 OA
ATOM      5  N   UNL     1       1.516   0.354  23.286  0.00  0.00    -0.281 N 
ATOM      6  N   UNL     1      -0.185   1.728  23.804  0.00  0.00    -0.278 N 
ATOM      7  N   UNL     1      -2.661   1.257  24.984  0.00  0.00    -0.298 N 
ATOM      8  C   UNL     1      -0.811   0.435  23.592  0.00  0.00    +0.112 C 
ATOM     10  C   UNL     1       0.370  -0.522  23.454  0.00  0.00    +0.133 C 
ATOM     11  C   UNL     1      -1.766   0.110  24.738  0.00  0.00    +0.132 C 
ATOM     14  C   UNL     1       1.194   1.700  23.551  0.00  0.00    +0.305 C 
ATOM     15  C   UNL     1      -1.005   2.880  24.132  0.00  0.00    +0.128 C 
ATOM     18  C   UNL     1      -1.971   2.526  25.260  0.00  0.00    +0.127 C 
ATOM     20  C   UNL     1      -4.053   1.204  24.997  0.00  0.00    +0.216 C 
ENDROOT
BRANCH   5   9
ATOM      9  C   UNL     1       2.838  -0.158  23.016  0.00  0.00    +0.078 C 
ATOM     12  C   UNL     1       3.176  -1.300  23.975  0.00  0.00    +0.022 C 
ATOM     13  C   UNL     1       3.879   0.962  23.093  0.00  0.00    +0.022 C 
ATOM     16  C   UNL     1       4.591  -1.828  23.746  0.00  0.00    +0.002 C 
ATOM     17  C   UNL     1       5.292   0.432  22.864  0.00  0.00    +0.002 C 
ATOM     19  C   UNL     1       5.627  -0.709  23.820  0.00  0.00    +0.000 C 
ENDBRANCH   5   9
BRANCH  20  21
ATOM     21  C   UNL     1      -4.681  -0.134  24.701  0.00  0.00    +0.107 C 
BRANCH  21  22
ATOM     22  C   UNL     1      -3.941  -1.227  25.445  0.00  0.00    +0.129 C 
BRANCH  22  23
ATOM      4  O   UNL     1      -2.778  -3.223  24.737  0.00  0.00    -0.251 OA
ATOM     23  C   UNL     1      -3.680  -2.415  24.554  0.00  0.00    +0.305 C 
BRANCH  23   3
ATOM      3  O   UNL     1      -4.542  -2.483  23.509  0.00  0.00    -0.481 OA
ATOM     24  H   UNL     1      -5.350  -2.993  23.732  0.00  0.00    +0.295 HD
ENDBRANCH  23   3
ENDBRANCH  22  23
ENDBRANCH  21  22
ENDBRANCH  20  21
TORSDOF 5
ENDMDL
