MODEL 1
REMARK VINA RESULT:      10.5      0.000      0.000
REMARK  Name = 11883052
REMARK  8 active torsions:
REMARK  status: ('A' for Active; 'I' for Inactive)
REMARK    1  A    between atoms: O_4  and  C_16
REMARK    2  A    between atoms: O_5  and  C_21
REMARK    3  A    between atoms: C_11  and  C_19
REMARK    4  A    between atoms: C_13  and  C_21
REMARK    5  A    between atoms: C_13  and  C_22
REMARK    6  A    between atoms: C_14  and  C_24
REMARK    7  A    between atoms: C_24  and  C_25
REMARK    8  A    between atoms: C_32  and  C_33
REMARK                            x       y       z     vdW  Elec       q    Type
REMARK                         _______ _______ _______ _____ _____    ______ ____
ROOT
ATOM      1  S   UNL     1       0.334   2.123  25.898  0.00  0.00    -0.057 S 
ATOM      7  O   UNL     1       1.853  -0.191  22.155  0.00  0.00    -0.270 OA
ATOM      8  N   UNL     1      -0.352   1.146  23.603  0.00  0.00    -0.229 NA
ATOM     10  N   UNL     1       1.946   0.853  24.266  0.00  0.00    -0.261 N 
ATOM     11  C   UNL     1      -3.995   2.101  24.432  0.00  0.00    -0.019 C 
ATOM     12  C   UNL     1      -3.550   3.355  25.306  0.00  0.00    +0.011 C 
ATOM     13  C   UNL     1      -4.690   4.140  26.063  0.00  0.00    +0.021 C 
ATOM     14  C   UNL     1      -2.797   1.745  23.436  0.00  0.00    +0.054 C 
ATOM     15  C   UNL     1      -5.238   2.477  23.585  0.00  0.00    +0.010 C 
ATOM     16  C   UNL     1      -5.873   4.394  25.086  0.00  0.00    +0.123 C 
ATOM     17  C   UNL     1      -2.321   3.018  26.200  0.00  0.00    +0.049 C 
ATOM     18  C   UNL     1      -6.357   3.128  24.387  0.00  0.00    +0.032 C 
ATOM     19  C   UNL     1      -4.337   0.859  25.292  0.00  0.00    +0.012 C 
ATOM     20  C   UNL     1      -1.477   1.725  24.162  0.00  0.00    +0.058 A 
ATOM     22  C   UNL     1      -4.144   5.530  26.499  0.00  0.00    +0.016 C 
ATOM     23  C   UNL     1      -1.280   2.318  25.392  0.00  0.00    +0.015 A 
ATOM     26  C   UNL     1       0.659   1.289  24.432  0.00  0.00    +0.165 A 
ATOM     32  C   UNL     1       2.461   0.153  23.163  0.00  0.00    +0.255 C 
ATOM     41  H   UNL     1       2.561   1.064  25.048  0.00  0.00    +0.157 HD
ENDROOT
BRANCH  32  33
ATOM      2  F   UNL     1       3.394  -2.276  24.210  0.00  0.00    -0.205 F 
ATOM      3  F   UNL     1       4.436   1.927  22.260  0.00  0.00    -0.205 F 
ATOM     33  C   UNL     1       3.910  -0.173  23.235  0.00  0.00    +0.107 A 
ATOM     34  C   UNL     1       4.293  -1.388  23.763  0.00  0.00    +0.138 A 
ATOM     35  C   UNL     1       4.823   0.751  22.771  0.00  0.00    +0.138 A 
ATOM     36  C   UNL     1       5.652  -1.693  23.831  0.00  0.00    +0.039 A 
ATOM     37  C   UNL     1       6.182   0.445  22.839  0.00  0.00    +0.039 A 
ATOM     38  C   UNL     1       6.597  -0.777  23.370  0.00  0.00    +0.006 A 
ENDBRANCH  32  33
BRANCH  16   4
ATOM      4  O   UNL     1      -6.974   4.988  25.773  0.00  0.00    -0.391 OA
ATOM     39  H   UNL     1      -7.077   5.896  25.446  0.00  0.00    +0.210 HD
ENDBRANCH  16   4
BRANCH  13  21
ATOM     21  C   UNL     1      -5.182   3.462  27.360  0.00  0.00    +0.165 C 
BRANCH  21   5
ATOM      5  O   UNL     1      -6.220   2.572  27.015  0.00  0.00    -0.394 OA
ATOM     40  H   UNL     1      -6.403   2.676  26.066  0.00  0.00    +0.209 HD
ENDBRANCH  21   5
ENDBRANCH  13  21
BRANCH  14  24
ATOM     24  C   UNL     1      -3.008   0.463  22.618  0.00  0.00    +0.106 C 
BRANCH  24  25
ATOM      6  O   UNL     1      -4.872  -0.529  23.691  0.00  0.00    -0.276 OA
ATOM      9  N   UNL     1      -2.824  -1.586  23.987  0.00  0.00    -0.301 N 
ATOM     25  C   UNL     1      -3.659  -0.591  23.478  0.00  0.00    +0.216 C 
ATOM     27  C   UNL     1      -3.381  -2.643  24.833  0.00  0.00    +0.108 C 
ATOM     28  C   UNL     1      -1.386  -1.710  23.714  0.00  0.00    +0.108 C 
ATOM     29  C   UNL     1      -2.626  -2.738  26.156  0.00  0.00    +0.019 C 
ATOM     30  C   UNL     1      -0.592  -1.788  25.016  0.00  0.00    +0.019 C 
ATOM     31  C   UNL     1      -1.124  -2.896  25.925  0.00  0.00    +0.003 C 
ENDBRANCH  24  25
ENDBRANCH  14  24
TORSDOF 6
ENDMDL
