MODEL 1
REMARK VINA RESULT:       5.7      0.000      0.000
REMARK  Name = 25391098
REMARK  7 active torsions:
REMARK  status: ('A' for Active; 'I' for Inactive)
REMARK    1  A    between atoms: N_7  and  C_19
REMARK    2  A    between atoms: C_11  and  C_14
REMARK    3  A    between atoms: C_14  and  C_19
REMARK    4  A    between atoms: C_18  and  C_27
REMARK    5  A    between atoms: C_19  and  C_30
REMARK    6  A    between atoms: C_20  and  C_23
REMARK    7  A    between atoms: C_31  and  C_32
REMARK                            x       y       z     vdW  Elec       q    Type
REMARK                         _______ _______ _______ _____ _____    ______ ____
ROOT
ATOM      1  O   UNL     1      -2.642   2.769  24.030  0.00  0.00    -0.275 OA
ATOM      4  O   UNL     1       2.214  -1.520  21.826  0.00  0.00    -0.270 OA
ATOM      5  N   UNL     1      -0.466   1.945  24.041  0.00  0.00    -0.287 N 
ATOM      6  N   UNL     1       1.631   0.566  22.704  0.00  0.00    -0.294 N 
ATOM     18  C   UNL     1      -0.790   0.856  23.107  0.00  0.00    +0.179 C 
ATOM     21  C   UNL     1       0.310   0.593  22.080  0.00  0.00    +0.140 C 
ATOM     22  C   UNL     1       0.905   1.962  24.583  0.00  0.00    +0.127 C 
ATOM     23  C   UNL     1      -1.495   2.784  24.483  0.00  0.00    +0.219 C 
ATOM     26  C   UNL     1       1.946   1.763  23.488  0.00  0.00    +0.127 C 
ATOM     31  C   UNL     1       2.484  -0.516  22.485  0.00  0.00    +0.248 C 
ENDROOT
BRANCH  23  20
ATOM      8  N   UNL     1      -3.405   5.562  26.089  0.00  0.00    -0.316 NA
ATOM     20  C   UNL     1      -1.151   3.756  25.576  0.00  0.00    +0.078 C 
ATOM     24  C   UNL     1      -2.088   3.583  26.774  0.00  0.00    +0.028 C 
ATOM     25  C   UNL     1      -1.186   5.195  25.057  0.00  0.00    +0.028 C 
ATOM     28  C   UNL     1      -3.478   4.163  26.510  0.00  0.00    +0.081 C 
ATOM     29  C   UNL     1      -2.615   5.708  24.866  0.00  0.00    +0.081 C 
ATOM     38  H   UNL     1      -4.347   5.915  25.926  0.00  0.00    +0.122 HD
ENDBRANCH  23  20
BRANCH  31  32
ATOM     10  N   UNL     1       5.526  -1.607  24.389  0.00  0.00    -0.263 NA
ATOM     32  C   UNL     1       3.817  -0.482  23.100  0.00  0.00    +0.055 A 
ATOM     33  C   UNL     1       4.624   0.645  22.999  0.00  0.00    +0.016 A 
ATOM     34  C   UNL     1       4.309  -1.573  23.800  0.00  0.00    +0.123 A 
ATOM     35  C   UNL     1       5.883   0.647  23.592  0.00  0.00    +0.020 A 
ATOM     36  C   UNL     1       6.283  -0.493  24.269  0.00  0.00    +0.111 A 
ENDBRANCH  31  32
BRANCH  18  27
ATOM      2  O   UNL     1      -0.190  -1.185  24.196  0.00  0.00    -0.274 OA
ATOM      7  N   UNL     1      -2.382  -0.418  24.368  0.00  0.00    -0.302 N 
ATOM     27  C   UNL     1      -1.064  -0.356  23.949  0.00  0.00    +0.236 C 
ATOM     37  H   UNL     1      -3.029   0.312  24.086  0.00  0.00    +0.150 HD
BRANCH   7  19
ATOM     19  C   UNL     1      -2.906  -1.498  25.172  0.00  0.00    +0.159 C 
BRANCH  19  30
ATOM      3  O   UNL     1      -4.487  -2.813  23.878  0.00  0.00    -0.274 OA
ATOM      9  N   UNL     1      -2.283  -3.459  23.898  0.00  0.00    -0.328 N 
ATOM     30  C   UNL     1      -3.329  -2.633  24.248  0.00  0.00    +0.231 C 
ATOM     39  H   UNL     1      -1.335  -3.311  24.228  0.00  0.00    +0.145 HD
ATOM     40  H   UNL     1      -2.433  -4.260  23.292  0.00  0.00    +0.145 HD
ENDBRANCH  19  30
BRANCH  19  14
ATOM     14  C   UNL     1      -4.035  -1.035  26.100  0.00  0.00    +0.035 C 
BRANCH  14  11
ATOM     11  C   UNL     1      -4.499   0.400  25.853  0.00  0.00    -0.009 C 
ATOM     12  C   UNL     1      -4.786   0.626  24.362  0.00  0.00    +0.003 C 
ATOM     13  C   UNL     1      -5.735   0.722  26.703  0.00  0.00    +0.003 C 
ATOM     15  C   UNL     1      -5.303   2.038  24.097  0.00  0.00    +0.000 C 
ATOM     16  C   UNL     1      -6.251   2.135  26.433  0.00  0.00    +0.000 C 
ATOM     17  C   UNL     1      -6.526   2.359  24.950  0.00  0.00    +0.000 C 
ENDBRANCH  14  11
ENDBRANCH  19  14
ENDBRANCH   7  19
ENDBRANCH  18  27
TORSDOF 7
ENDMDL
MODEL 2
REMARK VINA RESULT:       8.3      2.005      6.720
REMARK  Name = 25391098
REMARK  7 active torsions:
REMARK  status: ('A' for Active; 'I' for Inactive)
REMARK    1  A    between atoms: N_7  and  C_19
REMARK    2  A    between atoms: C_11  and  C_14
REMARK    3  A    between atoms: C_14  and  C_19
REMARK    4  A    between atoms: C_18  and  C_27
REMARK    5  A    between atoms: C_19  and  C_30
REMARK    6  A    between atoms: C_20  and  C_23
REMARK    7  A    between atoms: C_31  and  C_32
REMARK                            x       y       z     vdW  Elec       q    Type
REMARK                         _______ _______ _______ _____ _____    ______ ____
ROOT
ATOM      1  O   UNL     1      -1.522   4.811  25.608  0.00  0.00    -0.275 OA
ATOM      4  O   UNL     1      -0.055  -1.873  25.642  0.00  0.00    -0.270 OA
ATOM      5  N   UNL     1      -2.006   2.596  25.084  0.00  0.00    -0.287 N 
ATOM      6  N   UNL     1      -1.659  -0.174  25.624  0.00  0.00    -0.294 N 
ATOM     18  C   UNL     1      -0.717   2.110  25.599  0.00  0.00    +0.179 C 
ATOM     21  C   UNL     1      -0.826   0.783  26.348  0.00  0.00    +0.140 C 
ATOM     22  C   UNL     1      -2.881   1.594  24.447  0.00  0.00    +0.127 C 
ATOM     23  C   UNL     1      -2.254   3.973  25.075  0.00  0.00    +0.219 C 
ATOM     26  C   UNL     1      -2.994   0.329  25.288  0.00  0.00    +0.127 C 
ATOM     31  C   UNL     1      -1.177  -1.456  25.357  0.00  0.00    +0.248 C 
ENDROOT
BRANCH  23  20
ATOM      8  N   UNL     1      -5.803   2.819  25.206  0.00  0.00    -0.316 NA
ATOM     20  C   UNL     1      -3.499   4.430  24.368  0.00  0.00    +0.078 C 
ATOM     24  C   UNL     1      -4.538   4.939  25.369  0.00  0.00    +0.028 C 
ATOM     25  C   UNL     1      -4.076   3.308  23.502  0.00  0.00    +0.028 C 
ATOM     28  C   UNL     1      -5.223   3.799  26.124  0.00  0.00    +0.081 C 
ATOM     29  C   UNL     1      -4.781   2.236  24.336  0.00  0.00    +0.081 C 
ATOM     38  H   UNL     1      -6.251   2.078  25.742  0.00  0.00    +0.122 HD
ENDBRANCH  23  20
BRANCH  31  32
ATOM     10  N   UNL     1      -2.323  -4.196  23.066  0.00  0.00    -0.263 NA
ATOM     32  C   UNL     1      -2.064  -2.398  24.663  0.00  0.00    +0.055 A 
ATOM     33  C   UNL     1      -3.432  -2.410  24.909  0.00  0.00    +0.016 A 
ATOM     34  C   UNL     1      -1.563  -3.303  23.740  0.00  0.00    +0.123 A 
ATOM     35  C   UNL     1      -4.246  -3.315  24.236  0.00  0.00    +0.020 A 
ATOM     36  C   UNL     1      -3.648  -4.178  23.332  0.00  0.00    +0.111 A 
ENDBRANCH  31  32
BRANCH  18  27
ATOM      2  O   UNL     1       0.569   2.994  23.789  0.00  0.00    -0.274 OA
ATOM      7  N   UNL     1       0.533   0.691  24.126  0.00  0.00    -0.302 N 
ATOM     27  C   UNL     1       0.199   2.003  24.414  0.00  0.00    +0.236 C 
ATOM     37  H   UNL     1       0.151  -0.057  24.696  0.00  0.00    +0.150 HD
BRANCH   7  19
ATOM     19  C   UNL     1       1.384   0.317  23.020  0.00  0.00    +0.159 C 
BRANCH  19  30
ATOM      3  O   UNL     1       0.900  -0.558  20.805  0.00  0.00    -0.274 OA
ATOM      9  N   UNL     1      -0.756   0.577  21.920  0.00  0.00    -0.328 N 
ATOM     30  C   UNL     1       0.510   0.045  21.802  0.00  0.00    +0.231 C 
ATOM     39  H   UNL     1      -1.059   1.092  22.741  0.00  0.00    +0.145 HD
ATOM     40  H   UNL     1      -1.435   0.474  21.173  0.00  0.00    +0.145 HD
ENDBRANCH  19  30
BRANCH  19  14
ATOM     14  C   UNL     1       2.301  -0.861  23.367  0.00  0.00    +0.035 C 
BRANCH  14  11
ATOM     11  C   UNL     1       3.688  -0.451  23.860  0.00  0.00    -0.009 C 
ATOM     12  C   UNL     1       4.649  -1.647  23.827  0.00  0.00    +0.003 C 
ATOM     13  C   UNL     1       4.235   0.714  23.025  0.00  0.00    +0.003 C 
ATOM     15  C   UNL     1       6.057  -1.249  24.265  0.00  0.00    +0.000 C 
ATOM     16  C   UNL     1       5.645   1.108  23.464  0.00  0.00    +0.000 C 
ATOM     17  C   UNL     1       6.595  -0.085  23.439  0.00  0.00    +0.000 C 
ENDBRANCH  14  11
ENDBRANCH  19  14
ENDBRANCH   7  19
ENDBRANCH  18  27
TORSDOF 7
ENDMDL
MODEL 3
REMARK VINA RESULT:       8.5      2.446      5.989
REMARK  Name = 25391098
REMARK  7 active torsions:
REMARK  status: ('A' for Active; 'I' for Inactive)
REMARK    1  A    between atoms: N_7  and  C_19
REMARK    2  A    between atoms: C_11  and  C_14
REMARK    3  A    between atoms: C_14  and  C_19
REMARK    4  A    between atoms: C_18  and  C_27
REMARK    5  A    between atoms: C_19  and  C_30
REMARK    6  A    between atoms: C_20  and  C_23
REMARK    7  A    between atoms: C_31  and  C_32
REMARK                            x       y       z     vdW  Elec       q    Type
REMARK                         _______ _______ _______ _____ _____    ______ ____
ROOT
ATOM      1  O   UNL     1      -4.505   3.484  22.930  0.00  0.00    -0.275 OA
ATOM      4  O   UNL     1       1.802   2.172  25.240  0.00  0.00    -0.270 OA
ATOM      5  N   UNL     1      -2.950   3.248  24.646  0.00  0.00    -0.287 N 
ATOM      6  N   UNL     1      -0.241   3.275  25.508  0.00  0.00    -0.294 N 
ATOM     18  C   UNL     1      -1.890   2.802  23.729  0.00  0.00    +0.179 C 
ATOM     21  C   UNL     1      -0.514   3.369  24.076  0.00  0.00    +0.140 C 
ATOM     22  C   UNL     1      -2.623   3.244  26.083  0.00  0.00    +0.127 C 
ATOM     23  C   UNL     1      -4.231   3.482  24.133  0.00  0.00    +0.219 C 
ATOM     26  C   UNL     1      -1.269   3.888  26.354  0.00  0.00    +0.127 C 
ATOM     31  C   UNL     1       0.941   2.685  25.955  0.00  0.00    +0.248 C 
ENDROOT
BRANCH  23  20
ATOM      8  N   UNL     1      -6.691   1.255  25.845  0.00  0.00    -0.316 NA
ATOM     20  C   UNL     1      -5.320   3.749  25.134  0.00  0.00    +0.078 C 
ATOM     24  C   UNL     1      -5.050   3.007  26.444  0.00  0.00    +0.028 C 
ATOM     25  C   UNL     1      -6.689   3.371  24.563  0.00  0.00    +0.028 C 
ATOM     28  C   UNL     1      -5.335   1.508  26.330  0.00  0.00    +0.081 C 
ATOM     29  C   UNL     1      -6.905   1.857  24.529  0.00  0.00    +0.081 C 
ATOM     38  H   UNL     1      -6.846   0.250  25.785  0.00  0.00    +0.122 HD
ENDBRANCH  23  20
BRANCH  31  32
ATOM     10  N   UNL     1       2.736   2.956  29.238  0.00  0.00    -0.263 NA
ATOM     32  C   UNL     1       1.193   2.649  27.402  0.00  0.00    +0.055 A 
ATOM     33  C   UNL     1       0.190   2.291  28.295  0.00  0.00    +0.016 A 
ATOM     34  C   UNL     1       2.438   2.970  27.919  0.00  0.00    +0.123 A 
ATOM     35  C   UNL     1       0.458   2.265  29.660  0.00  0.00    +0.020 A 
ATOM     36  C   UNL     1       1.736   2.603  30.076  0.00  0.00    +0.111 A 
ENDBRANCH  31  32
BRANCH  18  27
ATOM      2  O   UNL     1      -2.929   0.663  23.963  0.00  0.00    -0.274 OA
ATOM      7  N   UNL     1      -0.634   0.766  23.590  0.00  0.00    -0.302 N 
ATOM     27  C   UNL     1      -1.897   1.302  23.769  0.00  0.00    +0.236 C 
ATOM     37  H   UNL     1       0.158   1.389  23.460  0.00  0.00    +0.150 HD
BRANCH   7  19
ATOM     19  C   UNL     1      -0.367  -0.654  23.608  0.00  0.00    +0.159 C 
BRANCH  19  30
ATOM      3  O   UNL     1       0.078  -2.243  25.392  0.00  0.00    -0.274 OA
ATOM      9  N   UNL     1      -0.645  -0.138  25.956  0.00  0.00    -0.328 N 
ATOM     30  C   UNL     1      -0.269  -1.113  25.057  0.00  0.00    +0.231 C 
ATOM     39  H   UNL     1      -0.951   0.785  25.666  0.00  0.00    +0.145 HD
ATOM     40  H   UNL     1      -0.634  -0.319  26.955  0.00  0.00    +0.145 HD
ENDBRANCH  19  30
BRANCH  19  14
ATOM     14  C   UNL     1       0.872  -1.022  22.784  0.00  0.00    +0.035 C 
BRANCH  14  11
ATOM     11  C   UNL     1       2.170  -0.398  23.293  0.00  0.00    -0.009 C 
ATOM     12  C   UNL     1       3.213  -1.484  23.590  0.00  0.00    +0.003 C 
ATOM     13  C   UNL     1       2.713   0.621  22.282  0.00  0.00    +0.003 C 
ATOM     15  C   UNL     1       4.538  -0.881  24.049  0.00  0.00    +0.000 C 
ATOM     16  C   UNL     1       4.041   1.220  22.745  0.00  0.00    +0.000 C 
ATOM     17  C   UNL     1       5.072   0.137  23.047  0.00  0.00    +0.000 C 
ENDBRANCH  14  11
ENDBRANCH  19  14
ENDBRANCH   7  19
ENDBRANCH  18  27
TORSDOF 7
ENDMDL
