MODEL 1
REMARK VINA RESULT:      -3.7      0.000      0.000
REMARK  Name = 40777337
REMARK  9 active torsions:
REMARK  status: ('A' for Active; 'I' for Inactive)
REMARK    1  A    between atoms: N_7  and  C_23
REMARK    2  A    between atoms: N_7  and  C_24
REMARK    3  A    between atoms: N_7  and  C_25
REMARK    4  A    between atoms: C_8  and  C_12
REMARK    5  A    between atoms: C_9  and  C_14
REMARK    6  A    between atoms: C_12  and  C_15
REMARK    7  A    between atoms: C_14  and  C_16
REMARK    8  A    between atoms: C_22  and  C_23
REMARK    9  A    between atoms: C_24  and  C_26
REMARK                            x       y       z     vdW  Elec       q    Type
REMARK                         _______ _______ _______ _____ _____    ______ ____
ROOT
ATOM      4  N   UNL     1      -6.147   3.472  25.733  0.00  0.00    -0.316 NA
ATOM      8  C   UNL     1      -3.627   1.961  25.459  0.00  0.00    +0.004 C 
ATOM      9  C   UNL     1      -3.664   3.494  25.660  0.00  0.00    +0.012 C 
ATOM     10  C   UNL     1      -4.919   1.348  26.026  0.00  0.00    +0.019 C 
ATOM     11  C   UNL     1      -4.973   4.105  25.131  0.00  0.00    +0.085 C 
ATOM     13  C   UNL     1      -6.175   2.032  25.486  0.00  0.00    +0.081 C 
ATOM     32  H   UNL     1      -6.992   3.896  25.353  0.00  0.00    +0.122 HD
ENDROOT
BRANCH   8  12
ATOM     12  C   UNL     1      -3.411   1.528  24.004  0.00  0.00    +0.100 C 
BRANCH  12  15
ATOM      1  O   UNL     1      -4.556  -0.322  23.062  0.00  0.00    -0.276 OA
ATOM      2  O   UNL     1      -0.974  -2.595  25.601  0.00  0.00    -0.377 OA
ATOM      5  N   UNL     1      -2.929  -0.805  24.645  0.00  0.00    -0.297 N 
ATOM     15  C   UNL     1      -3.691   0.054  23.856  0.00  0.00    +0.216 C 
ATOM     17  C   UNL     1      -3.133  -2.252  24.559  0.00  0.00    +0.136 C 
ATOM     18  C   UNL     1      -1.984  -0.390  25.687  0.00  0.00    +0.136 C 
ATOM     20  C   UNL     1      -1.793  -2.973  24.492  0.00  0.00    +0.179 C 
ATOM     21  C   UNL     1      -0.693  -1.193  25.578  0.00  0.00    +0.179 C 
ENDBRANCH  12  15
ENDBRANCH   8  12
BRANCH   9  14
ATOM     14  C   UNL     1      -2.455   4.208  25.055  0.00  0.00    +0.064 C 
BRANCH  14  16
ATOM      3  O   UNL     1       0.407   2.161  25.815  0.00  0.00    -0.358 OA
ATOM      6  N   UNL     1      -0.654   2.976  26.186  0.00  0.00    -0.083 NA
ATOM     16  C   UNL     1      -1.247   3.317  25.037  0.00  0.00    +0.084 A 
ATOM     19  C   UNL     1      -0.607   2.753  23.920  0.00  0.00    +0.072 A 
ATOM     22  C   UNL     1       0.426   2.036  24.463  0.00  0.00    +0.151 A 
BRANCH  22  23
ATOM     23  C   UNL     1       1.492   1.200  23.897  0.00  0.00    +0.161 C 
BRANCH  23   7
ATOM      7  N   UNL     1       1.088   0.500  22.666  0.00  0.00    -0.294 NA
ATOM     25  C   UNL     1       0.343  -0.709  22.999  0.00  0.00    +0.105 C 
BRANCH   7  24
ATOM     24  C   UNL     1       2.262   0.181  21.862  0.00  0.00    +0.119 C 
BRANCH  24  26
ATOM     26  C   UNL     1       3.479  -0.056  22.714  0.00  0.00    -0.033 A 
ATOM     27  C   UNL     1       4.402   0.970  22.913  0.00  0.00    +0.005 A 
ATOM     28  C   UNL     1       3.684  -1.302  23.308  0.00  0.00    +0.005 A 
ATOM     29  C   UNL     1       5.530   0.751  23.704  0.00  0.00    +0.000 A 
ATOM     30  C   UNL     1       4.812  -1.521  24.099  0.00  0.00    +0.000 A 
ATOM     31  C   UNL     1       5.735  -0.494  24.296  0.00  0.00    +0.000 A 
ENDBRANCH  24  26
ENDBRANCH   7  24
ENDBRANCH  23   7
ENDBRANCH  22  23
ENDBRANCH  14  16
ENDBRANCH   9  14
TORSDOF 8
ENDMDL
MODEL 2
REMARK VINA RESULT:      -1.6      1.925      6.143
REMARK  Name = 40777337
REMARK  9 active torsions:
REMARK  status: ('A' for Active; 'I' for Inactive)
REMARK    1  A    between atoms: N_7  and  C_23
REMARK    2  A    between atoms: N_7  and  C_24
REMARK    3  A    between atoms: N_7  and  C_25
REMARK    4  A    between atoms: C_8  and  C_12
REMARK    5  A    between atoms: C_9  and  C_14
REMARK    6  A    between atoms: C_12  and  C_15
REMARK    7  A    between atoms: C_14  and  C_16
REMARK    8  A    between atoms: C_22  and  C_23
REMARK    9  A    between atoms: C_24  and  C_26
REMARK                            x       y       z     vdW  Elec       q    Type
REMARK                         _______ _______ _______ _____ _____    ______ ____
ROOT
ATOM      4  N   UNL     1       2.496   0.685  22.198  0.00  0.00    -0.316 NA
ATOM      8  C   UNL     1      -0.006   0.396  23.735  0.00  0.00    +0.004 C 
ATOM      9  C   UNL     1       0.919   1.629  23.869  0.00  0.00    +0.012 C 
ATOM     10  C   UNL     1       0.215  -0.252  22.359  0.00  0.00    +0.019 C 
ATOM     11  C   UNL     1       2.379   1.282  23.528  0.00  0.00    +0.085 C 
ATOM     13  C   UNL     1       1.691  -0.529  22.075  0.00  0.00    +0.081 C 
ATOM     32  H   UNL     1       3.473   0.463  22.012  0.00  0.00    +0.122 HD
ENDROOT
BRANCH   8  12
ATOM     12  C   UNL     1       0.164  -0.636  24.857  0.00  0.00    +0.100 C 
BRANCH  12  15
ATOM      1  O   UNL     1      -1.438   0.008  26.482  0.00  0.00    -0.276 OA
ATOM      2  O   UNL     1      -3.876  -3.564  24.084  0.00  0.00    -0.377 OA
ATOM      5  N   UNL     1      -1.924  -1.892  25.241  0.00  0.00    -0.297 N 
ATOM     15  C   UNL     1      -1.134  -0.804  25.606  0.00  0.00    +0.216 C 
ATOM     17  C   UNL     1      -3.203  -2.127  25.913  0.00  0.00    +0.136 C 
ATOM     18  C   UNL     1      -1.539  -2.946  24.296  0.00  0.00    +0.136 C 
ATOM     20  C   UNL     1      -4.285  -2.459  24.894  0.00  0.00    +0.179 C 
ATOM     21  C   UNL     1      -2.691  -3.249  23.346  0.00  0.00    +0.179 C 
ENDBRANCH  12  15
ENDBRANCH   8  12
BRANCH   9  14
ATOM     14  C   UNL     1       0.832   2.298  25.241  0.00  0.00    +0.064 C 
BRANCH  14  16
ATOM      3  O   UNL     1      -1.759   4.783  24.971  0.00  0.00    -0.358 OA
ATOM      6  N   UNL     1      -0.521   4.255  24.625  0.00  0.00    -0.083 NA
ATOM     16  C   UNL     1      -0.402   3.144  25.359  0.00  0.00    +0.084 A 
ATOM     19  C   UNL     1      -1.523   2.925  26.179  0.00  0.00    +0.072 A 
ATOM     22  C   UNL     1      -2.346   3.983  25.898  0.00  0.00    +0.151 A 
BRANCH  22  23
ATOM     23  C   UNL     1      -3.670   4.398  26.377  0.00  0.00    +0.161 C 
BRANCH  23   7
ATOM      7  N   UNL     1      -4.731   4.222  25.372  0.00  0.00    -0.294 NA
ATOM     25  C   UNL     1      -5.939   4.924  25.791  0.00  0.00    +0.105 C 
BRANCH   7  24
ATOM     24  C   UNL     1      -5.000   2.802  25.169  0.00  0.00    +0.119 C 
BRANCH  24  26
ATOM     26  C   UNL     1      -4.193   2.234  24.033  0.00  0.00    -0.033 A 
ATOM     27  C   UNL     1      -3.937   0.864  23.977  0.00  0.00    +0.005 A 
ATOM     28  C   UNL     1      -3.702   3.077  23.035  0.00  0.00    +0.005 A 
ATOM     29  C   UNL     1      -3.189   0.337  22.924  0.00  0.00    +0.000 A 
ATOM     30  C   UNL     1      -2.955   2.550  21.982  0.00  0.00    +0.000 A 
ATOM     31  C   UNL     1      -2.698   1.180  21.927  0.00  0.00    +0.000 A 
ENDBRANCH  24  26
ENDBRANCH   7  24
ENDBRANCH  23   7
ENDBRANCH  22  23
ENDBRANCH  14  16
ENDBRANCH   9  14
TORSDOF 8
ENDMDL
MODEL 3
REMARK VINA RESULT:      -1.0      1.979      6.451
REMARK  Name = 40777337
REMARK  9 active torsions:
REMARK  status: ('A' for Active; 'I' for Inactive)
REMARK    1  A    between atoms: N_7  and  C_23
REMARK    2  A    between atoms: N_7  and  C_24
REMARK    3  A    between atoms: N_7  and  C_25
REMARK    4  A    between atoms: C_8  and  C_12
REMARK    5  A    between atoms: C_9  and  C_14
REMARK    6  A    between atoms: C_12  and  C_15
REMARK    7  A    between atoms: C_14  and  C_16
REMARK    8  A    between atoms: C_22  and  C_23
REMARK    9  A    between atoms: C_24  and  C_26
REMARK                            x       y       z     vdW  Elec       q    Type
REMARK                         _______ _______ _______ _____ _____    ______ ____
ROOT
ATOM      4  N   UNL     1      -1.946  -3.062  25.498  0.00  0.00    -0.316 NA
ATOM      8  C   UNL     1      -0.715  -0.575  24.494  0.00  0.00    +0.004 C 
ATOM      9  C   UNL     1      -2.180  -0.967  24.185  0.00  0.00    +0.012 C 
ATOM     10  C   UNL     1      -0.274  -1.268  25.794  0.00  0.00    +0.019 C 
ATOM     11  C   UNL     1      -2.379  -2.492  24.222  0.00  0.00    +0.085 C 
ATOM     13  C   UNL     1      -0.540  -2.772  25.774  0.00  0.00    +0.081 C 
ATOM     32  H   UNL     1      -2.086  -4.072  25.482  0.00  0.00    +0.122 HD
ENDROOT
BRANCH   8  12
ATOM     12  C   UNL     1       0.265  -0.879  23.355  0.00  0.00    +0.100 C 
BRANCH  12  15
ATOM      1  O   UNL     1       0.719   1.437  23.118  0.00  0.00    -0.276 OA
ATOM      2  O   UNL     1       5.294  -0.419  23.406  0.00  0.00    -0.377 OA
ATOM      5  N   UNL     1       2.540   0.003  22.982  0.00  0.00    -0.297 N 
ATOM     15  C   UNL     1       1.187   0.296  23.140  0.00  0.00    +0.216 C 
ATOM     17  C   UNL     1       3.504   1.085  22.775  0.00  0.00    +0.136 C 
ATOM     18  C   UNL     1       3.113  -1.343  22.877  0.00  0.00    +0.136 C 
ATOM     20  C   UNL     1       4.733   0.874  23.648  0.00  0.00    +0.179 C 
ATOM     21  C   UNL     1       4.363  -1.453  23.742  0.00  0.00    +0.179 C 
ENDBRANCH  12  15
ENDBRANCH   8  12
BRANCH   9  14
ATOM     14  C   UNL     1      -2.688  -0.391  22.862  0.00  0.00    +0.064 C 
BRANCH  14  16
ATOM      3  O   UNL     1      -3.117   3.171  22.572  0.00  0.00    -0.358 OA
ATOM      6  N   UNL     1      -2.564   1.963  22.168  0.00  0.00    -0.083 NA
ATOM     16  C   UNL     1      -3.071   1.053  23.006  0.00  0.00    +0.084 A 
ATOM     19  C   UNL     1      -3.940   1.625  23.951  0.00  0.00    +0.072 A 
ATOM     22  C   UNL     1      -3.934   2.958  23.635  0.00  0.00    +0.151 A 
BRANCH  22  23
ATOM     23  C   UNL     1      -4.606   4.138  24.193  0.00  0.00    +0.161 C 
BRANCH  23   7
ATOM      7  N   UNL     1      -4.908   4.008  25.629  0.00  0.00    -0.294 NA
ATOM     25  C   UNL     1      -6.226   4.564  25.915  0.00  0.00    +0.105 C 
BRANCH   7  24
ATOM     24  C   UNL     1      -3.880   4.677  26.419  0.00  0.00    +0.119 C 
BRANCH  24  26
ATOM     26  C   UNL     1      -2.493   4.296  25.976  0.00  0.00    -0.033 A 
ATOM     27  C   UNL     1      -1.746   5.174  25.192  0.00  0.00    +0.005 A 
ATOM     28  C   UNL     1      -1.955   3.064  26.349  0.00  0.00    +0.005 A 
ATOM     29  C   UNL     1      -0.460   4.822  24.781  0.00  0.00    +0.000 A 
ATOM     30  C   UNL     1      -0.669   2.711  25.938  0.00  0.00    +0.000 A 
ATOM     31  C   UNL     1       0.078   3.590  25.153  0.00  0.00    +0.000 A 
ENDBRANCH  24  26
ENDBRANCH   7  24
ENDBRANCH  23   7
ENDBRANCH  22  23
ENDBRANCH  14  16
ENDBRANCH   9  14
TORSDOF 8
ENDMDL
MODEL 4
REMARK VINA RESULT:      -0.2      1.969      6.619
REMARK  Name = 40777337
REMARK  9 active torsions:
REMARK  status: ('A' for Active; 'I' for Inactive)
REMARK    1  A    between atoms: N_7  and  C_23
REMARK    2  A    between atoms: N_7  and  C_24
REMARK    3  A    between atoms: N_7  and  C_25
REMARK    4  A    between atoms: C_8  and  C_12
REMARK    5  A    between atoms: C_9  and  C_14
REMARK    6  A    between atoms: C_12  and  C_15
REMARK    7  A    between atoms: C_14  and  C_16
REMARK    8  A    between atoms: C_22  and  C_23
REMARK    9  A    between atoms: C_24  and  C_26
REMARK                            x       y       z     vdW  Elec       q    Type
REMARK                         _______ _______ _______ _____ _____    ______ ____
ROOT
ATOM      4  N   UNL     1      -2.275  -0.879  25.980  0.00  0.00    -0.316 NA
ATOM      8  C   UNL     1       0.460  -0.455  24.956  0.00  0.00    +0.004 C 
ATOM      9  C   UNL     1      -0.233   0.533  25.925  0.00  0.00    +0.012 C 
ATOM     10  C   UNL     1      -0.169  -1.847  25.124  0.00  0.00    +0.019 C 
ATOM     11  C   UNL     1      -1.764   0.479  25.791  0.00  0.00    +0.085 C 
ATOM     13  C   UNL     1      -1.693  -1.816  25.020  0.00  0.00    +0.081 C 
ATOM     32  H   UNL     1      -3.289  -0.877  25.877  0.00  0.00    +0.122 HD
ENDROOT
BRANCH   8  12
ATOM     12  C   UNL     1       0.426  -0.015  23.487  0.00  0.00    +0.100 C 
BRANCH  12  15
ATOM      1  O   UNL     1       1.409   2.110  23.111  0.00  0.00    -0.276 OA
ATOM      2  O   UNL     1       5.419  -0.763  23.447  0.00  0.00    -0.377 OA
ATOM      5  N   UNL     1       2.834   0.279  23.035  0.00  0.00    -0.297 N 
ATOM     15  C   UNL     1       1.593   0.894  23.193  0.00  0.00    +0.216 C 
ATOM     17  C   UNL     1       4.021   1.088  22.753  0.00  0.00    +0.136 C 
ATOM     18  C   UNL     1       3.068  -1.168  23.001  0.00  0.00    +0.136 C 
ATOM     20  C   UNL     1       5.188   0.637  23.621  0.00  0.00    +0.179 C 
ATOM     21  C   UNL     1       4.279  -1.527  23.854  0.00  0.00    +0.179 C 
ENDBRANCH  12  15
ENDBRANCH   8  12
BRANCH   9  14
ATOM     14  C   UNL     1       0.269   1.970  25.776  0.00  0.00    +0.064 C 
BRANCH  14  16
ATOM      3  O   UNL     1      -2.002   4.685  25.115  0.00  0.00    -0.358 OA
ATOM      6  N   UNL     1      -0.804   4.009  24.919  0.00  0.00    -0.083 NA
ATOM     16  C   UNL     1      -0.872   2.945  25.727  0.00  0.00    +0.084 A 
ATOM     19  C   UNL     1      -2.076   2.900  26.450  0.00  0.00    +0.072 A 
ATOM     22  C   UNL     1      -2.751   4.016  26.029  0.00  0.00    +0.151 A 
BRANCH  22  23
ATOM     23  C   UNL     1      -4.059   4.597  26.357  0.00  0.00    +0.161 C 
BRANCH  23   7
ATOM      7  N   UNL     1      -5.102   4.270  25.370  0.00  0.00    -0.294 NA
ATOM     25  C   UNL     1      -6.191   5.237  25.453  0.00  0.00    +0.105 C 
BRANCH   7  24
ATOM     24  C   UNL     1      -5.593   2.914  25.592  0.00  0.00    +0.119 C 
BRANCH  24  26
ATOM     26  C   UNL     1      -4.915   1.916  24.692  0.00  0.00    -0.033 A 
ATOM     27  C   UNL     1      -4.007   2.353  23.727  0.00  0.00    +0.005 A 
ATOM     28  C   UNL     1      -5.192   0.555  24.824  0.00  0.00    +0.005 A 
ATOM     29  C   UNL     1      -3.377   1.429  22.893  0.00  0.00    +0.000 A 
ATOM     30  C   UNL     1      -4.562  -0.369  23.991  0.00  0.00    +0.000 A 
ATOM     31  C   UNL     1      -3.655   0.068  23.025  0.00  0.00    +0.000 A 
ENDBRANCH  24  26
ENDBRANCH   7  24
ENDBRANCH  23   7
ENDBRANCH  22  23
ENDBRANCH  14  16
ENDBRANCH   9  14
TORSDOF 8
ENDMDL
MODEL 5
REMARK VINA RESULT:       0.2      1.518      2.153
REMARK  Name = 40777337
REMARK  9 active torsions:
REMARK  status: ('A' for Active; 'I' for Inactive)
REMARK    1  A    between atoms: N_7  and  C_23
REMARK    2  A    between atoms: N_7  and  C_24
REMARK    3  A    between atoms: N_7  and  C_25
REMARK    4  A    between atoms: C_8  and  C_12
REMARK    5  A    between atoms: C_9  and  C_14
REMARK    6  A    between atoms: C_12  and  C_15
REMARK    7  A    between atoms: C_14  and  C_16
REMARK    8  A    between atoms: C_22  and  C_23
REMARK    9  A    between atoms: C_24  and  C_26
REMARK                            x       y       z     vdW  Elec       q    Type
REMARK                         _______ _______ _______ _____ _____    ______ ____
ROOT
ATOM      4  N   UNL     1      -2.683   5.723  24.537  0.00  0.00    -0.316 NA
ATOM      8  C   UNL     1      -3.414   3.085  25.639  0.00  0.00    +0.004 C 
ATOM      9  C   UNL     1      -2.235   3.922  26.189  0.00  0.00    +0.012 C 
ATOM     10  C   UNL     1      -4.426   4.024  24.963  0.00  0.00    +0.019 C 
ATOM     11  C   UNL     1      -1.654   4.857  25.114  0.00  0.00    +0.085 C 
ATOM     13  C   UNL     1      -3.770   4.950  23.939  0.00  0.00    +0.081 C 
ATOM     32  H   UNL     1      -2.263   6.320  23.826  0.00  0.00    +0.122 HD
ENDROOT
BRANCH   8  12
ATOM     12  C   UNL     1      -2.990   1.962  24.684  0.00  0.00    +0.100 C 
BRANCH  12  15
ATOM      1  O   UNL     1      -5.239   1.428  24.155  0.00  0.00    -0.276 OA
ATOM      2  O   UNL     1      -3.191  -3.070  24.320  0.00  0.00    -0.377 OA
ATOM      5  N   UNL     1      -3.845  -0.352  24.680  0.00  0.00    -0.297 N 
ATOM     15  C   UNL     1      -4.131   0.997  24.482  0.00  0.00    +0.216 C 
ATOM     17  C   UNL     1      -4.894  -1.357  24.499  0.00  0.00    +0.136 C 
ATOM     18  C   UNL     1      -2.578  -0.888  25.189  0.00  0.00    +0.136 C 
ATOM     20  C   UNL     1      -4.364  -2.539  23.698  0.00  0.00    +0.179 C 
ATOM     21  C   UNL     1      -2.146  -2.094  24.363  0.00  0.00    +0.179 C 
ENDBRANCH  12  15
ENDBRANCH   8  12
BRANCH   9  14
ATOM     14  C   UNL     1      -1.131   3.067  26.811  0.00  0.00    +0.064 C 
BRANCH  14  16
ATOM      3  O   UNL     1       1.011   1.962  24.137  0.00  0.00    -0.358 OA
ATOM      6  N   UNL     1       0.495   2.944  24.973  0.00  0.00    -0.083 NA
ATOM     16  C   UNL     1      -0.373   2.305  25.763  0.00  0.00    +0.084 A 
ATOM     19  C   UNL     1      -0.446   0.932  25.474  0.00  0.00    +0.072 A 
ATOM     22  C   UNL     1       0.443   0.767  24.444  0.00  0.00    +0.151 A 
BRANCH  22  23
ATOM     23  C   UNL     1       0.879  -0.389  23.652  0.00  0.00    +0.161 C 
BRANCH  23   7
ATOM      7  N   UNL     1       1.304  -0.030  22.288  0.00  0.00    -0.294 NA
ATOM     25  C   UNL     1       0.225  -0.291  21.342  0.00  0.00    +0.105 C 
BRANCH   7  24
ATOM     24  C   UNL     1       2.505  -0.775  21.925  0.00  0.00    +0.119 C 
BRANCH  24  26
ATOM     26  C   UNL     1       3.683  -0.394  22.780  0.00  0.00    -0.033 A 
ATOM     27  C   UNL     1       4.313  -1.357  23.568  0.00  0.00    +0.005 A 
ATOM     28  C   UNL     1       4.146   0.923  22.784  0.00  0.00    +0.005 A 
ATOM     29  C   UNL     1       5.405  -1.004  24.361  0.00  0.00    +0.000 A 
ATOM     30  C   UNL     1       5.238   1.275  23.576  0.00  0.00    +0.000 A 
ATOM     31  C   UNL     1       5.867   0.312  24.365  0.00  0.00    +0.000 A 
ENDBRANCH  24  26
ENDBRANCH   7  24
ENDBRANCH  23   7
ENDBRANCH  22  23
ENDBRANCH  14  16
ENDBRANCH   9  14
TORSDOF 8
ENDMDL
