MODEL 1
REMARK VINA RESULT:      -5.5      0.000      0.000
REMARK  Name = 45360669
REMARK  8 active torsions:
REMARK  status: ('A' for Active; 'I' for Inactive)
REMARK    1  A    between atoms: N_5  and  C_8
REMARK    2  A    between atoms: N_5  and  C_16
REMARK    3  A    between atoms: N_6  and  C_21
REMARK    4  A    between atoms: C_9  and  C_14
REMARK    5  A    between atoms: C_14  and  C_15
REMARK    6  A    between atoms: C_15  and  C_17
REMARK    7  A    between atoms: C_16  and  C_18
REMARK    8  A    between atoms: C_21  and  C_25
REMARK                            x       y       z     vdW  Elec       q    Type
REMARK                         _______ _______ _______ _____ _____    ______ ____
ROOT
ATOM      1  O   UNL     1       0.894   2.402  27.135  0.00  0.00    -0.274 OA
ATOM      3  N   UNL     1      -1.697   1.867  24.620  0.00  0.00    -0.286 NA
ATOM      4  N   UNL     1      -0.030   3.870  25.663  0.00  0.00    -0.313 N 
ATOM      7  C   UNL     1      -0.950   1.564  25.848  0.00  0.00    +0.145 C 
ATOM      8  C   UNL     1      -0.625  -0.094  24.103  0.00  0.00    +0.070 C 
ATOM      9  C   UNL     1      -2.099   3.263  24.492  0.00  0.00    +0.075 C 
ATOM     10  C   UNL     1      -0.241   0.233  25.547  0.00  0.00    +0.048 C 
ATOM     11  C   UNL     1      -0.964   1.265  23.508  0.00  0.00    +0.104 C 
ATOM     12  C   UNL     1      -0.889   4.182  24.543  0.00  0.00    +0.123 C 
ATOM     13  C   UNL     1       0.061   2.632  26.252  0.00  0.00    +0.230 C 
ATOM     31  H   UNL     1       0.634   4.579  25.957  0.00  0.00    +0.149 HD
ENDROOT
BRANCH   8   5
ATOM      5  N   UNL     1       0.424  -0.797  23.381  0.00  0.00    -0.308 NA
ATOM     32  H   UNL     1       1.001  -1.311  24.048  0.00  0.00    +0.123 HD
BRANCH   5  16
ATOM     16  C   UNL     1       1.270   0.134  22.646  0.00  0.00    +0.116 C 
BRANCH  16  18
ATOM     18  C   UNL     1       2.721  -0.023  23.001  0.00  0.00    -0.034 A 
ATOM     19  C   UNL     1       3.181  -1.230  23.527  0.00  0.00    +0.005 A 
ATOM     20  C   UNL     1       3.605   1.037  22.805  0.00  0.00    +0.005 A 
ATOM     22  C   UNL     1       4.529  -1.376  23.857  0.00  0.00    +0.000 A 
ATOM     23  C   UNL     1       4.953   0.890  23.136  0.00  0.00    +0.000 A 
ATOM     24  C   UNL     1       5.415  -0.317  23.661  0.00  0.00    +0.000 A 
ENDBRANCH  16  18
ENDBRANCH   5  16
ENDBRANCH   8   5
BRANCH   9  14
ATOM     14  C   UNL     1      -2.936   3.528  23.240  0.00  0.00    +0.029 C 
BRANCH  14  15
ATOM     15  C   UNL     1      -4.362   3.921  23.604  0.00  0.00    +0.097 C 
BRANCH  15  17
ATOM      2  O   UNL     1      -5.606   3.467  25.631  0.00  0.00    -0.276 OA
ATOM      6  N   UNL     1      -4.610   1.702  24.498  0.00  0.00    -0.311 N 
ATOM     17  C   UNL     1      -4.937   3.037  24.695  0.00  0.00    +0.213 C 
ATOM     33  H   UNL     1      -4.027   1.433  23.711  0.00  0.00    +0.149 HD
BRANCH   6  21
ATOM     21  C   UNL     1      -5.039   0.661  25.402  0.00  0.00    +0.139 C 
BRANCH  21  25
ATOM     25  C   UNL     1      -4.351  -0.643  25.126  0.00  0.00    -0.030 A 
ATOM     26  C   UNL     1      -3.518  -1.210  26.090  0.00  0.00    +0.005 A 
ATOM     27  C   UNL     1      -4.545  -1.290  23.905  0.00  0.00    +0.005 A 
ATOM     28  C   UNL     1      -2.878  -2.423  25.833  0.00  0.00    +0.000 A 
ATOM     29  C   UNL     1      -3.906  -2.502  23.647  0.00  0.00    +0.000 A 
ATOM     30  C   UNL     1      -3.073  -3.070  24.612  0.00  0.00    +0.000 A 
ENDBRANCH  21  25
ENDBRANCH   6  21
ENDBRANCH  15  17
ENDBRANCH  14  15
ENDBRANCH   9  14
TORSDOF 8
ENDMDL
MODEL 2
REMARK VINA RESULT:      -3.0      1.506      6.644
REMARK  Name = 45360669
REMARK  8 active torsions:
REMARK  status: ('A' for Active; 'I' for Inactive)
REMARK    1  A    between atoms: N_5  and  C_8
REMARK    2  A    between atoms: N_5  and  C_16
REMARK    3  A    between atoms: N_6  and  C_21
REMARK    4  A    between atoms: C_9  and  C_14
REMARK    5  A    between atoms: C_14  and  C_15
REMARK    6  A    between atoms: C_15  and  C_17
REMARK    7  A    between atoms: C_16  and  C_18
REMARK    8  A    between atoms: C_21  and  C_25
REMARK                            x       y       z     vdW  Elec       q    Type
REMARK                         _______ _______ _______ _____ _____    ______ ____
ROOT
ATOM      1  O   UNL     1      -3.579   4.969  27.179  0.00  0.00    -0.274 OA
ATOM      3  N   UNL     1      -2.581   3.209  24.141  0.00  0.00    -0.286 NA
ATOM      4  N   UNL     1      -1.658   3.842  26.715  0.00  0.00    -0.313 N 
ATOM      7  C   UNL     1      -3.351   4.185  24.922  0.00  0.00    +0.145 C 
ATOM      8  C   UNL     1      -4.713   2.363  24.072  0.00  0.00    +0.070 C 
ATOM      9  C   UNL     1      -1.145   3.238  24.392  0.00  0.00    +0.075 C 
ATOM     10  C   UNL     1      -4.797   3.664  24.871  0.00  0.00    +0.048 C 
ATOM     11  C   UNL     1      -3.267   1.924  24.258  0.00  0.00    +0.104 C 
ATOM     12  C   UNL     1      -0.848   2.999  25.865  0.00  0.00    +0.123 C 
ATOM     13  C   UNL     1      -2.889   4.345  26.367  0.00  0.00    +0.230 C 
ATOM     31  H   UNL     1      -1.352   3.974  27.673  0.00  0.00    +0.149 HD
ENDROOT
BRANCH   8   5
ATOM      5  N   UNL     1      -5.681   1.367  24.503  0.00  0.00    -0.308 NA
ATOM     32  H   UNL     1      -6.546   1.838  24.772  0.00  0.00    +0.123 HD
BRANCH   5  16
ATOM     16  C   UNL     1      -5.182   0.611  25.644  0.00  0.00    +0.116 C 
BRANCH  16  18
ATOM     18  C   UNL     1      -4.357  -0.570  25.219  0.00  0.00    -0.034 A 
ATOM     19  C   UNL     1      -3.261  -0.966  25.986  0.00  0.00    +0.005 A 
ATOM     20  C   UNL     1      -4.686  -1.270  24.059  0.00  0.00    +0.005 A 
ATOM     22  C   UNL     1      -2.494  -2.062  25.592  0.00  0.00    +0.000 A 
ATOM     23  C   UNL     1      -3.920  -2.367  23.665  0.00  0.00    +0.000 A 
ATOM     24  C   UNL     1      -2.824  -2.763  24.431  0.00  0.00    +0.000 A 
ENDBRANCH  16  18
ENDBRANCH   5  16
ENDBRANCH   8   5
BRANCH   9  14
ATOM     14  C   UNL     1      -0.367   2.260  23.510  0.00  0.00    +0.029 C 
BRANCH  14  15
ATOM     15  C   UNL     1      -0.711   0.817  23.852  0.00  0.00    +0.097 C 
BRANCH  15  17
ATOM      2  O   UNL     1       0.455  -1.305  23.794  0.00  0.00    -0.276 OA
ATOM      6  N   UNL     1       1.194   0.429  22.437  0.00  0.00    -0.311 N 
ATOM     17  C   UNL     1       0.357  -0.152  23.380  0.00  0.00    +0.213 C 
ATOM     33  H   UNL     1       1.062   1.399  22.170  0.00  0.00    +0.149 HD
BRANCH   6  21
ATOM     21  C   UNL     1       2.293  -0.289  21.835  0.00  0.00    +0.139 C 
BRANCH  21  25
ATOM     25  C   UNL     1       3.521  -0.266  22.697  0.00  0.00    -0.030 A 
ATOM     26  C   UNL     1       4.276   0.902  22.803  0.00  0.00    +0.005 A 
ATOM     27  C   UNL     1       3.906  -1.411  23.394  0.00  0.00    +0.005 A 
ATOM     28  C   UNL     1       5.417   0.925  23.605  0.00  0.00    +0.000 A 
ATOM     29  C   UNL     1       5.047  -1.389  24.196  0.00  0.00    +0.000 A 
ATOM     30  C   UNL     1       5.802  -0.221  24.302  0.00  0.00    +0.000 A 
ENDBRANCH  21  25
ENDBRANCH   6  21
ENDBRANCH  15  17
ENDBRANCH  14  15
ENDBRANCH   9  14
TORSDOF 8
ENDMDL
MODEL 3
REMARK VINA RESULT:      -2.9      1.298      1.866
REMARK  Name = 45360669
REMARK  8 active torsions:
REMARK  status: ('A' for Active; 'I' for Inactive)
REMARK    1  A    between atoms: N_5  and  C_8
REMARK    2  A    between atoms: N_5  and  C_16
REMARK    3  A    between atoms: N_6  and  C_21
REMARK    4  A    between atoms: C_9  and  C_14
REMARK    5  A    between atoms: C_14  and  C_15
REMARK    6  A    between atoms: C_15  and  C_17
REMARK    7  A    between atoms: C_16  and  C_18
REMARK    8  A    between atoms: C_21  and  C_25
REMARK                            x       y       z     vdW  Elec       q    Type
REMARK                         _______ _______ _______ _____ _____    ______ ____
ROOT
ATOM      1  O   UNL     1      -0.348  -1.244  26.358  0.00  0.00    -0.274 OA
ATOM      3  N   UNL     1      -1.147   1.632  24.258  0.00  0.00    -0.286 NA
ATOM      4  N   UNL     1      -0.339   0.974  26.863  0.00  0.00    -0.313 N 
ATOM      7  C   UNL     1      -1.184   0.217  24.647  0.00  0.00    +0.145 C 
ATOM      8  C   UNL     1       0.057   0.604  22.596  0.00  0.00    +0.070 C 
ATOM      9  C   UNL     1      -1.430   2.562  25.344  0.00  0.00    +0.075 C 
ATOM     10  C   UNL     1      -0.411  -0.509  23.535  0.00  0.00    +0.048 C 
ATOM     11  C   UNL     1       0.080   1.836  23.490  0.00  0.00    +0.104 C 
ATOM     12  C   UNL     1      -0.453   2.366  26.493  0.00  0.00    +0.123 C 
ATOM     13  C   UNL     1      -0.569  -0.079  26.011  0.00  0.00    +0.230 C 
ATOM     31  H   UNL     1       0.050   0.761  27.776  0.00  0.00    +0.149 HD
ENDROOT
BRANCH   8   5
ATOM      5  N   UNL     1       1.337   0.319  21.968  0.00  0.00    -0.308 NA
ATOM     32  H   UNL     1       1.185   0.112  20.980  0.00  0.00    +0.123 HD
BRANCH   5  16
ATOM     16  C   UNL     1       1.985  -0.826  22.595  0.00  0.00    +0.116 C 
BRANCH  16  18
ATOM     18  C   UNL     1       3.365  -0.493  23.086  0.00  0.00    -0.034 A 
ATOM     19  C   UNL     1       4.110  -1.452  23.771  0.00  0.00    +0.005 A 
ATOM     20  C   UNL     1       3.899   0.775  22.857  0.00  0.00    +0.005 A 
ATOM     22  C   UNL     1       5.392  -1.143  24.227  0.00  0.00    +0.000 A 
ATOM     23  C   UNL     1       5.181   1.084  23.313  0.00  0.00    +0.000 A 
ATOM     24  C   UNL     1       5.928   0.125  23.998  0.00  0.00    +0.000 A 
ENDBRANCH  16  18
ENDBRANCH   5  16
ENDBRANCH   8   5
BRANCH   9  14
ATOM     14  C   UNL     1      -1.454   4.021  24.888  0.00  0.00    +0.029 C 
BRANCH  14  15
ATOM     15  C   UNL     1      -2.851   4.438  24.447  0.00  0.00    +0.097 C 
BRANCH  15  17
ATOM      2  O   UNL     1      -4.478   3.824  26.132  0.00  0.00    -0.276 OA
ATOM      6  N   UNL     1      -4.201   2.455  24.277  0.00  0.00    -0.311 N 
ATOM     17  C   UNL     1      -3.928   3.565  25.065  0.00  0.00    +0.213 C 
ATOM     33  H   UNL     1      -3.679   2.300  23.420  0.00  0.00    +0.149 HD
BRANCH   6  21
ATOM     21  C   UNL     1      -5.189   1.470  24.649  0.00  0.00    +0.139 C 
BRANCH  21  25
ATOM     25  C   UNL     1      -4.593   0.099  24.784  0.00  0.00    -0.030 A 
ATOM     26  C   UNL     1      -4.539  -0.750  23.678  0.00  0.00    +0.005 A 
ATOM     27  C   UNL     1      -4.092  -0.326  26.015  0.00  0.00    +0.005 A 
ATOM     28  C   UNL     1      -3.985  -2.024  23.803  0.00  0.00    +0.000 A 
ATOM     29  C   UNL     1      -3.539  -1.601  26.140  0.00  0.00    +0.000 A 
ATOM     30  C   UNL     1      -3.484  -2.449  25.034  0.00  0.00    +0.000 A 
ENDBRANCH  21  25
ENDBRANCH   6  21
ENDBRANCH  15  17
ENDBRANCH  14  15
ENDBRANCH   9  14
TORSDOF 8
ENDMDL
MODEL 4
REMARK VINA RESULT:      -2.7      1.731      6.159
REMARK  Name = 45360669
REMARK  8 active torsions:
REMARK  status: ('A' for Active; 'I' for Inactive)
REMARK    1  A    between atoms: N_5  and  C_8
REMARK    2  A    between atoms: N_5  and  C_16
REMARK    3  A    between atoms: N_6  and  C_21
REMARK    4  A    between atoms: C_9  and  C_14
REMARK    5  A    between atoms: C_14  and  C_15
REMARK    6  A    between atoms: C_15  and  C_17
REMARK    7  A    between atoms: C_16  and  C_18
REMARK    8  A    between atoms: C_21  and  C_25
REMARK                            x       y       z     vdW  Elec       q    Type
REMARK                         _______ _______ _______ _____ _____    ______ ____
ROOT
ATOM      1  O   UNL     1      -5.843   4.174  26.191  0.00  0.00    -0.274 OA
ATOM      3  N   UNL     1      -3.104   2.997  24.083  0.00  0.00    -0.286 NA
ATOM      4  N   UNL     1      -3.595   4.360  26.487  0.00  0.00    -0.313 N 
ATOM      7  C   UNL     1      -4.485   3.412  24.364  0.00  0.00    +0.145 C 
ATOM      8  C   UNL     1      -4.293   1.050  23.830  0.00  0.00    +0.070 C 
ATOM      9  C   UNL     1      -2.088   3.902  24.606  0.00  0.00    +0.075 C 
ATOM     10  C   UNL     1      -5.317   2.134  24.172  0.00  0.00    +0.048 C 
ATOM     11  C   UNL     1      -2.999   1.581  24.431  0.00  0.00    +0.104 C 
ATOM     12  C   UNL     1      -2.231   4.066  26.111  0.00  0.00    +0.123 C 
ATOM     13  C   UNL     1      -4.700   3.988  25.760  0.00  0.00    +0.230 C 
ATOM     31  H   UNL     1      -3.752   4.763  27.406  0.00  0.00    +0.149 HD
ENDROOT
BRANCH   8   5
ATOM      5  N   UNL     1      -4.667  -0.264  24.326  0.00  0.00    -0.308 NA
ATOM     32  H   UNL     1      -5.675  -0.287  24.481  0.00  0.00    +0.123 HD
BRANCH   5  16
ATOM     16  C   UNL     1      -3.991  -0.562  25.582  0.00  0.00    +0.116 C 
BRANCH  16  18
ATOM     18  C   UNL     1      -2.687  -1.274  25.364  0.00  0.00    -0.034 A 
ATOM     19  C   UNL     1      -2.590  -2.266  24.388  0.00  0.00    +0.005 A 
ATOM     20  C   UNL     1      -1.574  -0.945  26.137  0.00  0.00    +0.005 A 
ATOM     22  C   UNL     1      -1.379  -2.929  24.185  0.00  0.00    +0.000 A 
ATOM     23  C   UNL     1      -0.363  -1.608  25.935  0.00  0.00    +0.000 A 
ATOM     24  C   UNL     1      -0.265  -2.599  24.958  0.00  0.00    +0.000 A 
ENDBRANCH  16  18
ENDBRANCH   5  16
ENDBRANCH   8   5
BRANCH   9  14
ATOM     14  C   UNL     1      -0.666   3.478  24.234  0.00  0.00    +0.029 C 
BRANCH  14  15
ATOM     15  C   UNL     1      -0.330   2.110  24.812  0.00  0.00    +0.097 C 
BRANCH  15  17
ATOM      2  O   UNL     1      -0.609   0.423  23.098  0.00  0.00    -0.276 OA
ATOM      6  N   UNL     1       1.529   1.174  23.606  0.00  0.00    -0.311 N 
ATOM     17  C   UNL     1       0.148   1.141  23.746  0.00  0.00    +0.213 C 
ATOM     33  H   UNL     1       2.085   1.778  24.204  0.00  0.00    +0.149 HD
BRANCH   6  21
ATOM     21  C   UNL     1       2.227   0.341  22.656  0.00  0.00    +0.139 C 
BRANCH  21  25
ATOM     25  C   UNL     1       3.590  -0.051  23.146  0.00  0.00    -0.030 A 
ATOM     26  C   UNL     1       3.821  -1.351  23.597  0.00  0.00    +0.005 A 
ATOM     27  C   UNL     1       4.626   0.883  23.151  0.00  0.00    +0.005 A 
ATOM     28  C   UNL     1       5.088  -1.716  24.053  0.00  0.00    +0.000 A 
ATOM     29  C   UNL     1       5.892   0.519  23.606  0.00  0.00    +0.000 A 
ATOM     30  C   UNL     1       6.124  -0.781  24.057  0.00  0.00    +0.000 A 
ENDBRANCH  21  25
ENDBRANCH   6  21
ENDBRANCH  15  17
ENDBRANCH  14  15
ENDBRANCH   9  14
TORSDOF 8
ENDMDL
MODEL 5
REMARK VINA RESULT:      -2.3      1.931      6.997
REMARK  Name = 45360669
REMARK  8 active torsions:
REMARK  status: ('A' for Active; 'I' for Inactive)
REMARK    1  A    between atoms: N_5  and  C_8
REMARK    2  A    between atoms: N_5  and  C_16
REMARK    3  A    between atoms: N_6  and  C_21
REMARK    4  A    between atoms: C_9  and  C_14
REMARK    5  A    between atoms: C_14  and  C_15
REMARK    6  A    between atoms: C_15  and  C_17
REMARK    7  A    between atoms: C_16  and  C_18
REMARK    8  A    between atoms: C_21  and  C_25
REMARK                            x       y       z     vdW  Elec       q    Type
REMARK                         _______ _______ _______ _____ _____    ______ ____
ROOT
ATOM      1  O   UNL     1      -4.342  -3.283  23.763  0.00  0.00    -0.274 OA
ATOM      3  N   UNL     1      -2.793  -0.630  25.733  0.00  0.00    -0.286 NA
ATOM      4  N   UNL     1      -2.163  -2.643  23.882  0.00  0.00    -0.313 N 
ATOM      7  C   UNL     1      -3.837  -1.609  25.407  0.00  0.00    +0.145 C 
ATOM      8  C   UNL     1      -4.574   0.690  25.140  0.00  0.00    +0.070 C 
ATOM      9  C   UNL     1      -1.437  -1.165  25.701  0.00  0.00    +0.075 C 
ATOM     10  C   UNL     1      -5.061  -0.756  25.034  0.00  0.00    +0.048 C 
ATOM     11  C   UNL     1      -3.069   0.573  24.950  0.00  0.00    +0.104 C 
ATOM     12  C   UNL     1      -1.119  -1.752  24.335  0.00  0.00    +0.123 C 
ATOM     13  C   UNL     1      -3.478  -2.560  24.271  0.00  0.00    +0.230 C 
ATOM     31  H   UNL     1      -1.933  -3.296  23.140  0.00  0.00    +0.149 HD
ENDROOT
BRANCH   8   5
ATOM      5  N   UNL     1      -5.213   1.577  24.181  0.00  0.00    -0.308 NA
ATOM     32  H   UNL     1      -4.648   1.612  23.332  0.00  0.00    +0.123 HD
BRANCH   5  16
ATOM     16  C   UNL     1      -5.339   2.926  24.718  0.00  0.00    +0.116 C 
BRANCH  16  18
ATOM     18  C   UNL     1      -4.002   3.581  24.912  0.00  0.00    -0.034 A 
ATOM     19  C   UNL     1      -3.597   3.972  26.189  0.00  0.00    +0.005 A 
ATOM     20  C   UNL     1      -3.167   3.800  23.818  0.00  0.00    +0.005 A 
ATOM     22  C   UNL     1      -2.355   4.581  26.370  0.00  0.00    +0.000 A 
ATOM     23  C   UNL     1      -1.925   4.409  23.998  0.00  0.00    +0.000 A 
ATOM     24  C   UNL     1      -1.518   4.799  25.274  0.00  0.00    +0.000 A 
ENDBRANCH  16  18
ENDBRANCH   5  16
ENDBRANCH   8   5
BRANCH   9  14
ATOM     14  C   UNL     1      -0.382  -0.138  26.116  0.00  0.00    +0.029 C 
BRANCH  14  15
ATOM     15  C   UNL     1      -0.577   1.180  25.379  0.00  0.00    +0.097 C 
BRANCH  15  17
ATOM      2  O   UNL     1       0.986   2.459  24.042  0.00  0.00    -0.276 OA
ATOM      6  N   UNL     1       0.705   0.197  23.597  0.00  0.00    -0.311 N 
ATOM     17  C   UNL     1       0.452   1.378  24.282  0.00  0.00    +0.213 C 
ATOM     33  H   UNL     1       0.198  -0.648  23.841  0.00  0.00    +0.149 HD
BRANCH   6  21
ATOM     21  C   UNL     1       1.648   0.125  22.506  0.00  0.00    +0.139 C 
BRANCH  21  25
ATOM     25  C   UNL     1       3.055  -0.070  22.990  0.00  0.00    -0.030 A 
ATOM     26  C   UNL     1       3.970   0.980  22.916  0.00  0.00    +0.005 A 
ATOM     27  C   UNL     1       3.447  -1.302  23.515  0.00  0.00    +0.005 A 
ATOM     28  C   UNL     1       5.278   0.799  23.367  0.00  0.00    +0.000 A 
ATOM     29  C   UNL     1       4.755  -1.484  23.965  0.00  0.00    +0.000 A 
ATOM     30  C   UNL     1       5.670  -0.433  23.892  0.00  0.00    +0.000 A 
ENDBRANCH  21  25
ENDBRANCH   6  21
ENDBRANCH  15  17
ENDBRANCH  14  15
ENDBRANCH   9  14
TORSDOF 8
ENDMDL
MODEL 6
REMARK VINA RESULT:      -1.8      1.461      1.828
REMARK  Name = 45360669
REMARK  8 active torsions:
REMARK  status: ('A' for Active; 'I' for Inactive)
REMARK    1  A    between atoms: N_5  and  C_8
REMARK    2  A    between atoms: N_5  and  C_16
REMARK    3  A    between atoms: N_6  and  C_21
REMARK    4  A    between atoms: C_9  and  C_14
REMARK    5  A    between atoms: C_14  and  C_15
REMARK    6  A    between atoms: C_15  and  C_17
REMARK    7  A    between atoms: C_16  and  C_18
REMARK    8  A    between atoms: C_21  and  C_25
REMARK                            x       y       z     vdW  Elec       q    Type
REMARK                         _______ _______ _______ _____ _____    ______ ____
ROOT
ATOM      1  O   UNL     1       0.320   5.110  23.526  0.00  0.00    -0.274 OA
ATOM      3  N   UNL     1      -1.574   2.941  25.769  0.00  0.00    -0.286 NA
ATOM      4  N   UNL     1      -1.920   5.016  23.912  0.00  0.00    -0.313 N 
ATOM      7  C   UNL     1      -0.372   3.634  25.288  0.00  0.00    +0.145 C 
ATOM      8  C   UNL     1      -0.239   1.221  25.043  0.00  0.00    +0.070 C 
ATOM      9  C   UNL     1      -2.758   3.787  25.863  0.00  0.00    +0.075 C 
ATOM     10  C   UNL     1       0.561   2.505  24.820  0.00  0.00    +0.048 C 
ATOM     11  C   UNL     1      -1.686   1.695  25.014  0.00  0.00    +0.104 C 
ATOM     12  C   UNL     1      -3.085   4.411  24.516  0.00  0.00    +0.123 C 
ATOM     13  C   UNL     1      -0.625   4.625  24.157  0.00  0.00    +0.230 C 
ATOM     31  H   UNL     1      -2.073   5.693  23.171  0.00  0.00    +0.149 HD
ENDROOT
BRANCH   8   5
ATOM      5  N   UNL     1       0.053   0.191  24.060  0.00  0.00    -0.308 NA
ATOM     32  H   UNL     1       0.544  -0.578  24.519  0.00  0.00    +0.123 HD
BRANCH   5  16
ATOM     16  C   UNL     1       0.892   0.711  22.988  0.00  0.00    +0.116 C 
BRANCH  16  18
ATOM     18  C   UNL     1       2.328   0.300  23.147  0.00  0.00    -0.034 A 
ATOM     19  C   UNL     1       2.639  -0.988  23.581  0.00  0.00    +0.005 A 
ATOM     20  C   UNL     1       3.348   1.207  22.863  0.00  0.00    +0.005 A 
ATOM     22  C   UNL     1       3.973  -1.370  23.729  0.00  0.00    +0.000 A 
ATOM     23  C   UNL     1       4.682   0.825  23.011  0.00  0.00    +0.000 A 
ATOM     24  C   UNL     1       4.994  -0.464  23.444  0.00  0.00    +0.000 A 
ENDBRANCH  16  18
ENDBRANCH   5  16
ENDBRANCH   8   5
BRANCH   9  14
ATOM     14  C   UNL     1      -3.970   3.051  26.436  0.00  0.00    +0.029 C 
BRANCH  14  15
ATOM     15  C   UNL     1      -5.224   3.337  25.620  0.00  0.00    +0.097 C 
BRANCH  15  17
ATOM      2  O   UNL     1      -6.985   2.003  24.628  0.00  0.00    -0.276 OA
ATOM      6  N   UNL     1      -4.924   1.020  25.048  0.00  0.00    -0.311 N 
ATOM     17  C   UNL     1      -5.831   2.071  25.043  0.00  0.00    +0.213 C 
ATOM     33  H   UNL     1      -3.995   1.154  25.437  0.00  0.00    +0.149 HD
BRANCH   6  21
ATOM     21  C   UNL     1      -5.262  -0.292  24.551  0.00  0.00    +0.139 C 
BRANCH  21  25
ATOM     25  C   UNL     1      -4.100  -1.239  24.628  0.00  0.00    -0.030 A 
ATOM     26  C   UNL     1      -3.120  -1.063  25.604  0.00  0.00    +0.005 A 
ATOM     27  C   UNL     1      -4.001  -2.297  23.723  0.00  0.00    +0.005 A 
ATOM     28  C   UNL     1      -2.040  -1.944  25.675  0.00  0.00    +0.000 A 
ATOM     29  C   UNL     1      -2.922  -3.177  23.794  0.00  0.00    +0.000 A 
ATOM     30  C   UNL     1      -1.941  -3.001  24.771  0.00  0.00    +0.000 A 
ENDBRANCH  21  25
ENDBRANCH   6  21
ENDBRANCH  15  17
ENDBRANCH  14  15
ENDBRANCH   9  14
TORSDOF 8
ENDMDL
