MODEL 1
REMARK VINA RESULT:      -2.6      0.000      0.000
REMARK  Name = 75536036
REMARK  10 active torsions:
REMARK  status: ('A' for Active; 'I' for Inactive)
REMARK    1  A    between atoms: O_3  and  C_19
REMARK    2  A    between atoms: O_3  and  C_26
REMARK    3  A    between atoms: N_7  and  C_16
REMARK    4  A    between atoms: N_8  and  C_18
REMARK    5  A    between atoms: C_10  and  C_14
REMARK    6  A    between atoms: C_16  and  C_17
REMARK    7  A    between atoms: C_16  and  C_19
REMARK    8  A    between atoms: C_17  and  C_20
REMARK    9  A    between atoms: C_18  and  C_21
REMARK   10  A    between atoms: C_18  and  C_22
REMARK                            x       y       z     vdW  Elec       q    Type
REMARK                         _______ _______ _______ _____ _____    ______ ____
ROOT
ATOM      1  O   UNL     1       0.193   2.447  25.438  0.00  0.00    -0.274 OA
ATOM      7  N   UNL     1      -0.486   0.977  23.766  0.00  0.00    -0.301 N 
ATOM     14  C   UNL     1      -0.501   2.173  24.464  0.00  0.00    +0.236 C 
ATOM     29  H   UNL     1      -1.090   0.859  22.959  0.00  0.00    +0.150 HD
ENDROOT
BRANCH  14  10
ATOM      2  O   UNL     1      -4.374   2.952  26.142  0.00  0.00    -0.253 OA
ATOM      5  N   UNL     1      -2.452   3.459  24.935  0.00  0.00    -0.272 N 
ATOM      6  N   UNL     1      -0.304   5.307  24.402  0.00  0.00    -0.312 NA
ATOM      8  N   UNL     1      -3.965   1.788  24.207  0.00  0.00    -0.297 N 
ATOM     10  C   UNL     1      -1.471   3.158  23.879  0.00  0.00    +0.177 C 
ATOM     11  C   UNL     1      -0.758   4.405  23.343  0.00  0.00    +0.113 C 
ATOM     12  C   UNL     1      -2.055   4.484  25.908  0.00  0.00    +0.125 C 
ATOM     13  C   UNL     1      -1.430   5.703  25.245  0.00  0.00    +0.100 C 
ATOM     15  C   UNL     1      -3.650   2.749  25.162  0.00  0.00    +0.303 C 
ATOM     28  H   UNL     1       0.111   6.137  23.980  0.00  0.00    +0.122 HD
ATOM     30  H   UNL     1      -3.295   1.521  23.500  0.00  0.00    +0.150 HD
BRANCH   8  18
ATOM     18  C   UNL     1      -5.155   0.973  24.302  0.00  0.00    +0.068 C 
ATOM     21  C   UNL     1      -6.307   1.783  24.883  0.00  0.00    +0.027 C 
ATOM     22  C   UNL     1      -4.883  -0.275  25.133  0.00  0.00    +0.027 C 
ENDBRANCH   8  18
ENDBRANCH  14  10
BRANCH   7  16
ATOM     16  C   UNL     1       0.377  -0.130  24.113  0.00  0.00    +0.186 C 
BRANCH  16  19
ATOM      4  O   UNL     1       0.104  -2.088  25.503  0.00  0.00    -0.249 OA
ATOM     19  C   UNL     1      -0.398  -1.295  24.713  0.00  0.00    +0.328 C 
BRANCH  19   3
ATOM      3  O   UNL     1      -1.680  -1.349  24.255  0.00  0.00    -0.467 OA
ATOM     26  C   UNL     1      -2.338  -2.612  24.395  0.00  0.00    +0.280 C 
ENDBRANCH  19   3
ENDBRANCH  16  19
BRANCH  16  17
ATOM     17  C   UNL     1       1.249  -0.567  22.927  0.00  0.00    +0.070 C 
BRANCH  17  20
ATOM      9  N   UNL     1       4.857  -1.233  23.886  0.00  0.00    -0.263 NA
ATOM     20  C   UNL     1       2.734  -0.362  23.124  0.00  0.00    -0.027 A 
ATOM     23  C   UNL     1       3.348   0.828  22.750  0.00  0.00    +0.006 A 
ATOM     24  C   UNL     1       3.526  -1.353  23.682  0.00  0.00    +0.114 A 
ATOM     25  C   UNL     1       4.716   0.988  22.944  0.00  0.00    +0.020 A 
ATOM     27  C   UNL     1       5.419  -0.062  23.511  0.00  0.00    +0.111 A 
ENDBRANCH  17  20
ENDBRANCH  16  17
ENDBRANCH   7  16
TORSDOF 7
ENDMDL
MODEL 2
REMARK VINA RESULT:      -2.2      1.966      6.643
REMARK  Name = 75536036
REMARK  10 active torsions:
REMARK  status: ('A' for Active; 'I' for Inactive)
REMARK    1  A    between atoms: O_3  and  C_19
REMARK    2  A    between atoms: O_3  and  C_26
REMARK    3  A    between atoms: N_7  and  C_16
REMARK    4  A    between atoms: N_8  and  C_18
REMARK    5  A    between atoms: C_10  and  C_14
REMARK    6  A    between atoms: C_16  and  C_17
REMARK    7  A    between atoms: C_16  and  C_19
REMARK    8  A    between atoms: C_17  and  C_20
REMARK    9  A    between atoms: C_18  and  C_21
REMARK   10  A    between atoms: C_18  and  C_22
REMARK                            x       y       z     vdW  Elec       q    Type
REMARK                         _______ _______ _______ _____ _____    ______ ____
ROOT
ATOM      1  O   UNL     1      -0.082  -0.888  23.621  0.00  0.00    -0.274 OA
ATOM      7  N   UNL     1      -1.817   0.110  24.810  0.00  0.00    -0.301 N 
ATOM     14  C   UNL     1      -0.499  -0.055  24.421  0.00  0.00    +0.236 C 
ATOM     29  H   UNL     1      -2.059   0.846  25.467  0.00  0.00    +0.150 HD
ENDROOT
BRANCH  14  10
ATOM      2  O   UNL     1       2.707   1.924  22.366  0.00  0.00    -0.253 OA
ATOM      5  N   UNL     1       1.064   1.694  23.995  0.00  0.00    -0.272 N 
ATOM      6  N   UNL     1      -1.161   2.849  25.419  0.00  0.00    -0.312 NA
ATOM      8  N   UNL     1       2.946   0.256  23.923  0.00  0.00    -0.297 N 
ATOM     10  C   UNL     1       0.415   0.937  25.079  0.00  0.00    +0.177 C 
ATOM     11  C   UNL     1      -0.338   1.830  26.072  0.00  0.00    +0.113 C 
ATOM     12  C   UNL     1       0.298   2.819  23.448  0.00  0.00    +0.125 C 
ATOM     13  C   UNL     1      -0.337   3.673  24.536  0.00  0.00    +0.100 C 
ATOM     15  C   UNL     1       2.271   1.334  23.360  0.00  0.00    +0.303 C 
ATOM     28  H   UNL     1      -1.589   3.440  26.130  0.00  0.00    +0.122 HD
ATOM     30  H   UNL     1       2.508  -0.315  24.632  0.00  0.00    +0.150 HD
BRANCH   8  18
ATOM     18  C   UNL     1       4.193  -0.237  23.383  0.00  0.00    +0.068 C 
ATOM     21  C   UNL     1       4.427  -1.677  23.820  0.00  0.00    +0.027 C 
ATOM     22  C   UNL     1       5.350   0.662  23.802  0.00  0.00    +0.027 C 
ENDBRANCH   8  18
ENDBRANCH  14  10
BRANCH   7  16
ATOM     16  C   UNL     1      -2.899  -0.705  24.303  0.00  0.00    +0.186 C 
BRANCH  16  19
ATOM      4  O   UNL     1      -3.671  -1.217  26.535  0.00  0.00    -0.249 OA
ATOM     19  C   UNL     1      -3.497  -1.598  25.382  0.00  0.00    +0.328 C 
BRANCH  19   3
ATOM      3  O   UNL     1      -3.789  -2.844  24.914  0.00  0.00    -0.467 OA
ATOM     26  C   UNL     1      -2.845  -3.399  23.993  0.00  0.00    +0.280 C 
ENDBRANCH  19   3
ENDBRANCH  16  19
BRANCH  16  17
ATOM     17  C   UNL     1      -3.969   0.141  23.597  0.00  0.00    +0.070 C 
BRANCH  17  20
ATOM      9  N   UNL     1      -3.967   3.847  24.398  0.00  0.00    -0.263 NA
ATOM     20  C   UNL     1      -4.287   1.454  24.276  0.00  0.00    -0.027 A 
ATOM     23  C   UNL     1      -5.154   1.507  25.362  0.00  0.00    +0.006 A 
ATOM     24  C   UNL     1      -3.725   2.641  23.836  0.00  0.00    +0.114 A 
ATOM     25  C   UNL     1      -5.427   2.729  25.966  0.00  0.00    +0.020 A 
ATOM     27  C   UNL     1      -4.814   3.859  25.452  0.00  0.00    +0.111 A 
ENDBRANCH  17  20
ENDBRANCH  16  17
ENDBRANCH   7  16
TORSDOF 7
ENDMDL
MODEL 3
REMARK VINA RESULT:      -2.1      2.141      6.433
REMARK  Name = 75536036
REMARK  10 active torsions:
REMARK  status: ('A' for Active; 'I' for Inactive)
REMARK    1  A    between atoms: O_3  and  C_19
REMARK    2  A    between atoms: O_3  and  C_26
REMARK    3  A    between atoms: N_7  and  C_16
REMARK    4  A    between atoms: N_8  and  C_18
REMARK    5  A    between atoms: C_10  and  C_14
REMARK    6  A    between atoms: C_16  and  C_17
REMARK    7  A    between atoms: C_16  and  C_19
REMARK    8  A    between atoms: C_17  and  C_20
REMARK    9  A    between atoms: C_18  and  C_21
REMARK   10  A    between atoms: C_18  and  C_22
REMARK                            x       y       z     vdW  Elec       q    Type
REMARK                         _______ _______ _______ _____ _____    ______ ____
ROOT
ATOM      1  O   UNL     1      -2.638   1.949  22.827  0.00  0.00    -0.274 OA
ATOM      7  N   UNL     1      -4.037   1.275  24.561  0.00  0.00    -0.301 N 
ATOM     14  C   UNL     1      -3.140   1.073  23.526  0.00  0.00    +0.236 C 
ATOM     29  H   UNL     1      -4.378   0.480  25.092  0.00  0.00    +0.150 HD
ENDROOT
BRANCH  14  10
ATOM      2  O   UNL     1       0.255  -0.809  25.357  0.00  0.00    -0.253 OA
ATOM      5  N   UNL     1      -1.877  -0.734  24.431  0.00  0.00    -0.272 N 
ATOM      6  N   UNL     1      -4.665  -1.443  24.627  0.00  0.00    -0.312 NA
ATOM      8  N   UNL     1       0.053  -0.290  23.131  0.00  0.00    -0.297 N 
ATOM     10  C   UNL     1      -2.802  -0.377  23.343  0.00  0.00    +0.177 C 
ATOM     11  C   UNL     1      -4.060  -1.252  23.308  0.00  0.00    +0.113 C 
ATOM     12  C   UNL     1      -2.497  -1.080  25.715  0.00  0.00    +0.125 C 
ATOM     13  C   UNL     1      -3.688  -2.014  25.552  0.00  0.00    +0.100 C 
ATOM     15  C   UNL     1      -0.471  -0.627  24.374  0.00  0.00    +0.303 C 
ATOM     28  H   UNL     1      -5.460  -2.074  24.543  0.00  0.00    +0.122 HD
ATOM     30  H   UNL     1      -0.551   0.010  22.378  0.00  0.00    +0.150 HD
BRANCH   8  18
ATOM     18  C   UNL     1       1.474  -0.135  22.913  0.00  0.00    +0.068 C 
ATOM     21  C   UNL     1       1.923   1.261  23.323  0.00  0.00    +0.027 C 
ATOM     22  C   UNL     1       1.826  -0.423  21.459  0.00  0.00    +0.027 C 
ENDBRANCH   8  18
ENDBRANCH  14  10
BRANCH   7  16
ATOM     16  C   UNL     1      -4.507   2.584  24.957  0.00  0.00    +0.186 C 
BRANCH  16  19
ATOM      4  O   UNL     1      -6.762   1.722  24.863  0.00  0.00    -0.249 OA
ATOM     19  C   UNL     1      -5.995   2.587  25.275  0.00  0.00    +0.328 C 
BRANCH  19   3
ATOM      3  O   UNL     1      -6.356   3.654  26.041  0.00  0.00    -0.467 OA
ATOM     26  C   UNL     1      -6.188   4.940  25.435  0.00  0.00    +0.280 C 
ENDBRANCH  19   3
ENDBRANCH  16  19
BRANCH  16  17
ATOM     17  C   UNL     1      -3.671   3.167  26.106  0.00  0.00    +0.070 C 
BRANCH  17  20
ATOM      9  N   UNL     1       0.092   2.899  25.728  0.00  0.00    -0.263 NA
ATOM     20  C   UNL     1      -2.246   3.514  25.739  0.00  0.00    -0.027 A 
ATOM     23  C   UNL     1      -1.941   4.711  25.101  0.00  0.00    +0.006 A 
ATOM     24  C   UNL     1      -1.202   2.649  26.028  0.00  0.00    +0.114 A 
ATOM     25  C   UNL     1      -0.621   5.002  24.776  0.00  0.00    +0.020 A 
ATOM     27  C   UNL     1       0.350   4.072  25.108  0.00  0.00    +0.111 A 
ENDBRANCH  17  20
ENDBRANCH  16  17
ENDBRANCH   7  16
TORSDOF 7
ENDMDL
MODEL 4
REMARK VINA RESULT:      -1.8      2.083      6.570
REMARK  Name = 75536036
REMARK  10 active torsions:
REMARK  status: ('A' for Active; 'I' for Inactive)
REMARK    1  A    between atoms: O_3  and  C_19
REMARK    2  A    between atoms: O_3  and  C_26
REMARK    3  A    between atoms: N_7  and  C_16
REMARK    4  A    between atoms: N_8  and  C_18
REMARK    5  A    between atoms: C_10  and  C_14
REMARK    6  A    between atoms: C_16  and  C_17
REMARK    7  A    between atoms: C_16  and  C_19
REMARK    8  A    between atoms: C_17  and  C_20
REMARK    9  A    between atoms: C_18  and  C_21
REMARK   10  A    between atoms: C_18  and  C_22
REMARK                            x       y       z     vdW  Elec       q    Type
REMARK                         _______ _______ _______ _____ _____    ______ ____
ROOT
ATOM      1  O   UNL     1      -1.085   0.265  22.909  0.00  0.00    -0.274 OA
ATOM      7  N   UNL     1      -2.472   0.044  24.765  0.00  0.00    -0.301 N 
ATOM     14  C   UNL     1      -1.292   0.364  24.115  0.00  0.00    +0.236 C 
ATOM     29  H   UNL     1      -2.545   0.182  25.768  0.00  0.00    +0.150 HD
ENDROOT
BRANCH  14  10
ATOM      2  O   UNL     1       2.329   2.261  22.807  0.00  0.00    -0.253 OA
ATOM      5  N   UNL     1       0.585   1.823  24.282  0.00  0.00    -0.272 N 
ATOM      6  N   UNL     1      -1.464   2.846  26.033  0.00  0.00    -0.312 NA
ATOM      8  N   UNL     1       2.173   0.159  23.714  0.00  0.00    -0.297 N 
ATOM     10  C   UNL     1      -0.249   0.890  25.057  0.00  0.00    +0.177 C 
ATOM     11  C   UNL     1      -0.879   1.531  26.299  0.00  0.00    +0.113 C 
ATOM     12  C   UNL     1       0.069   3.191  24.150  0.00  0.00    +0.125 C 
ATOM     13  C   UNL     1      -0.457   3.741  25.468  0.00  0.00    +0.100 C 
ATOM     15  C   UNL     1       1.739   1.471  23.551  0.00  0.00    +0.303 C 
ATOM     28  H   UNL     1      -1.816   3.239  26.905  0.00  0.00    +0.122 HD
ATOM     30  H   UNL     1       1.600  -0.520  24.196  0.00  0.00    +0.150 HD
BRANCH   8  18
ATOM     18  C   UNL     1       3.336  -0.356  23.027  0.00  0.00    +0.068 C 
ATOM     21  C   UNL     1       3.938  -1.519  23.805  0.00  0.00    +0.027 C 
ATOM     22  C   UNL     1       4.360   0.750  22.807  0.00  0.00    +0.027 C 
ENDBRANCH   8  18
ENDBRANCH  14  10
BRANCH   7  16
ATOM     16  C   UNL     1      -3.640  -0.462  24.080  0.00  0.00    +0.186 C 
BRANCH  16  19
ATOM      4  O   UNL     1      -4.560  -2.624  23.513  0.00  0.00    -0.249 OA
ATOM     19  C   UNL     1      -3.733  -1.980  24.152  0.00  0.00    +0.328 C 
BRANCH  19   3
ATOM      3  O   UNL     1      -2.815  -2.512  25.007  0.00  0.00    -0.467 OA
ATOM     26  C   UNL     1      -1.608  -2.988  24.406  0.00  0.00    +0.280 C 
ENDBRANCH  19   3
ENDBRANCH  16  19
BRANCH  16  17
ATOM     17  C   UNL     1      -4.928   0.218  24.569  0.00  0.00    +0.070 C 
BRANCH  17  20
ATOM      9  N   UNL     1      -5.398   3.694  26.007  0.00  0.00    -0.263 NA
ATOM     20  C   UNL     1      -4.825   1.716  24.741  0.00  0.00    -0.027 A 
ATOM     23  C   UNL     1      -4.099   2.492  23.844  0.00  0.00    +0.006 A 
ATOM     24  C   UNL     1      -5.450   2.360  25.797  0.00  0.00    +0.114 A 
ATOM     25  C   UNL     1      -4.023   3.869  24.028  0.00  0.00    +0.020 A 
ATOM     27  C   UNL     1      -4.684   4.416  25.115  0.00  0.00    +0.111 A 
ENDBRANCH  17  20
ENDBRANCH  16  17
ENDBRANCH   7  16
TORSDOF 7
ENDMDL
MODEL 5
REMARK VINA RESULT:      -1.7      2.102      4.349
REMARK  Name = 75536036
REMARK  10 active torsions:
REMARK  status: ('A' for Active; 'I' for Inactive)
REMARK    1  A    between atoms: O_3  and  C_19
REMARK    2  A    between atoms: O_3  and  C_26
REMARK    3  A    between atoms: N_7  and  C_16
REMARK    4  A    between atoms: N_8  and  C_18
REMARK    5  A    between atoms: C_10  and  C_14
REMARK    6  A    between atoms: C_16  and  C_17
REMARK    7  A    between atoms: C_16  and  C_19
REMARK    8  A    between atoms: C_17  and  C_20
REMARK    9  A    between atoms: C_18  and  C_21
REMARK   10  A    between atoms: C_18  and  C_22
REMARK                            x       y       z     vdW  Elec       q    Type
REMARK                         _______ _______ _______ _____ _____    ______ ____
ROOT
ATOM      1  O   UNL     1      -2.427   1.039  22.893  0.00  0.00    -0.274 OA
ATOM      7  N   UNL     1      -0.163   1.075  23.433  0.00  0.00    -0.301 N 
ATOM     14  C   UNL     1      -1.437   1.609  23.342  0.00  0.00    +0.236 C 
ATOM     29  H   UNL     1       0.585   1.627  23.841  0.00  0.00    +0.150 HD
ENDROOT
BRANCH  14  10
ATOM      2  O   UNL     1      -3.910   2.717  26.670  0.00  0.00    -0.253 OA
ATOM      5  N   UNL     1      -2.087   2.899  25.239  0.00  0.00    -0.272 N 
ATOM      6  N   UNL     1       0.762   3.204  24.919  0.00  0.00    -0.312 NA
ATOM      8  N   UNL     1      -4.299   3.262  24.475  0.00  0.00    -0.297 N 
ATOM     10  C   UNL     1      -1.507   3.005  23.889  0.00  0.00    +0.177 C 
ATOM     11  C   UNL     1      -0.137   3.690  23.872  0.00  0.00    +0.113 C 
ATOM     12  C   UNL     1      -1.148   2.564  26.316  0.00  0.00    +0.125 C 
ATOM     13  C   UNL     1       0.142   3.366  26.232  0.00  0.00    +0.100 C 
ATOM     15  C   UNL     1      -3.464   2.946  25.541  0.00  0.00    +0.303 C 
ATOM     28  H   UNL     1       1.632   3.734  24.888  0.00  0.00    +0.122 HD
ATOM     30  H   UNL     1      -3.945   3.292  23.529  0.00  0.00    +0.150 HD
BRANCH   8  18
ATOM     18  C   UNL     1      -5.736   3.343  24.623  0.00  0.00    +0.068 C 
ATOM     21  C   UNL     1      -6.105   4.434  25.620  0.00  0.00    +0.027 C 
ATOM     22  C   UNL     1      -6.306   1.994  25.043  0.00  0.00    +0.027 C 
ENDBRANCH   8  18
ENDBRANCH  14  10
BRANCH   7  16
ATOM     16  C   UNL     1       0.166  -0.263  22.996  0.00  0.00    +0.186 C 
BRANCH  16  19
ATOM      4  O   UNL     1       1.572  -0.485  21.043  0.00  0.00    -0.249 OA
ATOM     19  C   UNL     1       1.496  -0.313  22.255  0.00  0.00    +0.328 C 
BRANCH  19   3
ATOM      3  O   UNL     1       2.558  -0.162  23.095  0.00  0.00    -0.467 OA
ATOM     26  C   UNL     1       3.535   0.804  22.695  0.00  0.00    +0.280 C 
ENDBRANCH  19   3
ENDBRANCH  16  19
BRANCH  16  17
ATOM     17  C   UNL     1       0.114  -1.271  24.154  0.00  0.00    +0.070 C 
BRANCH  17  20
ATOM      9  N   UNL     1      -3.018  -1.062  26.281  0.00  0.00    -0.263 NA
ATOM     20  C   UNL     1      -1.274  -1.557  24.681  0.00  0.00    -0.027 A 
ATOM     23  C   UNL     1      -2.077  -2.530  24.097  0.00  0.00    +0.006 A 
ATOM     24  C   UNL     1      -1.787  -0.856  25.761  0.00  0.00    +0.114 A 
ATOM     25  C   UNL     1      -3.349  -2.771  24.604  0.00  0.00    +0.020 A 
ATOM     27  C   UNL     1      -3.769  -2.017  25.688  0.00  0.00    +0.111 A 
ENDBRANCH  17  20
ENDBRANCH  16  17
ENDBRANCH   7  16
TORSDOF 7
ENDMDL
MODEL 6
REMARK VINA RESULT:      -1.4      2.115      5.447
REMARK  Name = 75536036
REMARK  10 active torsions:
REMARK  status: ('A' for Active; 'I' for Inactive)
REMARK    1  A    between atoms: O_3  and  C_19
REMARK    2  A    between atoms: O_3  and  C_26
REMARK    3  A    between atoms: N_7  and  C_16
REMARK    4  A    between atoms: N_8  and  C_18
REMARK    5  A    between atoms: C_10  and  C_14
REMARK    6  A    between atoms: C_16  and  C_17
REMARK    7  A    between atoms: C_16  and  C_19
REMARK    8  A    between atoms: C_17  and  C_20
REMARK    9  A    between atoms: C_18  and  C_21
REMARK   10  A    between atoms: C_18  and  C_22
REMARK                            x       y       z     vdW  Elec       q    Type
REMARK                         _______ _______ _______ _____ _____    ______ ____
ROOT
ATOM      1  O   UNL     1      -1.697   0.591  23.233  0.00  0.00    -0.274 OA
ATOM      7  N   UNL     1      -0.271   0.792  25.063  0.00  0.00    -0.301 N 
ATOM     14  C   UNL     1      -1.421   0.379  24.411  0.00  0.00    +0.236 C 
ATOM     29  H   UNL     1      -0.131   0.546  26.038  0.00  0.00    +0.150 HD
ENDROOT
BRANCH  14  10
ATOM      2  O   UNL     1      -5.702   0.600  24.208  0.00  0.00    -0.253 OA
ATOM      5  N   UNL     1      -3.657  -0.406  24.668  0.00  0.00    -0.272 N 
ATOM      6  N   UNL     1      -1.949  -2.717  24.430  0.00  0.00    -0.312 NA
ATOM      8  N   UNL     1      -4.394   1.501  25.865  0.00  0.00    -0.297 N 
ATOM     10  C   UNL     1      -2.331  -0.407  25.309  0.00  0.00    +0.177 C 
ATOM     11  C   UNL     1      -1.788  -1.816  25.572  0.00  0.00    +0.113 C 
ATOM     12  C   UNL     1      -3.869  -1.420  23.627  0.00  0.00    +0.125 C 
ATOM     13  C   UNL     1      -3.356  -2.792  24.040  0.00  0.00    +0.100 C 
ATOM     15  C   UNL     1      -4.659   0.566  24.869  0.00  0.00    +0.303 C 
ATOM     28  H   UNL     1      -1.620  -3.647  24.687  0.00  0.00    +0.122 HD
ATOM     30  H   UNL     1      -3.479   1.561  26.288  0.00  0.00    +0.150 HD
BRANCH   8  18
ATOM     18  C   UNL     1      -5.320   2.564  26.186  0.00  0.00    +0.068 C 
ATOM     21  C   UNL     1      -6.698   1.991  26.493  0.00  0.00    +0.027 C 
ATOM     22  C   UNL     1      -5.384   3.578  25.050  0.00  0.00    +0.027 C 
ENDBRANCH   8  18
ENDBRANCH  14  10
BRANCH   7  16
ATOM     16  C   UNL     1       0.778   1.547  24.414  0.00  0.00    +0.186 C 
BRANCH  16  19
ATOM      4  O   UNL     1       1.168  -0.377  23.005  0.00  0.00    -0.249 OA
ATOM     19  C   UNL     1       1.578   0.695  23.438  0.00  0.00    +0.328 C 
BRANCH  19   3
ATOM      3  O   UNL     1       2.781   1.257  23.132  0.00  0.00    -0.467 OA
ATOM     26  C   UNL     1       3.780   0.359  22.640  0.00  0.00    +0.280 C 
ENDBRANCH  19   3
ENDBRANCH  16  19
BRANCH  16  17
ATOM     17  C   UNL     1       0.237   2.825  23.756  0.00  0.00    +0.070 C 
BRANCH  17  20
ATOM      9  N   UNL     1      -2.192   3.719  26.526  0.00  0.00    -0.263 NA
ATOM     20  C   UNL     1      -0.714   3.626  24.616  0.00  0.00    -0.027 A 
ATOM     23  C   UNL     1      -0.994   4.957  24.325  0.00  0.00    +0.006 A 
ATOM     24  C   UNL     1      -1.333   3.059  25.718  0.00  0.00    +0.114 A 
ATOM     25  C   UNL     1      -1.873   5.668  25.134  0.00  0.00    +0.020 A 
ATOM     27  C   UNL     1      -2.441   5.010  26.213  0.00  0.00    +0.111 A 
ENDBRANCH  17  20
ENDBRANCH  16  17
ENDBRANCH   7  16
TORSDOF 7
ENDMDL
MODEL 7
REMARK VINA RESULT:      -1.1      2.474      4.887
REMARK  Name = 75536036
REMARK  10 active torsions:
REMARK  status: ('A' for Active; 'I' for Inactive)
REMARK    1  A    between atoms: O_3  and  C_19
REMARK    2  A    between atoms: O_3  and  C_26
REMARK    3  A    between atoms: N_7  and  C_16
REMARK    4  A    between atoms: N_8  and  C_18
REMARK    5  A    between atoms: C_10  and  C_14
REMARK    6  A    between atoms: C_16  and  C_17
REMARK    7  A    between atoms: C_16  and  C_19
REMARK    8  A    between atoms: C_17  and  C_20
REMARK    9  A    between atoms: C_18  and  C_21
REMARK   10  A    between atoms: C_18  and  C_22
REMARK                            x       y       z     vdW  Elec       q    Type
REMARK                         _______ _______ _______ _____ _____    ______ ____
ROOT
ATOM      1  O   UNL     1      -1.295   2.456  22.841  0.00  0.00    -0.274 OA
ATOM      7  N   UNL     1      -1.504   0.978  24.628  0.00  0.00    -0.301 N 
ATOM     14  C   UNL     1      -1.969   1.715  23.552  0.00  0.00    +0.236 C 
ATOM     29  H   UNL     1      -2.144   0.378  25.139  0.00  0.00    +0.150 HD
ENDROOT
BRANCH  14  10
ATOM      2  O   UNL     1      -4.477  -0.619  26.137  0.00  0.00    -0.253 OA
ATOM      5  N   UNL     1      -4.012   1.046  24.582  0.00  0.00    -0.272 N 
ATOM      6  N   UNL     1      -4.314   3.794  23.762  0.00  0.00    -0.312 NA
ATOM      8  N   UNL     1      -3.752  -1.248  24.053  0.00  0.00    -0.297 N 
ATOM     10  C   UNL     1      -3.433   1.498  23.305  0.00  0.00    +0.177 C 
ATOM     11  C   UNL     1      -4.106   2.758  22.749  0.00  0.00    +0.113 C 
ATOM     12  C   UNL     1      -4.367   2.102  25.537  0.00  0.00    +0.125 C 
ATOM     13  C   UNL     1      -5.098   3.262  24.875  0.00  0.00    +0.100 C 
ATOM     15  C   UNL     1      -4.109  -0.297  25.003  0.00  0.00    +0.303 C 
ATOM     28  H   UNL     1      -4.811   4.578  23.343  0.00  0.00    +0.122 HD
ATOM     30  H   UNL     1      -3.305  -0.976  23.189  0.00  0.00    +0.150 HD
BRANCH   8  18
ATOM     18  C   UNL     1      -3.791  -2.666  24.334  0.00  0.00    +0.068 C 
ATOM     21  C   UNL     1      -2.379  -3.214  24.491  0.00  0.00    +0.027 C 
ATOM     22  C   UNL     1      -4.553  -3.407  23.242  0.00  0.00    +0.027 C 
ENDBRANCH   8  18
ENDBRANCH  14  10
BRANCH   7  16
ATOM     16  C   UNL     1      -0.125   0.992  25.059  0.00  0.00    +0.186 C 
BRANCH  16  19
ATOM      4  O   UNL     1       1.682   1.845  23.700  0.00  0.00    -0.249 OA
ATOM     19  C   UNL     1       0.844   0.968  23.885  0.00  0.00    +0.328 C 
BRANCH  19   3
ATOM      3  O   UNL     1       0.651  -0.115  23.081  0.00  0.00    -0.467 OA
ATOM     26  C   UNL     1       1.624  -0.305  22.050  0.00  0.00    +0.280 C 
ENDBRANCH  19   3
ENDBRANCH  16  19
BRANCH  16  17
ATOM     17  C   UNL     1       0.161   2.157  26.018  0.00  0.00    +0.070 C 
BRANCH  17  20
ATOM      9  N   UNL     1      -2.600   4.752  26.163  0.00  0.00    -0.263 NA
ATOM     20  C   UNL     1      -0.631   3.414  25.740  0.00  0.00    -0.027 A 
ATOM     23  C   UNL     1      -0.164   4.371  24.845  0.00  0.00    +0.006 A 
ATOM     24  C   UNL     1      -1.843   3.650  26.367  0.00  0.00    +0.114 A 
ATOM     25  C   UNL     1      -0.915   5.518  24.608  0.00  0.00    +0.020 A 
ATOM     27  C   UNL     1      -2.115   5.659  25.286  0.00  0.00    +0.111 A 
ENDBRANCH  17  20
ENDBRANCH  16  17
ENDBRANCH   7  16
TORSDOF 7
ENDMDL
MODEL 8
REMARK VINA RESULT:      -1.0      1.982      7.464
REMARK  Name = 75536036
REMARK  10 active torsions:
REMARK  status: ('A' for Active; 'I' for Inactive)
REMARK    1  A    between atoms: O_3  and  C_19
REMARK    2  A    between atoms: O_3  and  C_26
REMARK    3  A    between atoms: N_7  and  C_16
REMARK    4  A    between atoms: N_8  and  C_18
REMARK    5  A    between atoms: C_10  and  C_14
REMARK    6  A    between atoms: C_16  and  C_17
REMARK    7  A    between atoms: C_16  and  C_19
REMARK    8  A    between atoms: C_17  and  C_20
REMARK    9  A    between atoms: C_18  and  C_21
REMARK   10  A    between atoms: C_18  and  C_22
REMARK                            x       y       z     vdW  Elec       q    Type
REMARK                         _______ _______ _______ _____ _____    ______ ____
ROOT
ATOM      1  O   UNL     1      -2.273   0.650  26.108  0.00  0.00    -0.274 OA
ATOM      7  N   UNL     1      -2.085   2.314  24.491  0.00  0.00    -0.301 N 
ATOM     14  C   UNL     1      -2.159   1.006  24.938  0.00  0.00    +0.236 C 
ATOM     29  H   UNL     1      -2.011   2.501  23.496  0.00  0.00    +0.150 HD
ENDROOT
BRANCH  14  10
ATOM      2  O   UNL     1       0.896  -1.984  24.553  0.00  0.00    -0.253 OA
ATOM      5  N   UNL     1      -1.222  -1.074  24.246  0.00  0.00    -0.272 N 
ATOM      6  N   UNL     1      -4.082  -1.413  24.375  0.00  0.00    -0.312 NA
ATOM      8  N   UNL     1       0.698  -0.100  23.258  0.00  0.00    -0.297 N 
ATOM     10  C   UNL     1      -2.110   0.017  23.810  0.00  0.00    +0.177 C 
ATOM     11  C   UNL     1      -3.511  -0.464  23.418  0.00  0.00    +0.113 C 
ATOM     12  C   UNL     1      -1.840  -2.112  25.080  0.00  0.00    +0.125 C 
ATOM     13  C   UNL     1      -3.191  -2.560  24.542  0.00  0.00    +0.100 C 
ATOM     15  C   UNL     1       0.175  -1.115  24.052  0.00  0.00    +0.303 C 
ATOM     28  H   UNL     1      -4.986  -1.734  24.030  0.00  0.00    +0.122 HD
ATOM     30  H   UNL     1       0.130   0.690  22.985  0.00  0.00    +0.150 HD
BRANCH   8  18
ATOM     18  C   UNL     1       2.112  -0.000  22.972  0.00  0.00    +0.068 C 
ATOM     21  C   UNL     1       2.618   1.402  23.283  0.00  0.00    +0.027 C 
ATOM     22  C   UNL     1       2.391  -0.380  21.523  0.00  0.00    +0.027 C 
ENDBRANCH   8  18
ENDBRANCH  14  10
BRANCH   7  16
ATOM     16  C   UNL     1      -2.134   3.456  25.377  0.00  0.00    +0.186 C 
BRANCH  16  19
ATOM      4  O   UNL     1      -1.154   5.612  24.895  0.00  0.00    -0.249 OA
ATOM     19  C   UNL     1      -0.982   4.421  25.132  0.00  0.00    +0.328 C 
BRANCH  19   3
ATOM      3  O   UNL     1       0.230   3.800  25.191  0.00  0.00    -0.467 OA
ATOM     26  C   UNL     1       0.401   2.871  26.267  0.00  0.00    +0.280 C 
ENDBRANCH  19   3
ENDBRANCH  16  19
BRANCH  16  17
ATOM     17  C   UNL     1      -3.497   4.162  25.324  0.00  0.00    +0.070 C 
BRANCH  17  20
ATOM      9  N   UNL     1      -6.335   2.303  27.016  0.00  0.00    -0.263 NA
ATOM     20  C   UNL     1      -4.688   3.252  25.523  0.00  0.00    -0.027 A 
ATOM     23  C   UNL     1      -5.234   2.543  24.458  0.00  0.00    +0.006 A 
ATOM     24  C   UNL     1      -5.271   3.099  26.771  0.00  0.00    +0.114 A 
ATOM     25  C   UNL     1      -6.329   1.714  24.672  0.00  0.00    +0.020 A 
ATOM     27  C   UNL     1      -6.838   1.629  25.958  0.00  0.00    +0.111 A 
ENDBRANCH  17  20
ENDBRANCH  16  17
ENDBRANCH   7  16
TORSDOF 7
ENDMDL
MODEL 9
REMARK VINA RESULT:      -0.6      2.011      6.123
REMARK  Name = 75536036
REMARK  10 active torsions:
REMARK  status: ('A' for Active; 'I' for Inactive)
REMARK    1  A    between atoms: O_3  and  C_19
REMARK    2  A    between atoms: O_3  and  C_26
REMARK    3  A    between atoms: N_7  and  C_16
REMARK    4  A    between atoms: N_8  and  C_18
REMARK    5  A    between atoms: C_10  and  C_14
REMARK    6  A    between atoms: C_16  and  C_17
REMARK    7  A    between atoms: C_16  and  C_19
REMARK    8  A    between atoms: C_17  and  C_20
REMARK    9  A    between atoms: C_18  and  C_21
REMARK   10  A    between atoms: C_18  and  C_22
REMARK                            x       y       z     vdW  Elec       q    Type
REMARK                         _______ _______ _______ _____ _____    ______ ____
ROOT
ATOM      1  O   UNL     1      -1.097  -1.234  24.170  0.00  0.00    -0.274 OA
ATOM      7  N   UNL     1      -2.924   0.191  23.937  0.00  0.00    -0.301 N 
ATOM     14  C   UNL     1      -1.593  -0.170  23.810  0.00  0.00    +0.236 C 
ATOM     29  H   UNL     1      -3.236   1.091  23.588  0.00  0.00    +0.150 HD
ENDROOT
BRANCH  14  10
ATOM      2  O   UNL     1       0.935   2.562  25.947  0.00  0.00    -0.253 OA
ATOM      5  N   UNL     1       0.249   1.314  24.109  0.00  0.00    -0.272 N 
ATOM      6  N   UNL     1       0.939  -0.505  21.981  0.00  0.00    -0.312 NA
ATOM      8  N   UNL     1      -1.070   3.088  24.962  0.00  0.00    -0.297 N 
ATOM     10  C   UNL     1      -0.778   0.897  23.139  0.00  0.00    +0.177 C 
ATOM     11  C   UNL     1      -0.191   0.410  21.810  0.00  0.00    +0.113 C 
ATOM     12  C   UNL     1       1.456   0.480  24.166  0.00  0.00    +0.125 C 
ATOM     13  C   UNL     1       1.984   0.128  22.783  0.00  0.00    +0.100 C 
ATOM     15  C   UNL     1       0.098   2.339  25.066  0.00  0.00    +0.303 C 
ATOM     28  H   UNL     1       1.315  -0.747  21.065  0.00  0.00    +0.122 HD
ATOM     30  H   UNL     1      -1.816   2.800  24.344  0.00  0.00    +0.150 HD
BRANCH   8  18
ATOM     18  C   UNL     1      -1.373   4.169  25.873  0.00  0.00    +0.068 C 
ATOM     21  C   UNL     1      -2.592   3.822  26.718  0.00  0.00    +0.027 C 
ATOM     22  C   UNL     1      -1.583   5.469  25.107  0.00  0.00    +0.027 C 
ENDBRANCH   8  18
ENDBRANCH  14  10
BRANCH   7  16
ATOM     16  C   UNL     1      -3.923  -0.670  24.530  0.00  0.00    +0.186 C 
BRANCH  16  19
ATOM      4  O   UNL     1      -2.874  -1.066  26.671  0.00  0.00    -0.249 OA
ATOM     19  C   UNL     1      -3.346  -1.537  25.641  0.00  0.00    +0.328 C 
BRANCH  19   3
ATOM      3  O   UNL     1      -3.408  -2.865  25.342  0.00  0.00    -0.467 OA
ATOM     26  C   UNL     1      -3.863  -3.185  24.024  0.00  0.00    +0.280 C 
ENDBRANCH  19   3
ENDBRANCH  16  19
BRANCH  16  17
ATOM     17  C   UNL     1      -5.154   0.121  24.996  0.00  0.00    +0.070 C 
BRANCH  17  20
ATOM      9  N   UNL     1      -4.112   3.501  23.630  0.00  0.00    -0.263 NA
ATOM     20  C   UNL     1      -5.043   1.619  24.829  0.00  0.00    -0.027 A 
ATOM     23  C   UNL     1      -5.729   2.487  25.672  0.00  0.00    +0.006 A 
ATOM     24  C   UNL     1      -4.255   2.172  23.833  0.00  0.00    +0.114 A 
ATOM     25  C   UNL     1      -5.607   3.861  25.495  0.00  0.00    +0.020 A 
ATOM     27  C   UNL     1      -4.794   4.313  24.469  0.00  0.00    +0.111 A 
ENDBRANCH  17  20
ENDBRANCH  16  17
ENDBRANCH   7  16
TORSDOF 7
ENDMDL
MODEL 10
REMARK VINA RESULT:      -0.5      1.761      2.520
REMARK  Name = 75536036
REMARK  10 active torsions:
REMARK  status: ('A' for Active; 'I' for Inactive)
REMARK    1  A    between atoms: O_3  and  C_19
REMARK    2  A    between atoms: O_3  and  C_26
REMARK    3  A    between atoms: N_7  and  C_16
REMARK    4  A    between atoms: N_8  and  C_18
REMARK    5  A    between atoms: C_10  and  C_14
REMARK    6  A    between atoms: C_16  and  C_17
REMARK    7  A    between atoms: C_16  and  C_19
REMARK    8  A    between atoms: C_17  and  C_20
REMARK    9  A    between atoms: C_18  and  C_21
REMARK   10  A    between atoms: C_18  and  C_22
REMARK                            x       y       z     vdW  Elec       q    Type
REMARK                         _______ _______ _______ _____ _____    ______ ____
ROOT
ATOM      1  O   UNL     1      -0.825   2.557  23.909  0.00  0.00    -0.274 OA
ATOM      7  N   UNL     1      -1.132   0.261  23.681  0.00  0.00    -0.301 N 
ATOM     14  C   UNL     1      -1.530   1.586  23.649  0.00  0.00    +0.236 C 
ATOM     29  H   UNL     1      -1.793  -0.468  23.428  0.00  0.00    +0.150 HD
ENDROOT
BRANCH  14  10
ATOM      2  O   UNL     1      -4.834  -0.007  25.879  0.00  0.00    -0.253 OA
ATOM      5  N   UNL     1      -3.784   1.465  24.417  0.00  0.00    -0.272 N 
ATOM      6  N   UNL     1      -3.290   4.188  23.609  0.00  0.00    -0.312 NA
ATOM      8  N   UNL     1      -4.044  -0.829  23.888  0.00  0.00    -0.297 N 
ATOM     10  C   UNL     1      -2.962   1.739  23.226  0.00  0.00    +0.177 C 
ATOM     11  C   UNL     1      -3.227   3.118  22.612  0.00  0.00    +0.113 C 
ATOM     12  C   UNL     1      -3.976   2.591  25.338  0.00  0.00    +0.125 C 
ATOM     13  C   UNL     1      -4.309   3.886  24.611  0.00  0.00    +0.100 C 
ATOM     15  C   UNL     1      -4.263   0.196  24.803  0.00  0.00    +0.303 C 
ATOM     28  H   UNL     1      -3.521   5.066  23.144  0.00  0.00    +0.122 HD
ATOM     30  H   UNL     1      -3.443  -0.690  23.088  0.00  0.00    +0.150 HD
BRANCH   8  18
ATOM     18  C   UNL     1      -4.470  -2.188  24.141  0.00  0.00    +0.068 C 
ATOM     21  C   UNL     1      -3.458  -2.903  25.027  0.00  0.00    +0.027 C 
ATOM     22  C   UNL     1      -4.681  -2.934  22.830  0.00  0.00    +0.027 C 
ENDBRANCH   8  18
ENDBRANCH  14  10
BRANCH   7  16
ATOM     16  C   UNL     1       0.206  -0.155  24.036  0.00  0.00    +0.186 C 
BRANCH  16  19
ATOM      4  O   UNL     1       1.117  -2.199  24.947  0.00  0.00    -0.249 OA
ATOM     19  C   UNL     1       0.205  -1.378  24.942  0.00  0.00    +0.328 C 
BRANCH  19   3
ATOM      3  O   UNL     1      -0.917  -1.448  25.711  0.00  0.00    -0.467 OA
ATOM     26  C   UNL     1      -1.139  -0.341  26.590  0.00  0.00    +0.280 C 
ENDBRANCH  19   3
ENDBRANCH  16  19
BRANCH  16  17
ATOM     17  C   UNL     1       1.089  -0.356  22.796  0.00  0.00    +0.070 C 
BRANCH  17  20
ATOM      9  N   UNL     1       4.451   1.383  23.020  0.00  0.00    -0.263 NA
ATOM     20  C   UNL     1       2.566  -0.131  23.028  0.00  0.00    -0.027 A 
ATOM     23  C   UNL     1       3.392  -1.168  23.446  0.00  0.00    +0.006 A 
ATOM     24  C   UNL     1       3.140   1.115  22.831  0.00  0.00    +0.114 A 
ATOM     25  C   UNL     1       4.747  -0.931  23.651  0.00  0.00    +0.020 A 
ATOM     27  C   UNL     1       5.223   0.351  23.426  0.00  0.00    +0.111 A 
ENDBRANCH  17  20
ENDBRANCH  16  17
ENDBRANCH   7  16
TORSDOF 7
ENDMDL
