MODEL 1
REMARK VINA RESULT:      -3.5      0.000      0.000
REMARK  Name = 38029925
REMARK  11 active torsions:
REMARK  status: ('A' for Active; 'I' for Inactive)
REMARK    1  A    between atoms: O_2  and  C_25
REMARK    2  A    between atoms: N_4  and  C_24
REMARK    3  A    between atoms: C_6  and  C_10
REMARK    4  A    between atoms: C_8  and  C_13
REMARK    5  A    between atoms: C_9  and  C_14
REMARK    6  A    between atoms: C_10  and  C_15
REMARK    7  A    between atoms: C_10  and  C_16
REMARK    8  A    between atoms: C_11  and  C_18
REMARK    9  A    between atoms: C_13  and  C_17
REMARK   10  A    between atoms: C_14  and  C_23
REMARK   11  A    between atoms: C_24  and  C_25
REMARK                            x       y       z     vdW  Elec       q    Type
REMARK                         _______ _______ _______ _____ _____    ______ ____
ROOT
ATOM      6  C   UNL     1      -3.420   2.206  23.923  0.00  0.00    -0.000 C 
ATOM      7  C   UNL     1      -4.316   0.966  23.792  0.00  0.00    +0.012 C 
ATOM      8  C   UNL     1      -4.969   0.574  25.131  0.00  0.00    +0.023 C 
ATOM      9  C   UNL     1      -4.241   3.415  24.441  0.00  0.00    +0.029 C 
ATOM     11  C   UNL     1      -5.572   1.772  25.835  0.00  0.00    -0.073 C 
ATOM     12  C   UNL     1      -5.244   3.035  25.504  0.00  0.00    -0.023 C 
ATOM     18  C   UNL     1      -6.595   1.489  26.899  0.00  0.00    +0.039 C 
ENDROOT
BRANCH   6  10
ATOM     10  C   UNL     1      -2.751   2.509  22.578  0.00  0.00    -0.013 C 
ATOM     15  C   UNL     1      -2.341   1.213  21.886  0.00  0.00    +0.007 C 
ATOM     16  C   UNL     1      -3.685   3.325  21.691  0.00  0.00    +0.007 C 
ENDBRANCH   6  10
BRANCH   8  13
ATOM     13  C   UNL     1      -3.972  -0.152  26.040  0.00  0.00    +0.103 C 
BRANCH  13  17
ATOM      1  O   UNL     1      -3.946  -2.252  24.942  0.00  0.00    -0.276 OA
ATOM      3  N   UNL     1      -1.940  -1.081  24.986  0.00  0.00    -0.299 N 
ATOM      4  N   UNL     1       0.546  -0.463  23.706  0.00  0.00    -0.297 NA
ATOM     17  C   UNL     1      -3.293  -1.261  25.274  0.00  0.00    +0.216 C 
ATOM     19  C   UNL     1      -1.212  -2.108  24.243  0.00  0.00    +0.123 C 
ATOM     20  C   UNL     1      -1.108   0.019  25.480  0.00  0.00    +0.123 C 
ATOM     21  C   UNL     1      -0.344  -1.490  23.147  0.00  0.00    +0.103 C 
ATOM     22  C   UNL     1      -0.236   0.595  24.362  0.00  0.00    +0.103 C 
BRANCH   4  24
ATOM     24  C   UNL     1       1.398   0.102  22.660  0.00  0.00    +0.112 C 
BRANCH  24  25
ATOM     25  C   UNL     1       2.869  -0.010  23.018  0.00  0.00    +0.171 C 
BRANCH  25   2
ATOM      2  O   UNL     1       3.451   1.288  23.032  0.00  0.00    -0.394 OA
ATOM     26  H   UNL     1       3.295   1.661  23.916  0.00  0.00    +0.209 HD
ENDBRANCH  25   2
ENDBRANCH  24  25
ENDBRANCH   4  24
ENDBRANCH  13  17
ENDBRANCH   8  13
BRANCH   9  14
ATOM     14  C   UNL     1      -3.323   4.518  24.977  0.00  0.00    +0.126 C 
BRANCH  14  23
ATOM      5  N   UNL     1      -1.228   3.489  26.174  0.00  0.00    -0.197 NA
ATOM     23  C   UNL     1      -2.159   3.944  25.650  0.00  0.00    +0.063 C 
ENDBRANCH  14  23
ENDBRANCH   9  14
TORSDOF 8
ENDMDL
MODEL 2
REMARK VINA RESULT:      -3.5      1.991      3.422
REMARK  Name = 38029925
REMARK  11 active torsions:
REMARK  status: ('A' for Active; 'I' for Inactive)
REMARK    1  A    between atoms: O_2  and  C_25
REMARK    2  A    between atoms: N_4  and  C_24
REMARK    3  A    between atoms: C_6  and  C_10
REMARK    4  A    between atoms: C_8  and  C_13
REMARK    5  A    between atoms: C_9  and  C_14
REMARK    6  A    between atoms: C_10  and  C_15
REMARK    7  A    between atoms: C_10  and  C_16
REMARK    8  A    between atoms: C_11  and  C_18
REMARK    9  A    between atoms: C_13  and  C_17
REMARK   10  A    between atoms: C_14  and  C_23
REMARK   11  A    between atoms: C_24  and  C_25
REMARK                            x       y       z     vdW  Elec       q    Type
REMARK                         _______ _______ _______ _____ _____    ______ ____
ROOT
ATOM      6  C   UNL     1      -3.581   1.815  24.515  0.00  0.00    -0.000 C 
ATOM      7  C   UNL     1      -2.719   1.020  23.523  0.00  0.00    +0.012 C 
ATOM      8  C   UNL     1      -2.499  -0.435  23.978  0.00  0.00    +0.023 C 
ATOM      9  C   UNL     1      -4.966   1.141  24.690  0.00  0.00    +0.029 C 
ATOM     11  C   UNL     1      -3.791  -1.087  24.424  0.00  0.00    -0.073 C 
ATOM     12  C   UNL     1      -4.887  -0.368  24.726  0.00  0.00    -0.023 C 
ATOM     18  C   UNL     1      -3.810  -2.590  24.473  0.00  0.00    +0.039 C 
ENDROOT
BRANCH   6  10
ATOM     10  C   UNL     1      -3.712   3.267  24.042  0.00  0.00    -0.013 C 
ATOM     15  C   UNL     1      -2.637   4.134  24.688  0.00  0.00    +0.007 C 
ATOM     16  C   UNL     1      -3.627   3.341  22.522  0.00  0.00    +0.007 C 
ENDBRANCH   6  10
BRANCH   8  13
ATOM     13  C   UNL     1      -1.436  -0.515  25.078  0.00  0.00    +0.103 C 
BRANCH  13  17
ATOM      1  O   UNL     1      -0.691   1.590  25.872  0.00  0.00    -0.276 OA
ATOM      3  N   UNL     1       0.394   0.747  24.000  0.00  0.00    -0.299 N 
ATOM      4  N   UNL     1       2.802   0.557  22.461  0.00  0.00    -0.297 NA
ATOM     17  C   UNL     1      -0.550   0.706  25.026  0.00  0.00    +0.216 C 
ATOM     19  C   UNL     1       1.293   1.894  23.884  0.00  0.00    +0.123 C 
ATOM     20  C   UNL     1       0.498  -0.222  22.905  0.00  0.00    +0.123 C 
ATOM     21  C   UNL     1       2.732   1.447  23.629  0.00  0.00    +0.103 C 
ATOM     22  C   UNL     1       1.953  -0.626  22.663  0.00  0.00    +0.103 C 
BRANCH   4  24
ATOM     24  C   UNL     1       4.185   0.160  22.201  0.00  0.00    +0.112 C 
BRANCH  24  25
ATOM     25  C   UNL     1       5.044   0.283  23.447  0.00  0.00    +0.171 C 
BRANCH  25   2
ATOM      2  O   UNL     1       5.096  -0.972  24.112  0.00  0.00    -0.394 OA
ATOM     26  H   UNL     1       5.545  -0.828  24.962  0.00  0.00    +0.209 HD
ENDBRANCH  25   2
ENDBRANCH  24  25
ENDBRANCH   4  24
ENDBRANCH  13  17
ENDBRANCH   8  13
BRANCH   9  14
ATOM     14  C   UNL     1      -5.671   1.645  25.954  0.00  0.00    +0.126 C 
BRANCH  14  23
ATOM      5  N   UNL     1      -6.166   4.215  25.791  0.00  0.00    -0.197 NA
ATOM     23  C   UNL     1      -5.949   3.077  25.857  0.00  0.00    +0.063 C 
ENDBRANCH  14  23
ENDBRANCH   9  14
TORSDOF 8
ENDMDL
MODEL 3
REMARK VINA RESULT:      -2.8      2.155      5.326
REMARK  Name = 38029925
REMARK  11 active torsions:
REMARK  status: ('A' for Active; 'I' for Inactive)
REMARK    1  A    between atoms: O_2  and  C_25
REMARK    2  A    between atoms: N_4  and  C_24
REMARK    3  A    between atoms: C_6  and  C_10
REMARK    4  A    between atoms: C_8  and  C_13
REMARK    5  A    between atoms: C_9  and  C_14
REMARK    6  A    between atoms: C_10  and  C_15
REMARK    7  A    between atoms: C_10  and  C_16
REMARK    8  A    between atoms: C_11  and  C_18
REMARK    9  A    between atoms: C_13  and  C_17
REMARK   10  A    between atoms: C_14  and  C_23
REMARK   11  A    between atoms: C_24  and  C_25
REMARK                            x       y       z     vdW  Elec       q    Type
REMARK                         _______ _______ _______ _____ _____    ______ ____
ROOT
ATOM      6  C   UNL     1      -1.065   0.394  24.567  0.00  0.00    -0.000 C 
ATOM      7  C   UNL     1      -2.009   0.015  25.718  0.00  0.00    +0.012 C 
ATOM      8  C   UNL     1      -3.038  -1.052  25.301  0.00  0.00    +0.023 C 
ATOM      9  C   UNL     1      -0.300  -0.856  24.061  0.00  0.00    +0.029 C 
ATOM     11  C   UNL     1      -2.390  -2.199  24.554  0.00  0.00    -0.073 C 
ATOM     12  C   UNL     1      -1.160  -2.097  24.018  0.00  0.00    -0.023 C 
ATOM     18  C   UNL     1      -3.168  -3.483  24.474  0.00  0.00    +0.039 C 
ENDROOT
BRANCH   6  10
ATOM     10  C   UNL     1      -0.108   1.500  25.022  0.00  0.00    -0.013 C 
ATOM     15  C   UNL     1       0.103   2.514  23.901  0.00  0.00    +0.007 C 
ATOM     16  C   UNL     1      -0.643   2.183  26.276  0.00  0.00    +0.007 C 
ENDBRANCH   6  10
BRANCH   8  13
ATOM     13  C   UNL     1      -4.173  -0.433  24.477  0.00  0.00    +0.103 C 
BRANCH  13  17
ATOM      1  O   UNL     1      -5.463   0.433  26.267  0.00  0.00    -0.276 OA
ATOM      3  N   UNL     1      -4.621   1.980  24.753  0.00  0.00    -0.299 N 
ATOM      4  N   UNL     1      -3.649   4.631  24.269  0.00  0.00    -0.297 NA
ATOM     17  C   UNL     1      -4.814   0.692  25.251  0.00  0.00    +0.216 C 
ATOM     19  C   UNL     1      -5.206   3.125  25.449  0.00  0.00    +0.123 C 
ATOM     20  C   UNL     1      -3.970   2.308  23.482  0.00  0.00    +0.123 C 
ATOM     21  C   UNL     1      -4.200   4.268  25.582  0.00  0.00    +0.103 C 
ATOM     22  C   UNL     1      -2.990   3.472  23.648  0.00  0.00    +0.103 C 
BRANCH   4  24
ATOM     24  C   UNL     1      -2.712   5.746  24.396  0.00  0.00    +0.112 C 
BRANCH  24  25
ATOM     25  C   UNL     1      -1.537   5.389  25.288  0.00  0.00    +0.171 C 
BRANCH  25   2
ATOM      2  O   UNL     1      -0.327   5.528  24.554  0.00  0.00    -0.394 OA
ATOM     26  H   UNL     1       0.324   4.930  24.959  0.00  0.00    +0.209 HD
ENDBRANCH  25   2
ENDBRANCH  24  25
ENDBRANCH   4  24
ENDBRANCH  13  17
ENDBRANCH   8  13
BRANCH   9  14
ATOM     14  C   UNL     1       0.310  -0.609  22.678  0.00  0.00    +0.126 C 
BRANCH  14  23
ATOM      5  N   UNL     1       2.833   0.080  22.871  0.00  0.00    -0.197 NA
ATOM     23  C   UNL     1       1.717  -0.229  22.790  0.00  0.00    +0.063 C 
ENDBRANCH  14  23
ENDBRANCH   9  14
TORSDOF 8
ENDMDL
MODEL 4
REMARK VINA RESULT:      -2.2     14.980     16.834
REMARK  Name = 38029925
REMARK  11 active torsions:
REMARK  status: ('A' for Active; 'I' for Inactive)
REMARK    1  A    between atoms: O_2  and  C_25
REMARK    2  A    between atoms: N_4  and  C_24
REMARK    3  A    between atoms: C_6  and  C_10
REMARK    4  A    between atoms: C_8  and  C_13
REMARK    5  A    between atoms: C_9  and  C_14
REMARK    6  A    between atoms: C_10  and  C_15
REMARK    7  A    between atoms: C_10  and  C_16
REMARK    8  A    between atoms: C_11  and  C_18
REMARK    9  A    between atoms: C_13  and  C_17
REMARK   10  A    between atoms: C_14  and  C_23
REMARK   11  A    between atoms: C_24  and  C_25
REMARK                            x       y       z     vdW  Elec       q    Type
REMARK                         _______ _______ _______ _____ _____    ______ ____
ROOT
ATOM      6  C   UNL     1      -8.500  -9.530  14.886  0.00  0.00    -0.000 C 
ATOM      7  C   UNL     1      -7.585 -10.632  14.332  0.00  0.00    +0.012 C 
ATOM      8  C   UNL     1      -6.158 -10.549  14.907  0.00  0.00    +0.023 C 
ATOM      9  C   UNL     1      -8.587  -9.625  16.431  0.00  0.00    +0.029 C 
ATOM     11  C   UNL     1      -6.166 -10.370  16.411  0.00  0.00    -0.073 C 
ATOM     12  C   UNL     1      -7.264  -9.969  17.076  0.00  0.00    -0.023 C 
ATOM     18  C   UNL     1      -4.895 -10.707  17.140  0.00  0.00    +0.039 C 
ENDROOT
BRANCH   6  10
ATOM     10  C   UNL     1      -9.883  -9.626  14.233  0.00  0.00    -0.013 C 
ATOM     15  C   UNL     1      -9.746  -9.908  12.740  0.00  0.00    +0.007 C 
ATOM     16  C   UNL     1     -10.719 -10.704  14.914  0.00  0.00    +0.007 C 
ENDBRANCH   6  10
BRANCH   8  13
ATOM     13  C   UNL     1      -5.353  -9.437  14.226  0.00  0.00    +0.103 C 
BRANCH  13  17
ATOM      1  O   UNL     1      -3.675 -10.780  13.228  0.00  0.00    -0.276 OA
ATOM      3  N   UNL     1      -5.037  -9.578  11.781  0.00  0.00    -0.299 N 
ATOM      4  N   UNL     1      -6.314  -9.402   9.223  0.00  0.00    -0.297 NA
ATOM     17  C   UNL     1      -4.607  -9.996  13.039  0.00  0.00    +0.216 C 
ATOM     19  C   UNL     1      -4.368 -10.079  10.581  0.00  0.00    +0.123 C 
ATOM     20  C   UNL     1      -6.050  -8.550  11.529  0.00  0.00    +0.123 C 
ATOM     21  C   UNL     1      -5.380 -10.499   9.515  0.00  0.00    +0.103 C 
ATOM     22  C   UNL     1      -7.030  -8.995  10.441  0.00  0.00    +0.103 C 
BRANCH   4  24
ATOM     24  C   UNL     1      -7.259  -9.797   8.180  0.00  0.00    +0.112 C 
BRANCH  24  25
ATOM     25  C   UNL     1      -8.697  -9.604   8.627  0.00  0.00    +0.171 C 
BRANCH  25   2
ATOM      2  O   UNL     1      -9.140 -10.770   9.310  0.00  0.00    -0.394 OA
ATOM     26  H   UNL     1      -8.425 -11.039   9.911  0.00  0.00    +0.209 HD
ENDBRANCH  25   2
ENDBRANCH  24  25
ENDBRANCH   4  24
ENDBRANCH  13  17
ENDBRANCH   8  13
BRANCH   9  14
ATOM     14  C   UNL     1      -9.126  -8.324  17.035  0.00  0.00    +0.126 C 
BRANCH  14  23
ATOM      5  N   UNL     1     -10.719  -8.815  19.060  0.00  0.00    -0.197 NA
ATOM     23  C   UNL     1     -10.013  -8.605  18.163  0.00  0.00    +0.063 C 
ENDBRANCH  14  23
ENDBRANCH   9  14
TORSDOF 8
ENDMDL
MODEL 5
REMARK VINA RESULT:      -1.6      2.362      4.595
REMARK  Name = 38029925
REMARK  11 active torsions:
REMARK  status: ('A' for Active; 'I' for Inactive)
REMARK    1  A    between atoms: O_2  and  C_25
REMARK    2  A    between atoms: N_4  and  C_24
REMARK    3  A    between atoms: C_6  and  C_10
REMARK    4  A    between atoms: C_8  and  C_13
REMARK    5  A    between atoms: C_9  and  C_14
REMARK    6  A    between atoms: C_10  and  C_15
REMARK    7  A    between atoms: C_10  and  C_16
REMARK    8  A    between atoms: C_11  and  C_18
REMARK    9  A    between atoms: C_13  and  C_17
REMARK   10  A    between atoms: C_14  and  C_23
REMARK   11  A    between atoms: C_24  and  C_25
REMARK                            x       y       z     vdW  Elec       q    Type
REMARK                         _______ _______ _______ _____ _____    ______ ____
ROOT
ATOM      6  C   UNL     1      -3.037   0.602  23.750  0.00  0.00    -0.000 C 
ATOM      7  C   UNL     1      -2.313  -0.599  23.123  0.00  0.00    +0.012 C 
ATOM      8  C   UNL     1      -1.894  -1.641  24.177  0.00  0.00    +0.023 C 
ATOM      9  C   UNL     1      -4.304   0.135  24.509  0.00  0.00    +0.029 C 
ATOM     11  C   UNL     1      -3.022  -1.957  25.137  0.00  0.00    -0.073 C 
ATOM     12  C   UNL     1      -4.097  -1.159  25.262  0.00  0.00    -0.023 C 
ATOM     18  C   UNL     1      -2.908  -3.237  25.918  0.00  0.00    +0.039 C 
ENDROOT
BRANCH   6  10
ATOM     10  C   UNL     1      -3.372   1.631  22.664  0.00  0.00    -0.013 C 
ATOM     15  C   UNL     1      -3.664   2.990  23.293  0.00  0.00    +0.007 C 
ATOM     16  C   UNL     1      -2.232   1.733  21.658  0.00  0.00    +0.007 C 
ENDBRANCH   6  10
BRANCH   8  13
ATOM     13  C   UNL     1      -0.640  -1.188  24.933  0.00  0.00    +0.103 C 
BRANCH  13  17
ATOM      1  O   UNL     1       0.618  -0.339  23.113  0.00  0.00    -0.276 OA
ATOM      3  N   UNL     1      -0.023   1.195  24.735  0.00  0.00    -0.299 N 
ATOM      4  N   UNL     1      -0.762   3.886  25.383  0.00  0.00    -0.297 NA
ATOM     17  C   UNL     1       0.045  -0.079  24.173  0.00  0.00    +0.216 C 
ATOM     19  C   UNL     1       0.612   2.324  24.056  0.00  0.00    +0.123 C 
ATOM     20  C   UNL     1      -0.580   1.512  26.052  0.00  0.00    +0.123 C 
ATOM     21  C   UNL     1      -0.308   3.544  24.027  0.00  0.00    +0.103 C 
ATOM     22  C   UNL     1      -1.475   2.752  25.989  0.00  0.00    +0.103 C 
BRANCH   4  24
ATOM     24  C   UNL     1      -1.615   5.073  25.354  0.00  0.00    +0.112 C 
BRANCH  24  25
ATOM     25  C   UNL     1      -2.823   4.914  26.260  0.00  0.00    +0.171 C 
BRANCH  25   2
ATOM      2  O   UNL     1      -3.976   4.655  25.470  0.00  0.00    -0.394 OA
ATOM     26  H   UNL     1      -4.139   5.449  24.934  0.00  0.00    +0.209 HD
ENDBRANCH  25   2
ENDBRANCH  24  25
ENDBRANCH   4  24
ENDBRANCH  13  17
ENDBRANCH   8  13
BRANCH   9  14
ATOM     14  C   UNL     1      -4.799   1.215  25.477  0.00  0.00    +0.126 C 
BRANCH  14  23
ATOM      5  N   UNL     1      -7.183   2.058  24.781  0.00  0.00    -0.197 NA
ATOM     23  C   UNL     1      -6.130   1.683  25.095  0.00  0.00    +0.063 C 
ENDBRANCH  14  23
ENDBRANCH   9  14
TORSDOF 8
ENDMDL
MODEL 6
REMARK VINA RESULT:      -1.3     15.033     16.564
REMARK  Name = 38029925
REMARK  11 active torsions:
REMARK  status: ('A' for Active; 'I' for Inactive)
REMARK    1  A    between atoms: O_2  and  C_25
REMARK    2  A    between atoms: N_4  and  C_24
REMARK    3  A    between atoms: C_6  and  C_10
REMARK    4  A    between atoms: C_8  and  C_13
REMARK    5  A    between atoms: C_9  and  C_14
REMARK    6  A    between atoms: C_10  and  C_15
REMARK    7  A    between atoms: C_10  and  C_16
REMARK    8  A    between atoms: C_11  and  C_18
REMARK    9  A    between atoms: C_13  and  C_17
REMARK   10  A    between atoms: C_14  and  C_23
REMARK   11  A    between atoms: C_24  and  C_25
REMARK                            x       y       z     vdW  Elec       q    Type
REMARK                         _______ _______ _______ _____ _____    ______ ____
ROOT
ATOM      6  C   UNL     1      -8.978  -9.787  12.307  0.00  0.00    -0.000 C 
ATOM      7  C   UNL     1      -7.780 -10.738  12.180  0.00  0.00    +0.012 C 
ATOM      8  C   UNL     1      -6.770 -10.561  13.330  0.00  0.00    +0.023 C 
ATOM      9  C   UNL     1      -9.716 -10.022  13.650  0.00  0.00    +0.029 C 
ATOM     11  C   UNL     1      -7.456 -10.514  14.680  0.00  0.00    -0.073 C 
ATOM     12  C   UNL     1      -8.776 -10.285  14.802  0.00  0.00    -0.023 C 
ATOM     18  C   UNL     1      -6.598 -10.781  15.885  0.00  0.00    +0.039 C 
ENDROOT
BRANCH   6  10
ATOM     10  C   UNL     1      -9.913  -9.965  11.106  0.00  0.00    -0.013 C 
ATOM     15  C   UNL     1     -10.635  -8.657  10.796  0.00  0.00    +0.007 C 
ATOM     16  C   UNL     1      -9.131 -10.454   9.892  0.00  0.00    +0.007 C 
ENDBRANCH   6  10
BRANCH   8  13
ATOM     13  C   UNL     1      -5.899  -9.319  13.113  0.00  0.00    +0.103 C 
BRANCH  13  17
ATOM      1  O   UNL     1      -6.141  -8.987  10.779  0.00  0.00    -0.276 OA
ATOM      3  N   UNL     1      -4.038  -9.634  11.521  0.00  0.00    -0.299 N 
ATOM      4  N   UNL     1      -1.197  -9.544  11.165  0.00  0.00    -0.297 NA
ATOM     17  C   UNL     1      -5.379  -9.297  11.697  0.00  0.00    +0.216 C 
ATOM     19  C   UNL     1      -3.457  -9.632  10.179  0.00  0.00    +0.123 C 
ATOM     20  C   UNL     1      -3.144 -10.133  12.570  0.00  0.00    +0.123 C 
ATOM     21  C   UNL     1      -2.093  -8.943  10.166  0.00  0.00    +0.103 C 
ATOM     22  C   UNL     1      -1.782  -9.440  12.510  0.00  0.00    +0.103 C 
BRANCH   4  24
ATOM     24  C   UNL     1       0.117  -8.904  11.125  0.00  0.00    +0.112 C 
BRANCH  24  25
ATOM     25  C   UNL     1       0.305  -7.942  12.285  0.00  0.00    +0.171 C 
BRANCH  25   2
ATOM      2  O   UNL     1       1.620  -7.403  12.244  0.00  0.00    -0.394 OA
ATOM     26  H   UNL     1       1.972  -7.438  13.149  0.00  0.00    +0.209 HD
ENDBRANCH  25   2
ENDBRANCH  24  25
ENDBRANCH   4  24
ENDBRANCH  13  17
ENDBRANCH   8  13
BRANCH   9  14
ATOM     14  C   UNL     1     -10.628  -8.839  13.994  0.00  0.00    +0.126 C 
BRANCH  14  23
ATOM      5  N   UNL     1      -9.818  -7.638  16.180  0.00  0.00    -0.197 NA
ATOM     23  C   UNL     1     -10.170  -8.169  15.210  0.00  0.00    +0.063 C 
ENDBRANCH  14  23
ENDBRANCH   9  14
TORSDOF 8
ENDMDL
MODEL 7
REMARK VINA RESULT:      -1.1      1.955      4.427
REMARK  Name = 38029925
REMARK  11 active torsions:
REMARK  status: ('A' for Active; 'I' for Inactive)
REMARK    1  A    between atoms: O_2  and  C_25
REMARK    2  A    between atoms: N_4  and  C_24
REMARK    3  A    between atoms: C_6  and  C_10
REMARK    4  A    between atoms: C_8  and  C_13
REMARK    5  A    between atoms: C_9  and  C_14
REMARK    6  A    between atoms: C_10  and  C_15
REMARK    7  A    between atoms: C_10  and  C_16
REMARK    8  A    between atoms: C_11  and  C_18
REMARK    9  A    between atoms: C_13  and  C_17
REMARK   10  A    between atoms: C_14  and  C_23
REMARK   11  A    between atoms: C_24  and  C_25
REMARK                            x       y       z     vdW  Elec       q    Type
REMARK                         _______ _______ _______ _____ _____    ______ ____
ROOT
ATOM      6  C   UNL     1      -3.582   2.411  24.617  0.00  0.00    -0.000 C 
ATOM      7  C   UNL     1      -2.946   2.795  25.961  0.00  0.00    +0.012 C 
ATOM      8  C   UNL     1      -1.726   3.719  25.786  0.00  0.00    +0.023 C 
ATOM      9  C   UNL     1      -4.033   3.679  23.850  0.00  0.00    +0.029 C 
ATOM     11  C   UNL     1      -2.012   4.854  24.825  0.00  0.00    -0.073 C 
ATOM     12  C   UNL     1      -3.056   4.825  23.976  0.00  0.00    -0.023 C 
ATOM     18  C   UNL     1      -1.098   6.046  24.892  0.00  0.00    +0.039 C 
ENDROOT
BRANCH   6  10
ATOM     10  C   UNL     1      -4.748   1.444  24.851  0.00  0.00    -0.013 C 
ATOM     15  C   UNL     1      -4.283   0.239  25.664  0.00  0.00    +0.007 C 
ATOM     16  C   UNL     1      -5.899   2.159  25.551  0.00  0.00    +0.007 C 
ENDBRANCH   6  10
BRANCH   8  13
ATOM     13  C   UNL     1      -0.491   2.925  25.346  0.00  0.00    +0.103 C 
BRANCH  13  17
ATOM      1  O   UNL     1      -0.208   1.765  27.393  0.00  0.00    -0.276 OA
ATOM      3  N   UNL     1      -0.441   0.460  25.486  0.00  0.00    -0.299 N 
ATOM      4  N   UNL     1      -1.347  -1.989  24.308  0.00  0.00    -0.297 NA
ATOM     17  C   UNL     1      -0.365   1.670  26.174  0.00  0.00    +0.216 C 
ATOM     19  C   UNL     1      -0.332  -0.801  26.218  0.00  0.00    +0.123 C 
ATOM     20  C   UNL     1      -0.494   0.315  24.029  0.00  0.00    +0.123 C 
ATOM     21  C   UNL     1      -1.398  -1.799  25.765  0.00  0.00    +0.103 C 
ATOM     22  C   UNL     1      -1.553  -0.709  23.614  0.00  0.00    +0.103 C 
BRANCH   4  24
ATOM     24  C   UNL     1      -2.346  -2.969  23.884  0.00  0.00    +0.112 C 
BRANCH  24  25
ATOM     25  C   UNL     1      -3.670  -2.761  24.596  0.00  0.00    +0.171 C 
BRANCH  25   2
ATOM      2  O   UNL     1      -4.668  -2.411  23.645  0.00  0.00    -0.394 OA
ATOM     26  H   UNL     1      -5.362  -3.089  23.697  0.00  0.00    +0.209 HD
ENDBRANCH  25   2
ENDBRANCH  24  25
ENDBRANCH   4  24
ENDBRANCH  13  17
ENDBRANCH   8  13
BRANCH   9  14
ATOM     14  C   UNL     1      -4.272   3.374  22.367  0.00  0.00    +0.126 C 
BRANCH  14  23
ATOM      5  N   UNL     1      -2.315   1.935  21.377  0.00  0.00    -0.197 NA
ATOM     23  C   UNL     1      -3.176   2.575  21.819  0.00  0.00    +0.063 C 
ENDBRANCH  14  23
ENDBRANCH   9  14
TORSDOF 8
ENDMDL
MODEL 8
REMARK VINA RESULT:      -0.8      1.945      4.598
REMARK  Name = 38029925
REMARK  11 active torsions:
REMARK  status: ('A' for Active; 'I' for Inactive)
REMARK    1  A    between atoms: O_2  and  C_25
REMARK    2  A    between atoms: N_4  and  C_24
REMARK    3  A    between atoms: C_6  and  C_10
REMARK    4  A    between atoms: C_8  and  C_13
REMARK    5  A    between atoms: C_9  and  C_14
REMARK    6  A    between atoms: C_10  and  C_15
REMARK    7  A    between atoms: C_10  and  C_16
REMARK    8  A    between atoms: C_11  and  C_18
REMARK    9  A    between atoms: C_13  and  C_17
REMARK   10  A    between atoms: C_14  and  C_23
REMARK   11  A    between atoms: C_24  and  C_25
REMARK                            x       y       z     vdW  Elec       q    Type
REMARK                         _______ _______ _______ _____ _____    ______ ____
ROOT
ATOM      6  C   UNL     1      -4.294   2.707  25.177  0.00  0.00    -0.000 C 
ATOM      7  C   UNL     1      -4.119   3.909  24.238  0.00  0.00    +0.012 C 
ATOM      8  C   UNL     1      -2.921   3.735  23.284  0.00  0.00    +0.023 C 
ATOM      9  C   UNL     1      -4.503   1.407  24.359  0.00  0.00    +0.029 C 
ATOM     11  C   UNL     1      -2.910   2.365  22.638  0.00  0.00    -0.073 C 
ATOM     12  C   UNL     1      -3.634   1.340  23.124  0.00  0.00    -0.023 C 
ATOM     18  C   UNL     1      -2.084   2.210  21.392  0.00  0.00    +0.039 C 
ENDROOT
BRANCH   6  10
ATOM     10  C   UNL     1      -5.457   2.965  26.140  0.00  0.00    -0.013 C 
ATOM     15  C   UNL     1      -6.114   4.307  25.831  0.00  0.00    +0.007 C 
ATOM     16  C   UNL     1      -6.476   1.832  26.058  0.00  0.00    +0.007 C 
ENDBRANCH   6  10
BRANCH   8  13
ATOM     13  C   UNL     1      -1.597   4.012  24.005  0.00  0.00    +0.103 C 
BRANCH  13  17
ATOM      1  O   UNL     1      -2.109   3.594  26.280  0.00  0.00    -0.276 OA
ATOM      3  N   UNL     1      -0.778   2.019  25.212  0.00  0.00    -0.299 N 
ATOM      4  N   UNL     1       0.039  -0.716  24.970  0.00  0.00    -0.297 NA
ATOM     17  C   UNL     1      -1.522   3.196  25.272  0.00  0.00    +0.216 C 
ATOM     19  C   UNL     1      -0.661   1.171  26.397  0.00  0.00    +0.123 C 
ATOM     20  C   UNL     1       0.037   1.588  24.072  0.00  0.00    +0.123 C 
ATOM     21  C   UNL     1      -0.870  -0.303  26.048  0.00  0.00    +0.103 C 
ATOM     22  C   UNL     1      -0.180   0.104  23.769  0.00  0.00    +0.103 C 
BRANCH   4  24
ATOM     24  C   UNL     1      -0.141  -2.134  24.662  0.00  0.00    +0.112 C 
BRANCH  24  25
ATOM     25  C   UNL     1      -1.559  -2.592  24.954  0.00  0.00    +0.171 C 
BRANCH  25   2
ATOM      2  O   UNL     1      -2.074  -3.284  23.823  0.00  0.00    -0.394 OA
ATOM     26  H   UNL     1      -3.027  -3.405  23.971  0.00  0.00    +0.209 HD
ENDBRANCH  25   2
ENDBRANCH  24  25
ENDBRANCH   4  24
ENDBRANCH  13  17
ENDBRANCH   8  13
BRANCH   9  14
ATOM     14  C   UNL     1      -4.259   0.165  25.222  0.00  0.00    +0.126 C 
BRANCH  14  23
ATOM      5  N   UNL     1      -4.574  -2.024  23.812  0.00  0.00    -0.197 NA
ATOM     23  C   UNL     1      -4.428  -1.056  24.436  0.00  0.00    +0.063 C 
ENDBRANCH  14  23
ENDBRANCH   9  14
TORSDOF 8
ENDMDL
MODEL 9
REMARK VINA RESULT:      -0.7      2.194      6.580
REMARK  Name = 38029925
REMARK  11 active torsions:
REMARK  status: ('A' for Active; 'I' for Inactive)
REMARK    1  A    between atoms: O_2  and  C_25
REMARK    2  A    between atoms: N_4  and  C_24
REMARK    3  A    between atoms: C_6  and  C_10
REMARK    4  A    between atoms: C_8  and  C_13
REMARK    5  A    between atoms: C_9  and  C_14
REMARK    6  A    between atoms: C_10  and  C_15
REMARK    7  A    between atoms: C_10  and  C_16
REMARK    8  A    between atoms: C_11  and  C_18
REMARK    9  A    between atoms: C_13  and  C_17
REMARK   10  A    between atoms: C_14  and  C_23
REMARK   11  A    between atoms: C_24  and  C_25
REMARK                            x       y       z     vdW  Elec       q    Type
REMARK                         _______ _______ _______ _____ _____    ______ ____
ROOT
ATOM      6  C   UNL     1      -1.871   0.182  24.074  0.00  0.00    -0.000 C 
ATOM      7  C   UNL     1      -1.337   1.265  23.126  0.00  0.00    +0.012 C 
ATOM      8  C   UNL     1       0.174   1.503  23.304  0.00  0.00    +0.023 C 
ATOM      9  C   UNL     1      -1.132  -1.159  23.836  0.00  0.00    +0.029 C 
ATOM     11  C   UNL     1       0.948   0.201  23.349  0.00  0.00    -0.073 C 
ATOM     12  C   UNL     1       0.346  -0.980  23.575  0.00  0.00    -0.023 C 
ATOM     18  C   UNL     1       2.426   0.282  23.082  0.00  0.00    +0.039 C 
ENDROOT
BRANCH   6  10
ATOM     10  C   UNL     1      -3.386   0.035  23.895  0.00  0.00    -0.013 C 
ATOM     15  C   UNL     1      -4.060  -0.196  25.243  0.00  0.00    +0.007 C 
ATOM     16  C   UNL     1      -3.962   1.267  23.205  0.00  0.00    +0.007 C 
ENDBRANCH   6  10
BRANCH   8  13
ATOM     13  C   UNL     1       0.456   2.351  24.549  0.00  0.00    +0.103 C 
BRANCH  13  17
ATOM      1  O   UNL     1       0.325   4.540  23.651  0.00  0.00    -0.276 OA
ATOM      3  N   UNL     1      -1.348   3.930  25.142  0.00  0.00    -0.299 N 
ATOM      4  N   UNL     1      -4.075   4.190  25.979  0.00  0.00    -0.297 NA
ATOM     17  C   UNL     1      -0.187   3.708  24.402  0.00  0.00    +0.216 C 
ATOM     19  C   UNL     1      -2.034   5.218  25.050  0.00  0.00    +0.123 C 
ATOM     20  C   UNL     1      -1.906   3.013  26.139  0.00  0.00    +0.123 C 
ATOM     21  C   UNL     1      -3.544   5.034  24.899  0.00  0.00    +0.103 C 
ATOM     22  C   UNL     1      -3.421   2.873  25.973  0.00  0.00    +0.103 C 
BRANCH   4  24
ATOM     24  C   UNL     1      -5.524   4.044  25.850  0.00  0.00    +0.112 C 
BRANCH  24  25
ATOM     25  C   UNL     1      -5.924   2.592  25.658  0.00  0.00    +0.171 C 
BRANCH  25   2
ATOM      2  O   UNL     1      -6.552   2.114  26.841  0.00  0.00    -0.394 OA
ATOM     26  H   UNL     1      -7.506   2.065  26.659  0.00  0.00    +0.209 HD
ENDBRANCH  25   2
ENDBRANCH  24  25
ENDBRANCH   4  24
ENDBRANCH  13  17
ENDBRANCH   8  13
BRANCH   9  14
ATOM     14  C   UNL     1      -1.328  -2.116  25.016  0.00  0.00    +0.126 C 
BRANCH  14  23
ATOM      5  N   UNL     1      -3.508  -3.539  24.693  0.00  0.00    -0.197 NA
ATOM     23  C   UNL     1      -2.542  -2.914  24.841  0.00  0.00    +0.063 C 
ENDBRANCH  14  23
ENDBRANCH   9  14
TORSDOF 8
ENDMDL
MODEL 10
REMARK VINA RESULT:      -0.3      1.811      2.787
REMARK  Name = 38029925
REMARK  11 active torsions:
REMARK  status: ('A' for Active; 'I' for Inactive)
REMARK    1  A    between atoms: O_2  and  C_25
REMARK    2  A    between atoms: N_4  and  C_24
REMARK    3  A    between atoms: C_6  and  C_10
REMARK    4  A    between atoms: C_8  and  C_13
REMARK    5  A    between atoms: C_9  and  C_14
REMARK    6  A    between atoms: C_10  and  C_15
REMARK    7  A    between atoms: C_10  and  C_16
REMARK    8  A    between atoms: C_11  and  C_18
REMARK    9  A    between atoms: C_13  and  C_17
REMARK   10  A    between atoms: C_14  and  C_23
REMARK   11  A    between atoms: C_24  and  C_25
REMARK                            x       y       z     vdW  Elec       q    Type
REMARK                         _______ _______ _______ _____ _____    ______ ____
ROOT
ATOM      6  C   UNL     1      -3.426   2.828  25.086  0.00  0.00    -0.000 C 
ATOM      7  C   UNL     1      -2.649   1.949  24.095  0.00  0.00    +0.012 C 
ATOM      8  C   UNL     1      -3.056   0.466  24.188  0.00  0.00    +0.023 C 
ATOM      9  C   UNL     1      -4.950   2.720  24.826  0.00  0.00    +0.029 C 
ATOM     11  C   UNL     1      -4.560   0.295  24.207  0.00  0.00    -0.073 C 
ATOM     12  C   UNL     1      -5.392   1.317  24.481  0.00  0.00    -0.023 C 
ATOM     18  C   UNL     1      -5.092  -1.068  23.860  0.00  0.00    +0.039 C 
ENDROOT
BRANCH   6  10
ATOM     10  C   UNL     1      -2.936   4.277  24.992  0.00  0.00    -0.013 C 
ATOM     15  C   UNL     1      -1.416   4.331  25.113  0.00  0.00    +0.007 C 
ATOM     16  C   UNL     1      -3.397   4.910  23.684  0.00  0.00    +0.007 C 
ENDBRANCH   6  10
BRANCH   8  13
ATOM     13  C   UNL     1      -2.411  -0.208  25.404  0.00  0.00    +0.103 C 
BRANCH  13  17
ATOM      1  O   UNL     1      -1.551  -2.329  24.790  0.00  0.00    -0.276 OA
ATOM      3  N   UNL     1      -0.056  -0.552  24.746  0.00  0.00    -0.299 N 
ATOM      4  N   UNL     1       2.265   0.648  23.571  0.00  0.00    -0.297 NA
ATOM     17  C   UNL     1      -1.306  -1.132  24.954  0.00  0.00    +0.216 C 
ATOM     19  C   UNL     1       1.065  -1.380  24.304  0.00  0.00    +0.123 C 
ATOM     20  C   UNL     1       0.298   0.836  25.058  0.00  0.00    +0.123 C 
ATOM     21  C   UNL     1       1.844  -0.704  23.175  0.00  0.00    +0.103 C 
ATOM     22  C   UNL     1       1.097   1.471  23.918  0.00  0.00    +0.103 C 
BRANCH   4  24
ATOM     24  C   UNL     1       3.038   1.278  22.501  0.00  0.00    +0.112 C 
BRANCH  24  25
ATOM     25  C   UNL     1       4.496   0.858  22.545  0.00  0.00    +0.171 C 
BRANCH  25   2
ATOM      2  O   UNL     1       4.895   0.677  23.898  0.00  0.00    -0.394 OA
ATOM     26  H   UNL     1       5.182  -0.248  23.989  0.00  0.00    +0.209 HD
ENDBRANCH  25   2
ENDBRANCH  24  25
ENDBRANCH   4  24
ENDBRANCH  13  17
ENDBRANCH   8  13
BRANCH   9  14
ATOM     14  C   UNL     1      -5.754   3.228  26.027  0.00  0.00    +0.126 C 
BRANCH  14  23
ATOM      5  N   UNL     1      -6.938   1.241  27.265  0.00  0.00    -0.197 NA
ATOM     23  C   UNL     1      -6.419   2.120  26.713  0.00  0.00    +0.063 C 
ENDBRANCH  14  23
ENDBRANCH   9  14
TORSDOF 8
ENDMDL
