MODEL 1
REMARK VINA RESULT:       3.5      0.000      0.000
REMARK  Name = 45361373
REMARK  13 active torsions:
REMARK  status: ('A' for Active; 'I' for Inactive)
REMARK    1  A    between atoms: O_1  and  C_12
REMARK    2  A    between atoms: O_5  and  C_34
REMARK    3  A    between atoms: O_5  and  C_37
REMARK    4  A    between atoms: N_6  and  C_16
REMARK    5  A    between atoms: N_7  and  C_26
REMARK    6  A    between atoms: N_8  and  C_27
REMARK    7  A    between atoms: C_9  and  C_19
REMARK    8  A    between atoms: C_11  and  C_21
REMARK    9  A    between atoms: C_15  and  C_20
REMARK   10  A    between atoms: C_20  and  C_22
REMARK   11  A    between atoms: C_20  and  C_23
REMARK   12  A    between atoms: C_24  and  C_25
REMARK   13  A    between atoms: C_26  and  C_27
REMARK                            x       y       z     vdW  Elec       q    Type
REMARK                         _______ _______ _______ _____ _____    ______ ____
ROOT
ATOM      9  C   UNL     1      -3.092  -1.318  24.882  0.00  0.00    -0.027 C 
ATOM     10  C   UNL     1      -2.740   0.003  24.119  0.00  0.00    +0.028 C 
ATOM     11  C   UNL     1      -1.196   0.289  24.179  0.00  0.00    +0.012 C 
ATOM     12  C   UNL     1      -3.655   1.176  24.571  0.00  0.00    +0.122 C 
ATOM     13  C   UNL     1      -4.597  -1.629  24.706  0.00  0.00    +0.007 C 
ATOM     14  C   UNL     1      -2.293  -2.487  24.260  0.00  0.00    +0.009 C 
ATOM     15  C   UNL     1      -5.158   0.822  24.492  0.00  0.00    +0.029 C 
ATOM     16  C   UNL     1      -0.401  -0.925  23.620  0.00  0.00    +0.076 C 
ATOM     17  C   UNL     1      -5.497  -0.498  25.185  0.00  0.00    +0.007 C 
ATOM     18  C   UNL     1      -0.790  -2.255  24.267  0.00  0.00    +0.023 C 
ATOM     19  C   UNL     1      -2.773  -1.232  26.396  0.00  0.00    +0.011 C 
ATOM     21  C   UNL     1      -0.775   1.560  23.423  0.00  0.00    +0.010 C 
ENDROOT
BRANCH  16   6
ATOM      3  O   UNL     1       1.476  -0.324  21.533  0.00  0.00    -0.270 OA
ATOM      6  N   UNL     1       1.029  -0.744  23.768  0.00  0.00    -0.308 N 
ATOM     24  C   UNL     1       1.853  -0.455  22.694  0.00  0.00    +0.244 C 
ATOM     38  H   UNL     1       1.424  -0.951  24.679  0.00  0.00    +0.149 HD
BRANCH  24  25
ATOM     25  C   UNL     1       3.300  -0.325  23.008  0.00  0.00    +0.037 A 
ATOM     28  C   UNL     1       3.979  -1.382  23.613  0.00  0.00    +0.016 A 
ATOM     29  C   UNL     1       3.977   0.855  22.699  0.00  0.00    +0.016 A 
ATOM     30  C   UNL     1       5.337  -1.259  23.909  0.00  0.00    +0.046 A 
ATOM     31  C   UNL     1       5.334   0.978  22.994  0.00  0.00    +0.046 A 
ATOM     34  C   UNL     1       6.014  -0.079  23.600  0.00  0.00    +0.120 A 
BRANCH  34   5
ATOM      5  O   UNL     1       7.339   0.041  23.888  0.00  0.00    -0.495 OA
ATOM     37  C   UNL     1       8.262  -0.409  22.896  0.00  0.00    +0.277 C 
ENDBRANCH  34   5
ENDBRANCH  24  25
ENDBRANCH  16   6
BRANCH  12   1
ATOM      1  O   UNL     1      -3.454   2.298  23.709  0.00  0.00    -0.391 OA
ATOM     39  H   UNL     1      -3.877   3.072  24.117  0.00  0.00    +0.210 HD
ENDBRANCH  12   1
BRANCH  15  20
ATOM     20  C   UNL     1      -6.037   1.941  25.064  0.00  0.00    +0.077 C 
ATOM     22  C   UNL     1      -7.258   2.156  24.177  0.00  0.00    +0.017 C 
BRANCH  20  23
ATOM      2  O   UNL     1      -5.101   4.039  24.295  0.00  0.00    -0.276 OA
ATOM      7  N   UNL     1      -4.640   3.348  26.460  0.00  0.00    -0.314 N 
ATOM     23  C   UNL     1      -5.220   3.222  25.206  0.00  0.00    +0.216 C 
ATOM     40  H   UNL     1      -4.774   2.613  27.148  0.00  0.00    +0.149 HD
BRANCH   7  26
ATOM     26  C   UNL     1      -3.818   4.476  26.832  0.00  0.00    +0.119 C 
BRANCH  26  27
ATOM     27  C   UNL     1      -2.916   4.903  25.684  0.00  0.00    +0.103 C 
BRANCH  27   8
ATOM      4  O   UNL     1       0.785   2.957  26.039  0.00  0.00    -0.377 OA
ATOM      8  N   UNL     1      -1.832   3.939  25.504  0.00  0.00    -0.297 NA
ATOM     32  C   UNL     1      -1.503   3.281  26.777  0.00  0.00    +0.112 C 
ATOM     33  C   UNL     1      -0.638   4.594  24.952  0.00  0.00    +0.112 C 
ATOM     35  C   UNL     1      -0.362   2.290  26.567  0.00  0.00    +0.175 C 
ATOM     36  C   UNL     1       0.483   3.571  24.786  0.00  0.00    +0.175 C 
ENDBRANCH  27   8
ENDBRANCH  26  27
ENDBRANCH   7  26
ENDBRANCH  20  23
ENDBRANCH  15  20
TORSDOF 9
ENDMDL
MODEL 2
REMARK VINA RESULT:       7.1     13.765     17.459
REMARK  Name = 45361373
REMARK  13 active torsions:
REMARK  status: ('A' for Active; 'I' for Inactive)
REMARK    1  A    between atoms: O_1  and  C_12
REMARK    2  A    between atoms: O_5  and  C_34
REMARK    3  A    between atoms: O_5  and  C_37
REMARK    4  A    between atoms: N_6  and  C_16
REMARK    5  A    between atoms: N_7  and  C_26
REMARK    6  A    between atoms: N_8  and  C_27
REMARK    7  A    between atoms: C_9  and  C_19
REMARK    8  A    between atoms: C_11  and  C_21
REMARK    9  A    between atoms: C_15  and  C_20
REMARK   10  A    between atoms: C_20  and  C_22
REMARK   11  A    between atoms: C_20  and  C_23
REMARK   12  A    between atoms: C_24  and  C_25
REMARK   13  A    between atoms: C_26  and  C_27
REMARK                            x       y       z     vdW  Elec       q    Type
REMARK                         _______ _______ _______ _____ _____    ______ ____
ROOT
ATOM      9  C   UNL     1      -4.541  -9.485  10.898  0.00  0.00    -0.027 C 
ATOM     10  C   UNL     1      -3.727 -10.178  12.042  0.00  0.00    +0.028 C 
ATOM     11  C   UNL     1      -4.498 -10.093  13.408  0.00  0.00    +0.012 C 
ATOM     12  C   UNL     1      -2.256  -9.672  12.072  0.00  0.00    +0.122 C 
ATOM     13  C   UNL     1      -3.810  -9.687   9.550  0.00  0.00    +0.007 C 
ATOM     14  C   UNL     1      -5.928 -10.161  10.788  0.00  0.00    +0.009 C 
ATOM     15  C   UNL     1      -1.562  -9.779  10.694  0.00  0.00    +0.029 C 
ATOM     16  C   UNL     1      -5.919 -10.707  13.264  0.00  0.00    +0.076 C 
ATOM     17  C   UNL     1      -2.382  -9.157   9.563  0.00  0.00    +0.007 C 
ATOM     18  C   UNL     1      -6.713 -10.132  12.090  0.00  0.00    +0.023 C 
ATOM     19  C   UNL     1      -4.732  -7.966  11.141  0.00  0.00    +0.011 C 
ATOM     21  C   UNL     1      -3.766 -10.780  14.572  0.00  0.00    +0.010 C 
ENDROOT
BRANCH  16   6
ATOM      3  O   UNL     1      -8.321  -9.163  13.552  0.00  0.00    -0.270 OA
ATOM      6  N   UNL     1      -6.700 -10.541  14.472  0.00  0.00    -0.308 N 
ATOM     24  C   UNL     1      -7.850  -9.771  14.510  0.00  0.00    +0.244 C 
ATOM     38  H   UNL     1      -6.307 -10.920  15.327  0.00  0.00    +0.149 HD
BRANCH  24  25
ATOM     25  C   UNL     1      -8.523  -9.679  15.831  0.00  0.00    +0.037 A 
ATOM     28  C   UNL     1      -9.464  -8.677  16.065  0.00  0.00    +0.016 A 
ATOM     29  C   UNL     1      -8.210 -10.593  16.837  0.00  0.00    +0.016 A 
ATOM     30  C   UNL     1     -10.094  -8.590  17.308  0.00  0.00    +0.046 A 
ATOM     31  C   UNL     1      -8.840 -10.506  18.079  0.00  0.00    +0.046 A 
ATOM     34  C   UNL     1      -9.782  -9.504  18.314  0.00  0.00    +0.120 A 
BRANCH  34   5
ATOM      5  O   UNL     1     -10.397  -9.420  19.526  0.00  0.00    -0.495 OA
ATOM     37  C   UNL     1     -10.319 -10.565  20.374  0.00  0.00    +0.277 C 
ENDBRANCH  34   5
ENDBRANCH  24  25
ENDBRANCH  16   6
BRANCH  12   1
ATOM      1  O   UNL     1      -1.494 -10.475  12.975  0.00  0.00    -0.391 OA
ATOM     39  H   UNL     1      -2.109 -11.050  13.461  0.00  0.00    +0.210 HD
ENDBRANCH  12   1
BRANCH  15  20
ATOM     20  C   UNL     1      -0.161  -9.157  10.713  0.00  0.00    +0.077 C 
ATOM     22  C   UNL     1       0.891 -10.238  10.932  0.00  0.00    +0.017 C 
BRANCH  20  23
ATOM      2  O   UNL     1      -0.971  -7.912  12.627  0.00  0.00    -0.276 OA
ATOM      7  N   UNL     1       1.080  -7.330  11.713  0.00  0.00    -0.314 N 
ATOM     23  C   UNL     1      -0.085  -8.080  11.791  0.00  0.00    +0.216 C 
ATOM     40  H   UNL     1       1.751  -7.524  10.976  0.00  0.00    +0.149 HD
BRANCH   7  26
ATOM     26  C   UNL     1       1.377  -6.251  12.626  0.00  0.00    +0.119 C 
BRANCH  26  27
ATOM     27  C   UNL     1       2.691  -5.573  12.269  0.00  0.00    +0.103 C 
BRANCH  27   8
ATOM      4  O   UNL     1       6.576  -6.989  12.984  0.00  0.00    -0.377 OA
ATOM      8  N   UNL     1       3.816  -6.315  12.836  0.00  0.00    -0.297 NA
ATOM     32  C   UNL     1       4.800  -5.398  13.429  0.00  0.00    +0.112 C 
ATOM     33  C   UNL     1       4.458  -7.151  11.813  0.00  0.00    +0.112 C 
ATOM     35  C   UNL     1       5.969  -6.194  14.002  0.00  0.00    +0.175 C 
ATOM     36  C   UNL     1       5.635  -7.906  12.426  0.00  0.00    +0.175 C 
ENDBRANCH  27   8
ENDBRANCH  26  27
ENDBRANCH   7  26
ENDBRANCH  20  23
ENDBRANCH  15  20
TORSDOF 9
ENDMDL
