MODEL 1
REMARK VINA RESULT:      10.4      0.000      0.000
REMARK  Name = 11911729
REMARK  9 active torsions:
REMARK  status: ('A' for Active; 'I' for Inactive)
REMARK    1  A    between atoms: S_1  and  N_6
REMARK    2  A    between atoms: S_1  and  C_19
REMARK    3  A    between atoms: N_6  and  C_14
REMARK    4  A    between atoms: N_7  and  C_15
REMARK    5  A    between atoms: N_11  and  C_34
REMARK    6  A    between atoms: N_11  and  C_35
REMARK    7  A    between atoms: N_11  and  C_36
REMARK    8  A    between atoms: C_20  and  C_29
REMARK    9  A    between atoms: C_22  and  C_28
REMARK                            x       y       z     vdW  Elec       q    Type
REMARK                         _______ _______ _______ _____ _____    ______ ____
ROOT
ATOM      2  O   UNL     1      -2.239  -1.560  25.990  0.00  0.00    -0.370 OA
ATOM      3  O   UNL     1      -2.981  -1.503  22.960  0.00  0.00    -0.370 OA
ATOM     12  C   UNL     1      -1.984  -0.825  23.742  0.00  0.00    +0.170 C 
ATOM     13  C   UNL     1      -2.607  -0.504  25.086  0.00  0.00    +0.171 C 
ATOM     14  C   UNL     1      -0.850  -1.767  24.078  0.00  0.00    +0.133 C 
ATOM     15  C   UNL     1      -4.093  -0.534  24.823  0.00  0.00    +0.130 C 
ATOM     16  C   UNL     1      -1.375  -2.481  25.310  0.00  0.00    +0.183 C 
ATOM     17  C   UNL     1      -4.210  -1.548  23.698  0.00  0.00    +0.185 C 
ENDROOT
BRANCH  15   7
ATOM      7  N   UNL     1      -4.544   0.765  24.373  0.00  0.00    -0.306 N 
ATOM      8  N   UNL     1      -2.818   1.878  25.508  0.00  0.00    -0.214 NA
ATOM      9  N   UNL     1      -4.441   3.103  24.216  0.00  0.00    -0.223 NA
ATOM     18  C   UNL     1      -3.915   1.950  24.709  0.00  0.00    +0.216 A 
ATOM     22  C   UNL     1      -2.231   3.053  25.816  0.00  0.00    +0.076 A 
ATOM     23  C   UNL     1      -3.805   4.241  24.564  0.00  0.00    +0.116 A 
ATOM     26  C   UNL     1      -2.684   4.277  25.368  0.00  0.00    +0.048 A 
ATOM     38  H   UNL     1      -5.329   0.826  23.734  0.00  0.00    +0.149 HD
BRANCH  22  28
ATOM     28  C   UNL     1      -1.068   2.952  26.664  0.00  0.00    +0.001 A 
ATOM     30  C   UNL     1       0.202   2.809  26.100  0.00  0.00    +0.012 A 
ATOM     31  C   UNL     1      -1.207   2.996  28.054  0.00  0.00    +0.012 A 
ATOM     32  C   UNL     1       1.325   2.709  26.920  0.00  0.00    +0.024 A 
ATOM     33  C   UNL     1      -0.083   2.898  28.873  0.00  0.00    +0.024 A 
ATOM     34  C   UNL     1       1.183   2.753  28.306  0.00  0.00    +0.029 A 
BRANCH  34  11
ATOM     11  N   UNL     1       2.320   2.654  29.136  0.00  0.00    -0.336 N 
ATOM     35  C   UNL     1       2.290   1.827  30.326  0.00  0.00    +0.129 C 
ATOM     36  C   UNL     1       3.528   3.388  28.817  0.00  0.00    +0.129 C 
ENDBRANCH  34  11
ENDBRANCH  22  28
ENDBRANCH  15   7
BRANCH  14   6
ATOM      6  N   UNL     1       0.362  -1.040  24.371  0.00  0.00    -0.182 NA
ATOM     37  H   UNL     1       0.644  -0.939  25.353  0.00  0.00    +0.148 HD
BRANCH   6   1
ATOM      1  S   UNL     1       1.079  -0.074  23.172  0.00  0.00    +0.060 S 
ATOM      4  O   UNL     1       0.868   1.325  23.491  0.00  0.00    -0.153 OA
ATOM      5  O   UNL     1       0.708  -0.591  21.870  0.00  0.00    -0.153 OA
BRANCH   1  19
ATOM     19  C   UNL     1       2.796  -0.430  23.397  0.00  0.00    +0.123 A 
ATOM     20  C   UNL     1       3.770   0.523  23.139  0.00  0.00    +0.078 A 
ATOM     21  C   UNL     1       3.138  -1.700  23.841  0.00  0.00    +0.030 A 
ATOM     24  C   UNL     1       5.114   0.201  23.326  0.00  0.00    +0.021 A 
ATOM     25  C   UNL     1       4.482  -2.023  24.029  0.00  0.00    +0.002 A 
ATOM     27  C   UNL     1       5.470  -1.073  23.772  0.00  0.00    +0.001 A 
BRANCH  20  29
ATOM     10  N   UNL     1       3.174   2.903  22.304  0.00  0.00    -0.191 NA
ATOM     29  C   UNL     1       3.440   1.839  22.678  0.00  0.00    +0.101 C 
ENDBRANCH  20  29
ENDBRANCH   1  19
ENDBRANCH   6   1
ENDBRANCH  14   6
TORSDOF 7
ENDMDL
MODEL 2
REMARK VINA RESULT:      10.5      1.641      2.148
REMARK  Name = 11911729
REMARK  9 active torsions:
REMARK  status: ('A' for Active; 'I' for Inactive)
REMARK    1  A    between atoms: S_1  and  N_6
REMARK    2  A    between atoms: S_1  and  C_19
REMARK    3  A    between atoms: N_6  and  C_14
REMARK    4  A    between atoms: N_7  and  C_15
REMARK    5  A    between atoms: N_11  and  C_34
REMARK    6  A    between atoms: N_11  and  C_35
REMARK    7  A    between atoms: N_11  and  C_36
REMARK    8  A    between atoms: C_20  and  C_29
REMARK    9  A    between atoms: C_22  and  C_28
REMARK                            x       y       z     vdW  Elec       q    Type
REMARK                         _______ _______ _______ _____ _____    ______ ____
ROOT
ATOM      2  O   UNL     1      -3.190  -1.227  26.083  0.00  0.00    -0.370 OA
ATOM      3  O   UNL     1      -4.881  -1.387  23.466  0.00  0.00    -0.370 OA
ATOM     12  C   UNL     1      -3.509  -1.052  23.732  0.00  0.00    +0.170 C 
ATOM     13  C   UNL     1      -3.478  -0.282  25.037  0.00  0.00    +0.171 C 
ATOM     14  C   UNL     1      -2.711  -2.303  24.023  0.00  0.00    +0.133 C 
ATOM     15  C   UNL     1      -4.882   0.252  25.186  0.00  0.00    +0.130 C 
ATOM     16  C   UNL     1      -2.977  -2.521  25.502  0.00  0.00    +0.183 C 
ATOM     17  C   UNL     1      -5.715  -0.800  24.476  0.00  0.00    +0.185 C 
ENDROOT
BRANCH  15   7
ATOM      7  N   UNL     1      -5.003   1.525  24.509  0.00  0.00    -0.306 N 
ATOM      8  N   UNL     1      -3.037   2.355  25.486  0.00  0.00    -0.214 NA
ATOM      9  N   UNL     1      -4.325   3.703  23.960  0.00  0.00    -0.223 NA
ATOM     18  C   UNL     1      -4.094   2.558  24.656  0.00  0.00    +0.216 A 
ATOM     22  C   UNL     1      -2.172   3.383  25.606  0.00  0.00    +0.076 A 
ATOM     23  C   UNL     1      -3.420   4.690  24.127  0.00  0.00    +0.116 A 
ATOM     26  C   UNL     1      -2.313   4.585  24.944  0.00  0.00    +0.048 A 
ATOM     38  H   UNL     1      -5.758   1.668  23.848  0.00  0.00    +0.149 HD
BRANCH  22  28
ATOM     28  C   UNL     1      -1.057   3.145  26.491  0.00  0.00    +0.001 A 
ATOM     30  C   UNL     1      -1.256   3.093  27.872  0.00  0.00    +0.012 A 
ATOM     31  C   UNL     1       0.228   2.968  25.970  0.00  0.00    +0.012 A 
ATOM     32  C   UNL     1      -0.178   2.865  28.727  0.00  0.00    +0.024 A 
ATOM     33  C   UNL     1       1.305   2.740  26.825  0.00  0.00    +0.024 A 
ATOM     34  C   UNL     1       1.102   2.689  28.203  0.00  0.00    +0.029 A 
BRANCH  34  11
ATOM     11  N   UNL     1       2.192   2.458  29.069  0.00  0.00    -0.336 N 
ATOM     35  C   UNL     1       1.973   1.925  30.399  0.00  0.00    +0.129 C 
ATOM     36  C   UNL     1       3.544   2.765  28.646  0.00  0.00    +0.129 C 
ENDBRANCH  34  11
ENDBRANCH  22  28
ENDBRANCH  15   7
BRANCH  14   6
ATOM      6  N   UNL     1      -1.306  -2.096  23.769  0.00  0.00    -0.182 NA
ATOM     37  H   UNL     1      -0.893  -2.524  22.932  0.00  0.00    +0.148 HD
BRANCH   6   1
ATOM      1  S   UNL     1      -0.305  -1.489  24.999  0.00  0.00    +0.060 S 
ATOM      4  O   UNL     1       0.169  -2.586  25.820  0.00  0.00    -0.153 OA
ATOM      5  O   UNL     1      -0.956  -0.347  25.612  0.00  0.00    -0.153 OA
BRANCH   1  19
ATOM     19  C   UNL     1       1.069  -0.865  24.078  0.00  0.00    +0.123 A 
ATOM     20  C   UNL     1       0.939   0.239  23.249  0.00  0.00    +0.078 A 
ATOM     21  C   UNL     1       2.285  -1.523  24.211  0.00  0.00    +0.030 A 
ATOM     24  C   UNL     1       2.048   0.697  22.537  0.00  0.00    +0.021 A 
ATOM     25  C   UNL     1       3.393  -1.065  23.499  0.00  0.00    +0.002 A 
ATOM     27  C   UNL     1       3.275   0.045  22.662  0.00  0.00    +0.001 A 
BRANCH  20  29
ATOM     10  N   UNL     1      -1.313   1.490  22.969  0.00  0.00    -0.191 NA
ATOM     29  C   UNL     1      -0.305   0.930  23.095  0.00  0.00    +0.101 C 
ENDBRANCH  20  29
ENDBRANCH   1  19
ENDBRANCH   6   1
ENDBRANCH  14   6
TORSDOF 7
ENDMDL
MODEL 3
REMARK VINA RESULT:      10.8      2.519      5.336
REMARK  Name = 11911729
REMARK  9 active torsions:
REMARK  status: ('A' for Active; 'I' for Inactive)
REMARK    1  A    between atoms: S_1  and  N_6
REMARK    2  A    between atoms: S_1  and  C_19
REMARK    3  A    between atoms: N_6  and  C_14
REMARK    4  A    between atoms: N_7  and  C_15
REMARK    5  A    between atoms: N_11  and  C_34
REMARK    6  A    between atoms: N_11  and  C_35
REMARK    7  A    between atoms: N_11  and  C_36
REMARK    8  A    between atoms: C_20  and  C_29
REMARK    9  A    between atoms: C_22  and  C_28
REMARK                            x       y       z     vdW  Elec       q    Type
REMARK                         _______ _______ _______ _____ _____    ______ ____
ROOT
ATOM      2  O   UNL     1      -1.081   3.041  23.161  0.00  0.00    -0.370 OA
ATOM      3  O   UNL     1      -0.686   4.626  25.820  0.00  0.00    -0.370 OA
ATOM     12  C   UNL     1      -1.045   3.265  25.529  0.00  0.00    +0.170 C 
ATOM     13  C   UNL     1      -1.928   3.284  24.298  0.00  0.00    +0.171 C 
ATOM     14  C   UNL     1       0.174   2.482  25.096  0.00  0.00    +0.133 C 
ATOM     15  C   UNL     1      -2.472   4.692  24.254  0.00  0.00    +0.130 C 
ATOM     16  C   UNL     1       0.260   2.808  23.616  0.00  0.00    +0.183 C 
ATOM     17  C   UNL     1      -1.360   5.498  24.900  0.00  0.00    +0.185 C 
ENDROOT
BRANCH  15   7
ATOM      7  N   UNL     1      -3.680   4.782  25.046  0.00  0.00    -0.306 N 
ATOM      8  N   UNL     1      -3.995   2.456  25.030  0.00  0.00    -0.214 NA
ATOM      9  N   UNL     1      -5.541   3.907  26.174  0.00  0.00    -0.223 NA
ATOM     18  C   UNL     1      -4.427   3.683  25.428  0.00  0.00    +0.216 A 
ATOM     22  C   UNL     1      -4.747   1.407  25.420  0.00  0.00    +0.076 A 
ATOM     23  C   UNL     1      -6.246   2.813  26.530  0.00  0.00    +0.116 A 
ATOM     26  C   UNL     1      -5.893   1.526  26.179  0.00  0.00    +0.048 A 
ATOM     38  H   UNL     1      -3.981   5.685  25.392  0.00  0.00    +0.149 HD
BRANCH  22  28
ATOM     28  C   UNL     1      -4.269   0.116  24.987  0.00  0.00    +0.001 A 
ATOM     30  C   UNL     1      -3.633  -0.736  25.893  0.00  0.00    +0.012 A 
ATOM     31  C   UNL     1      -4.439  -0.286  23.660  0.00  0.00    +0.012 A 
ATOM     32  C   UNL     1      -3.170  -1.983  25.473  0.00  0.00    +0.024 A 
ATOM     33  C   UNL     1      -3.976  -1.533  23.241  0.00  0.00    +0.024 A 
ATOM     34  C   UNL     1      -3.341  -2.381  24.148  0.00  0.00    +0.029 A 
BRANCH  34  11
ATOM     11  N   UNL     1      -2.872  -3.643  23.724  0.00  0.00    -0.336 N 
ATOM     35  C   UNL     1      -1.461  -3.853  23.470  0.00  0.00    +0.129 C 
ATOM     36  C   UNL     1      -3.797  -4.740  23.523  0.00  0.00    +0.129 C 
ENDBRANCH  34  11
ENDBRANCH  22  28
ENDBRANCH  15   7
BRANCH  14   6
ATOM      6  N   UNL     1      -0.011   1.068  25.311  0.00  0.00    -0.182 NA
ATOM     37  H   UNL     1       0.044   0.709  26.271  0.00  0.00    +0.148 HD
BRANCH   6   1
ATOM      1  S   UNL     1       0.055  -0.003  23.994  0.00  0.00    +0.060 S 
ATOM      4  O   UNL     1      -0.878   0.430  22.973  0.00  0.00    -0.153 OA
ATOM      5  O   UNL     1       0.010  -1.364  24.495  0.00  0.00    -0.153 OA
BRANCH   1  19
ATOM     19  C   UNL     1       1.693   0.268  23.386  0.00  0.00    +0.123 A 
ATOM     20  C   UNL     1       2.036  -0.039  22.078  0.00  0.00    +0.078 A 
ATOM     21  C   UNL     1       2.627   0.799  24.266  0.00  0.00    +0.030 A 
ATOM     24  C   UNL     1       3.341   0.188  21.639  0.00  0.00    +0.021 A 
ATOM     25  C   UNL     1       3.931   1.026  23.826  0.00  0.00    +0.002 A 
ATOM     27  C   UNL     1       4.288   0.721  22.513  0.00  0.00    +0.001 A 
BRANCH  20  29
ATOM     10  N   UNL     1       0.324  -1.036  20.407  0.00  0.00    -0.191 NA
ATOM     29  C   UNL     1       1.090  -0.590  21.155  0.00  0.00    +0.101 C 
ENDBRANCH  20  29
ENDBRANCH   1  19
ENDBRANCH   6   1
ENDBRANCH  14   6
TORSDOF 7
ENDMDL
MODEL 4
REMARK VINA RESULT:      12.3      2.656      5.399
REMARK  Name = 11911729
REMARK  9 active torsions:
REMARK  status: ('A' for Active; 'I' for Inactive)
REMARK    1  A    between atoms: S_1  and  N_6
REMARK    2  A    between atoms: S_1  and  C_19
REMARK    3  A    between atoms: N_6  and  C_14
REMARK    4  A    between atoms: N_7  and  C_15
REMARK    5  A    between atoms: N_11  and  C_34
REMARK    6  A    between atoms: N_11  and  C_35
REMARK    7  A    between atoms: N_11  and  C_36
REMARK    8  A    between atoms: C_20  and  C_29
REMARK    9  A    between atoms: C_22  and  C_28
REMARK                            x       y       z     vdW  Elec       q    Type
REMARK                         _______ _______ _______ _____ _____    ______ ____
ROOT
ATOM      2  O   UNL     1      -3.096   3.046  21.998  0.00  0.00    -0.370 OA
ATOM      3  O   UNL     1      -1.912   4.059  24.701  0.00  0.00    -0.370 OA
ATOM     12  C   UNL     1      -2.472   2.804  24.281  0.00  0.00    +0.170 C 
ATOM     13  C   UNL     1      -3.617   3.115  23.336  0.00  0.00    +0.171 C 
ATOM     14  C   UNL     1      -1.483   2.048  23.424  0.00  0.00    +0.133 C 
ATOM     15  C   UNL     1      -4.002   4.535  23.676  0.00  0.00    +0.130 C 
ATOM     16  C   UNL     1      -1.718   2.648  22.049  0.00  0.00    +0.183 C 
ATOM     17  C   UNL     1      -2.688   5.132  24.147  0.00  0.00    +0.185 C 
ENDROOT
BRANCH  15   7
ATOM      7  N   UNL     1      -4.969   4.543  24.752  0.00  0.00    -0.306 N 
ATOM      8  N   UNL     1      -4.849   2.215  25.024  0.00  0.00    -0.214 NA
ATOM      9  N   UNL     1      -6.298   3.550  26.410  0.00  0.00    -0.223 NA
ATOM     18  C   UNL     1      -5.384   3.402  25.415  0.00  0.00    +0.216 A 
ATOM     22  C   UNL     1      -5.276   1.124  25.692  0.00  0.00    +0.076 A 
ATOM     23  C   UNL     1      -6.681   2.418  27.036  0.00  0.00    +0.116 A 
ATOM     26  C   UNL     1      -6.198   1.165  26.717  0.00  0.00    +0.048 A 
ATOM     38  H   UNL     1      -5.334   5.427  25.086  0.00  0.00    +0.149 HD
BRANCH  22  28
ATOM     28  C   UNL     1      -4.694  -0.124  25.261  0.00  0.00    +0.001 A 
ATOM     30  C   UNL     1      -3.928  -0.885  26.148  0.00  0.00    +0.012 A 
ATOM     31  C   UNL     1      -4.893  -0.577  23.955  0.00  0.00    +0.012 A 
ATOM     32  C   UNL     1      -3.364  -2.090  25.730  0.00  0.00    +0.024 A 
ATOM     33  C   UNL     1      -4.330  -1.783  23.538  0.00  0.00    +0.024 A 
ATOM     34  C   UNL     1      -3.565  -2.539  24.425  0.00  0.00    +0.029 A 
BRANCH  34  11
ATOM     11  N   UNL     1      -2.995  -3.759  24.004  0.00  0.00    -0.336 N 
ATOM     35  C   UNL     1      -1.592  -4.035  24.246  0.00  0.00    +0.129 C 
ATOM     36  C   UNL     1      -3.799  -4.744  23.311  0.00  0.00    +0.129 C 
ENDBRANCH  34  11
ENDBRANCH  22  28
ENDBRANCH  15   7
BRANCH  14   6
ATOM      6  N   UNL     1      -1.762   0.633  23.431  0.00  0.00    -0.182 NA
ATOM     37  H   UNL     1      -2.721   0.323  23.235  0.00  0.00    +0.148 HD
BRANCH   6   1
ATOM      1  S   UNL     1      -0.638  -0.447  24.106  0.00  0.00    +0.060 S 
ATOM      4  O   UNL     1      -0.863  -1.776  23.568  0.00  0.00    -0.153 OA
ATOM      5  O   UNL     1      -0.591  -0.238  25.540  0.00  0.00    -0.153 OA
BRANCH   1  19
ATOM     19  C   UNL     1       0.888   0.155  23.447  0.00  0.00    +0.123 A 
ATOM     20  C   UNL     1       1.514   1.270  23.983  0.00  0.00    +0.078 A 
ATOM     21  C   UNL     1       1.438  -0.527  22.370  0.00  0.00    +0.030 A 
ATOM     24  C   UNL     1       2.717   1.714  23.431  0.00  0.00    +0.021 A 
ATOM     25  C   UNL     1       2.640  -0.083  21.819  0.00  0.00    +0.002 A 
ATOM     27  C   UNL     1       3.280   1.037  22.349  0.00  0.00    +0.001 A 
BRANCH  20  29
ATOM     10  N   UNL     1       0.518   2.574  25.989  0.00  0.00    -0.191 NA
ATOM     29  C   UNL     1       0.964   1.990  25.092  0.00  0.00    +0.101 C 
ENDBRANCH  20  29
ENDBRANCH   1  19
ENDBRANCH   6   1
ENDBRANCH  14   6
TORSDOF 7
ENDMDL
MODEL 5
REMARK VINA RESULT:      12.4      2.871      6.188
REMARK  Name = 11911729
REMARK  9 active torsions:
REMARK  status: ('A' for Active; 'I' for Inactive)
REMARK    1  A    between atoms: S_1  and  N_6
REMARK    2  A    between atoms: S_1  and  C_19
REMARK    3  A    between atoms: N_6  and  C_14
REMARK    4  A    between atoms: N_7  and  C_15
REMARK    5  A    between atoms: N_11  and  C_34
REMARK    6  A    between atoms: N_11  and  C_35
REMARK    7  A    between atoms: N_11  and  C_36
REMARK    8  A    between atoms: C_20  and  C_29
REMARK    9  A    between atoms: C_22  and  C_28
REMARK                            x       y       z     vdW  Elec       q    Type
REMARK                         _______ _______ _______ _____ _____    ______ ____
ROOT
ATOM      2  O   UNL     1      -3.816   2.919  23.722  0.00  0.00    -0.370 OA
ATOM      3  O   UNL     1      -6.657   2.085  24.707  0.00  0.00    -0.370 OA
ATOM     12  C   UNL     1      -5.456   2.483  25.389  0.00  0.00    +0.170 C 
ATOM     13  C   UNL     1      -4.287   1.900  24.621  0.00  0.00    +0.171 C 
ATOM     14  C   UNL     1      -5.260   3.978  25.278  0.00  0.00    +0.133 C 
ATOM     15  C   UNL     1      -4.888   0.753  23.844  0.00  0.00    +0.130 C 
ATOM     16  C   UNL     1      -4.577   4.117  23.930  0.00  0.00    +0.183 C 
ATOM     17  C   UNL     1      -6.314   1.221  23.613  0.00  0.00    +0.185 C 
ENDROOT
BRANCH  15   7
ATOM      7  N   UNL     1      -4.880  -0.450  24.648  0.00  0.00    -0.306 N 
ATOM      8  N   UNL     1      -2.566  -0.740  24.387  0.00  0.00    -0.214 NA
ATOM      9  N   UNL     1      -3.870  -2.293  25.689  0.00  0.00    -0.223 NA
ATOM     18  C   UNL     1      -3.739  -1.182  24.916  0.00  0.00    +0.216 A 
ATOM     22  C   UNL     1      -1.474  -1.479  24.668  0.00  0.00    +0.076 A 
ATOM     23  C   UNL     1      -2.737  -2.985  25.930  0.00  0.00    +0.116 A 
ATOM     26  C   UNL     1      -1.498  -2.621  25.442  0.00  0.00    +0.048 A 
ATOM     38  H   UNL     1      -5.739  -0.758  25.091  0.00  0.00    +0.149 HD
BRANCH  22  28
ATOM     28  C   UNL     1      -0.241  -0.991  24.097  0.00  0.00    +0.001 A 
ATOM     30  C   UNL     1       0.969  -1.618  24.402  0.00  0.00    +0.012 A 
ATOM     31  C   UNL     1      -0.253   0.111  23.239  0.00  0.00    +0.012 A 
ATOM     32  C   UNL     1       2.160  -1.144  23.851  0.00  0.00    +0.024 A 
ATOM     33  C   UNL     1       0.937   0.584  22.689  0.00  0.00    +0.024 A 
ATOM     34  C   UNL     1       2.144  -0.044  22.996  0.00  0.00    +0.029 A 
BRANCH  34  11
ATOM     11  N   UNL     1       3.349   0.434  22.439  0.00  0.00    -0.336 N 
ATOM     35  C   UNL     1       3.490   0.573  21.003  0.00  0.00    +0.129 C 
ATOM     36  C   UNL     1       4.468   0.778  23.293  0.00  0.00    +0.129 C 
ENDBRANCH  34  11
ENDBRANCH  22  28
ENDBRANCH  15   7
BRANCH  14   6
ATOM      6  N   UNL     1      -4.423   4.474  26.343  0.00  0.00    -0.182 NA
ATOM     37  H   UNL     1      -4.512   5.461  26.614  0.00  0.00    +0.148 HD
BRANCH   6   1
ATOM      1  S   UNL     1      -3.088   3.563  26.863  0.00  0.00    +0.060 S 
ATOM      4  O   UNL     1      -3.324   2.159  26.583  0.00  0.00    -0.153 OA
ATOM      5  O   UNL     1      -2.722   3.989  28.200  0.00  0.00    -0.153 OA
BRANCH   1  19
ATOM     19  C   UNL     1      -1.814   4.128  25.776  0.00  0.00    +0.123 A 
ATOM     20  C   UNL     1      -0.704   3.346  25.498  0.00  0.00    +0.078 A 
ATOM     21  C   UNL     1      -1.963   5.387  25.209  0.00  0.00    +0.030 A 
ATOM     24  C   UNL     1       0.281   3.831  24.636  0.00  0.00    +0.021 A 
ATOM     25  C   UNL     1      -0.980   5.872  24.347  0.00  0.00    +0.002 A 
ATOM     27  C   UNL     1       0.142   5.094  24.060  0.00  0.00    +0.001 A 
BRANCH  20  29
ATOM     10  N   UNL     1      -0.384   0.995  26.541  0.00  0.00    -0.191 NA
ATOM     29  C   UNL     1      -0.527   2.047  26.074  0.00  0.00    +0.101 C 
ENDBRANCH  20  29
ENDBRANCH   1  19
ENDBRANCH   6   1
ENDBRANCH  14   6
TORSDOF 7
ENDMDL
MODEL 6
REMARK VINA RESULT:      12.5      2.941      5.778
REMARK  Name = 11911729
REMARK  9 active torsions:
REMARK  status: ('A' for Active; 'I' for Inactive)
REMARK    1  A    between atoms: S_1  and  N_6
REMARK    2  A    between atoms: S_1  and  C_19
REMARK    3  A    between atoms: N_6  and  C_14
REMARK    4  A    between atoms: N_7  and  C_15
REMARK    5  A    between atoms: N_11  and  C_34
REMARK    6  A    between atoms: N_11  and  C_35
REMARK    7  A    between atoms: N_11  and  C_36
REMARK    8  A    between atoms: C_20  and  C_29
REMARK    9  A    between atoms: C_22  and  C_28
REMARK                            x       y       z     vdW  Elec       q    Type
REMARK                         _______ _______ _______ _____ _____    ______ ____
ROOT
ATOM      2  O   UNL     1      -3.751   2.488  23.408  0.00  0.00    -0.370 OA
ATOM      3  O   UNL     1      -6.430   1.883  24.889  0.00  0.00    -0.370 OA
ATOM     12  C   UNL     1      -5.116   2.251  25.342  0.00  0.00    +0.170 C 
ATOM     13  C   UNL     1      -4.117   1.555  24.438  0.00  0.00    +0.171 C 
ATOM     14  C   UNL     1      -4.869   3.723  25.098  0.00  0.00    +0.133 C 
ATOM     15  C   UNL     1      -4.891   0.401  23.849  0.00  0.00    +0.130 C 
ATOM     16  C   UNL     1      -4.410   3.740  23.651  0.00  0.00    +0.183 C 
ATOM     17  C   UNL     1      -6.312   0.936  23.818  0.00  0.00    +0.185 C 
ENDROOT
BRANCH  15   7
ATOM      7  N   UNL     1      -4.809  -0.749  24.723  0.00  0.00    -0.306 N 
ATOM      8  N   UNL     1      -2.490  -0.949  24.424  0.00  0.00    -0.214 NA
ATOM      9  N   UNL     1      -3.691  -2.478  25.847  0.00  0.00    -0.223 NA
ATOM     18  C   UNL     1      -3.628  -1.411  25.007  0.00  0.00    +0.216 A 
ATOM     22  C   UNL     1      -1.358  -1.619  24.722  0.00  0.00    +0.076 A 
ATOM     23  C   UNL     1      -2.521  -3.101  26.101  0.00  0.00    +0.116 A 
ATOM     26  C   UNL     1      -1.312  -2.712  25.563  0.00  0.00    +0.048 A 
ATOM     38  H   UNL     1      -5.642  -1.069  25.204  0.00  0.00    +0.149 HD
BRANCH  22  28
ATOM     28  C   UNL     1      -0.162  -1.110  24.093  0.00  0.00    +0.001 A 
ATOM     30  C   UNL     1       1.094  -1.538  24.527  0.00  0.00    +0.012 A 
ATOM     31  C   UNL     1      -0.257  -0.186  23.050  0.00  0.00    +0.012 A 
ATOM     32  C   UNL     1       2.249  -1.044  23.920  0.00  0.00    +0.024 A 
ATOM     33  C   UNL     1       0.898   0.306  22.443  0.00  0.00    +0.024 A 
ATOM     34  C   UNL     1       2.151  -0.122  22.879  0.00  0.00    +0.029 A 
BRANCH  34  11
ATOM     11  N   UNL     1       3.320   0.376  22.266  0.00  0.00    -0.336 N 
ATOM     35  C   UNL     1       3.407   0.471  20.822  0.00  0.00    +0.129 C 
ATOM     36  C   UNL     1       4.454   0.784  23.069  0.00  0.00    +0.129 C 
ENDBRANCH  34  11
ENDBRANCH  22  28
ENDBRANCH  15   7
BRANCH  14   6
ATOM      6  N   UNL     1      -3.846   4.233  25.978  0.00  0.00    -0.182 NA
ATOM     37  H   UNL     1      -4.060   4.314  26.979  0.00  0.00    +0.148 HD
BRANCH   6   1
ATOM      1  S   UNL     1      -2.487   5.017  25.329  0.00  0.00    +0.060 S 
ATOM      4  O   UNL     1      -2.098   6.108  26.202  0.00  0.00    -0.153 OA
ATOM      5  O   UNL     1      -2.714   5.258  23.917  0.00  0.00    -0.153 OA
BRANCH   1  19
ATOM     19  C   UNL     1      -1.250   3.760  25.445  0.00  0.00    +0.123 A 
ATOM     20  C   UNL     1      -0.174   3.725  24.571  0.00  0.00    +0.078 A 
ATOM     21  C   UNL     1      -1.395   2.804  26.441  0.00  0.00    +0.030 A 
ATOM     24  C   UNL     1       0.779   2.713  24.695  0.00  0.00    +0.021 A 
ATOM     25  C   UNL     1      -0.443   1.793  26.566  0.00  0.00    +0.002 A 
ATOM     27  C   UNL     1       0.645   1.747  25.693  0.00  0.00    +0.001 A 
BRANCH  20  29
ATOM     10  N   UNL     1       0.130   5.486  22.695  0.00  0.00    -0.191 NA
ATOM     29  C   UNL     1      -0.006   4.698  23.534  0.00  0.00    +0.101 C 
ENDBRANCH  20  29
ENDBRANCH   1  19
ENDBRANCH   6   1
ENDBRANCH  14   6
TORSDOF 7
ENDMDL
MODEL 7
REMARK VINA RESULT:      13.0      2.205      5.650
REMARK  Name = 11911729
REMARK  9 active torsions:
REMARK  status: ('A' for Active; 'I' for Inactive)
REMARK    1  A    between atoms: S_1  and  N_6
REMARK    2  A    between atoms: S_1  and  C_19
REMARK    3  A    between atoms: N_6  and  C_14
REMARK    4  A    between atoms: N_7  and  C_15
REMARK    5  A    between atoms: N_11  and  C_34
REMARK    6  A    between atoms: N_11  and  C_35
REMARK    7  A    between atoms: N_11  and  C_36
REMARK    8  A    between atoms: C_20  and  C_29
REMARK    9  A    between atoms: C_22  and  C_28
REMARK                            x       y       z     vdW  Elec       q    Type
REMARK                         _______ _______ _______ _____ _____    ______ ____
ROOT
ATOM      2  O   UNL     1      -2.737   3.124  23.777  0.00  0.00    -0.370 OA
ATOM      3  O   UNL     1      -5.289   2.941  25.564  0.00  0.00    -0.370 OA
ATOM     12  C   UNL     1      -3.903   2.635  25.792  0.00  0.00    +0.170 C 
ATOM     13  C   UNL     1      -3.353   2.049  24.507  0.00  0.00    +0.171 C 
ATOM     14  C   UNL     1      -3.109   3.907  25.986  0.00  0.00    +0.133 C 
ATOM     15  C   UNL     1      -4.575   1.551  23.773  0.00  0.00    +0.130 C 
ATOM     16  C   UNL     1      -2.813   4.326  24.558  0.00  0.00    +0.183 C 
ATOM     17  C   UNL     1      -5.658   2.505  24.247  0.00  0.00    +0.185 C 
ENDROOT
BRANCH  15   7
ATOM      7  N   UNL     1      -4.885   0.199  24.185  0.00  0.00    -0.306 N 
ATOM      8  N   UNL     1      -2.639  -0.471  24.054  0.00  0.00    -0.214 NA
ATOM      9  N   UNL     1      -4.358  -2.023  24.721  0.00  0.00    -0.223 NA
ATOM     18  C   UNL     1      -3.932  -0.794  24.325  0.00  0.00    +0.216 A 
ATOM     22  C   UNL     1      -1.738  -1.464  24.200  0.00  0.00    +0.076 A 
ATOM     23  C   UNL     1      -3.403  -2.969  24.846  0.00  0.00    +0.116 A 
ATOM     26  C   UNL     1      -2.064  -2.744  24.598  0.00  0.00    +0.048 A 
ATOM     38  H   UNL     1      -5.837  -0.038  24.440  0.00  0.00    +0.149 HD
BRANCH  22  28
ATOM     28  C   UNL     1      -0.372  -1.099  23.909  0.00  0.00    +0.001 A 
ATOM     30  C   UNL     1      -0.097  -0.117  22.954  0.00  0.00    +0.012 A 
ATOM     31  C   UNL     1       0.680  -1.726  24.580  0.00  0.00    +0.012 A 
ATOM     32  C   UNL     1       1.223   0.234  22.672  0.00  0.00    +0.024 A 
ATOM     33  C   UNL     1       1.999  -1.374  24.298  0.00  0.00    +0.024 A 
ATOM     34  C   UNL     1       2.271  -0.395  23.343  0.00  0.00    +0.029 A 
BRANCH  34  11
ATOM     11  N   UNL     1       3.606  -0.039  23.058  0.00  0.00    -0.336 N 
ATOM     35  C   UNL     1       4.704  -0.804  23.613  0.00  0.00    +0.129 C 
ATOM     36  C   UNL     1       3.897   1.106  22.218  0.00  0.00    +0.129 C 
ENDBRANCH  34  11
ENDBRANCH  22  28
ENDBRANCH  15   7
BRANCH  14   6
ATOM      6  N   UNL     1      -1.893   3.655  26.721  0.00  0.00    -0.182 NA
ATOM     37  H   UNL     1      -1.851   3.942  27.706  0.00  0.00    +0.148 HD
BRANCH   6   1
ATOM      1  S   UNL     1      -0.470   3.250  25.888  0.00  0.00    +0.060 S 
ATOM      4  O   UNL     1       0.038   4.424  25.204  0.00  0.00    -0.153 OA
ATOM      5  O   UNL     1      -0.691   2.017  25.157  0.00  0.00    -0.153 OA
BRANCH   1  19
ATOM     19  C   UNL     1       0.634   2.872  27.215  0.00  0.00    +0.123 A 
ATOM     20  C   UNL     1       0.581   1.652  27.871  0.00  0.00    +0.078 A 
ATOM     21  C   UNL     1       1.559   3.842  27.579  0.00  0.00    +0.030 A 
ATOM     24  C   UNL     1       1.470   1.395  28.916  0.00  0.00    +0.021 A 
ATOM     25  C   UNL     1       2.447   3.585  28.623  0.00  0.00    +0.002 A 
ATOM     27  C   UNL     1       2.403   2.361  29.292  0.00  0.00    +0.001 A 
BRANCH  20  29
ATOM     10  N   UNL     1      -1.132  -0.183  27.225  0.00  0.00    -0.191 NA
ATOM     29  C   UNL     1      -0.366   0.639  27.514  0.00  0.00    +0.101 C 
ENDBRANCH  20  29
ENDBRANCH   1  19
ENDBRANCH   6   1
ENDBRANCH  14   6
TORSDOF 7
ENDMDL
MODEL 8
REMARK VINA RESULT:      13.0      3.266      6.089
REMARK  Name = 11911729
REMARK  9 active torsions:
REMARK  status: ('A' for Active; 'I' for Inactive)
REMARK    1  A    between atoms: S_1  and  N_6
REMARK    2  A    between atoms: S_1  and  C_19
REMARK    3  A    between atoms: N_6  and  C_14
REMARK    4  A    between atoms: N_7  and  C_15
REMARK    5  A    between atoms: N_11  and  C_34
REMARK    6  A    between atoms: N_11  and  C_35
REMARK    7  A    between atoms: N_11  and  C_36
REMARK    8  A    between atoms: C_20  and  C_29
REMARK    9  A    between atoms: C_22  and  C_28
REMARK                            x       y       z     vdW  Elec       q    Type
REMARK                         _______ _______ _______ _____ _____    ______ ____
ROOT
ATOM      2  O   UNL     1      -1.489   3.623  23.287  0.00  0.00    -0.370 OA
ATOM      3  O   UNL     1      -2.014   6.339  24.732  0.00  0.00    -0.370 OA
ATOM     12  C   UNL     1      -1.582   5.047  25.190  0.00  0.00    +0.170 C 
ATOM     13  C   UNL     1      -2.335   4.007  24.384  0.00  0.00    +0.171 C 
ATOM     14  C   UNL     1      -0.133   4.817  24.825  0.00  0.00    +0.133 C 
ATOM     15  C   UNL     1      -3.551   4.742  23.875  0.00  0.00    +0.130 C 
ATOM     16  C   UNL     1      -0.234   4.310  23.398  0.00  0.00    +0.183 C 
ATOM     17  C   UNL     1      -3.049   6.170  23.752  0.00  0.00    +0.185 C 
ENDROOT
BRANCH  15   7
ATOM      7  N   UNL     1      -4.619   4.670  24.850  0.00  0.00    -0.306 N 
ATOM      8  N   UNL     1      -4.555   2.325  24.907  0.00  0.00    -0.214 NA
ATOM      9  N   UNL     1      -6.115   3.555  26.271  0.00  0.00    -0.223 NA
ATOM     18  C   UNL     1      -5.110   3.481  25.358  0.00  0.00    +0.216 A 
ATOM     22  C   UNL     1      -5.059   1.185  25.424  0.00  0.00    +0.076 A 
ATOM     23  C   UNL     1      -6.572   2.377  26.745  0.00  0.00    +0.116 A 
ATOM     26  C   UNL     1      -6.077   1.149  26.355  0.00  0.00    +0.048 A 
ATOM     38  H   UNL     1      -5.003   5.527  25.231  0.00  0.00    +0.149 HD
BRANCH  22  28
ATOM     28  C   UNL     1      -4.455  -0.029  24.932  0.00  0.00    +0.001 A 
ATOM     30  C   UNL     1      -3.984  -0.097  23.619  0.00  0.00    +0.012 A 
ATOM     31  C   UNL     1      -4.340  -1.144  25.767  0.00  0.00    +0.012 A 
ATOM     32  C   UNL     1      -3.401  -1.272  23.144  0.00  0.00    +0.024 A 
ATOM     33  C   UNL     1      -3.757  -2.318  25.292  0.00  0.00    +0.024 A 
ATOM     34  C   UNL     1      -3.289  -2.382  23.980  0.00  0.00    +0.029 A 
BRANCH  34  11
ATOM     11  N   UNL     1      -2.699  -3.571  23.499  0.00  0.00    -0.336 N 
ATOM     35  C   UNL     1      -1.258  -3.678  23.380  0.00  0.00    +0.129 C 
ATOM     36  C   UNL     1      -3.525  -4.693  23.103  0.00  0.00    +0.129 C 
ENDBRANCH  34  11
ENDBRANCH  22  28
ENDBRANCH  15   7
BRANCH  14   6
ATOM      6  N   UNL     1       0.472   3.833  25.689  0.00  0.00    -0.182 NA
ATOM     37  H   UNL     1       1.492   3.850  25.809  0.00  0.00    +0.148 HD
BRANCH   6   1
ATOM      1  S   UNL     1      -0.421   2.474  26.179  0.00  0.00    +0.060 S 
ATOM      4  O   UNL     1      -1.837   2.743  26.011  0.00  0.00    -0.153 OA
ATOM      5  O   UNL     1       0.088   2.015  27.457  0.00  0.00    -0.153 OA
BRANCH   1  19
ATOM     19  C   UNL     1       0.052   1.271  24.974  0.00  0.00    +0.123 A 
ATOM     20  C   UNL     1      -0.313  -0.060  25.103  0.00  0.00    +0.078 A 
ATOM     21  C   UNL     1       0.805   1.706  23.891  0.00  0.00    +0.030 A 
ATOM     24  C   UNL     1       0.083  -0.979  24.130  0.00  0.00    +0.021 A 
ATOM     25  C   UNL     1       1.201   0.788  22.919  0.00  0.00    +0.002 A 
ATOM     27  C   UNL     1       0.840  -0.554  23.037  0.00  0.00    +0.001 A 
BRANCH  20  29
ATOM     10  N   UNL     1      -1.714  -0.913  27.110  0.00  0.00    -0.191 NA
ATOM     29  C   UNL     1      -1.087  -0.531  26.212  0.00  0.00    +0.101 C 
ENDBRANCH  20  29
ENDBRANCH   1  19
ENDBRANCH   6   1
ENDBRANCH  14   6
TORSDOF 7
ENDMDL
