MODEL 1
REMARK VINA RESULT:      -4.8      0.000      0.000
REMARK  Name = 11886657
REMARK  8 active torsions:
REMARK  status: ('A' for Active; 'I' for Inactive)
REMARK    1  A    between atoms: O_6  and  C_16
REMARK    2  A    between atoms: O_6  and  C_21
REMARK    3  A    between atoms: O_8  and  C_22
REMARK    4  A    between atoms: O_8  and  C_27
REMARK    5  A    between atoms: N_9  and  C_15
REMARK    6  A    between atoms: N_12  and  C_23
REMARK    7  A    between atoms: C_20  and  C_22
REMARK    8  A    between atoms: C_26  and  C_30
REMARK                            x       y       z     vdW  Elec       q    Type
REMARK                         _______ _______ _______ _____ _____    ______ ____
ROOT
ATOM      4  O   UNL     1      14.863  -8.770  29.994  0.00  0.00    -0.368 OA
ATOM      5  O   UNL     1      15.024  -6.288  31.830  0.00  0.00    -0.368 OA
ATOM     13  C   UNL     1      13.905  -6.996  31.252  0.00  0.00    +0.177 C 
ATOM     14  C   UNL     1      14.336  -7.440  29.868  0.00  0.00    +0.192 C 
ATOM     15  C   UNL     1      13.675  -8.288  32.011  0.00  0.00    +0.166 C 
ATOM     16  C   UNL     1      15.415  -6.443  29.520  0.00  0.00    +0.235 C 
ATOM     17  C   UNL     1      14.632  -9.257  31.324  0.00  0.00    +0.190 C 
ATOM     18  C   UNL     1      16.076  -6.210  30.858  0.00  0.00    +0.207 C 
ENDROOT
BRANCH  15   9
ATOM      9  N   UNL     1      12.267  -8.693  32.015  0.00  0.00    -0.244 N 
ATOM     10  N   UNL     1      11.931  -9.981  31.873  0.00  0.00    -0.065 NA
ATOM     11  N   UNL     1      10.605 -10.045  31.910  0.00  0.00    -0.132 NA
ATOM     19  C   UNL     1      11.178  -7.893  32.147  0.00  0.00    +0.136 A 
ATOM     20  C   UNL     1      10.127  -8.774  32.077  0.00  0.00    +0.108 A 
BRANCH  20  22
ATOM     22  C   UNL     1       8.687  -8.504  32.157  0.00  0.00    +0.218 C 
BRANCH  22   8
ATOM      8  O   UNL     1       7.935  -9.206  31.159  0.00  0.00    -0.377 OA
ATOM     27  C   UNL     1       6.665  -8.609  30.964  0.00  0.00    +0.194 C 
ENDBRANCH  22   8
ENDBRANCH  20  22
ENDBRANCH  15   9
BRANCH  16   6
ATOM      6  O   UNL     1      16.326  -6.913  28.553  0.00  0.00    -0.442 OA
BRANCH   6  21
ATOM      7  O   UNL     1      14.967  -7.096  26.722  0.00  0.00    -0.226 OA
ATOM     12  N   UNL     1      17.009  -5.954  26.628  0.00  0.00    -0.251 N 
ATOM     21  C   UNL     1      16.003  -6.686  27.230  0.00  0.00    +0.405 C 
ATOM     31  H   UNL     1      17.798  -5.705  27.219  0.00  0.00    +0.158 HD
BRANCH  12  23
ATOM     23  C   UNL     1      17.078  -5.509  25.288  0.00  0.00    +0.037 A 
ATOM     24  C   UNL     1      16.887  -4.165  25.009  0.00  0.00    +0.035 A 
ATOM     25  C   UNL     1      17.336  -6.424  24.281  0.00  0.00    +0.023 A 
ATOM     26  C   UNL     1      16.956  -3.726  23.687  0.00  0.00    +0.057 A 
ATOM     28  C   UNL     1      17.405  -5.985  22.959  0.00  0.00    +0.002 A 
ATOM     29  C   UNL     1      17.215  -4.635  22.662  0.00  0.00    +0.012 A 
BRANCH  26  30
ATOM      1  F   UNL     1      17.185  -1.438  24.351  0.00  0.00    -0.166 F 
ATOM      2  F   UNL     1      17.404  -1.876  22.237  0.00  0.00    -0.166 F 
ATOM      3  F   UNL     1      15.440  -1.969  23.167  0.00  0.00    -0.166 F 
ATOM     30  C   UNL     1      16.753  -2.282  23.368  0.00  0.00    +0.417 C 
ENDBRANCH  26  30
ENDBRANCH  12  23
ENDBRANCH   6  21
ENDBRANCH  16   6
TORSDOF 7
ENDMDL
MODEL 2
REMARK VINA RESULT:      -2.5      1.613      2.121
REMARK  Name = 11886657
REMARK  8 active torsions:
REMARK  status: ('A' for Active; 'I' for Inactive)
REMARK    1  A    between atoms: O_6  and  C_16
REMARK    2  A    between atoms: O_6  and  C_21
REMARK    3  A    between atoms: O_8  and  C_22
REMARK    4  A    between atoms: O_8  and  C_27
REMARK    5  A    between atoms: N_9  and  C_15
REMARK    6  A    between atoms: N_12  and  C_23
REMARK    7  A    between atoms: C_20  and  C_22
REMARK    8  A    between atoms: C_26  and  C_30
REMARK                            x       y       z     vdW  Elec       q    Type
REMARK                         _______ _______ _______ _____ _____    ______ ____
ROOT
ATOM      4  O   UNL     1      15.277  -9.273  28.501  0.00  0.00    -0.368 OA
ATOM      5  O   UNL     1      16.592  -7.218  30.398  0.00  0.00    -0.368 OA
ATOM     13  C   UNL     1      15.214  -7.466  30.042  0.00  0.00    +0.177 C 
ATOM     14  C   UNL     1      15.202  -7.842  28.574  0.00  0.00    +0.192 C 
ATOM     15  C   UNL     1      14.721  -8.710  30.756  0.00  0.00    +0.166 C 
ATOM     16  C   UNL     1      16.462  -7.191  28.054  0.00  0.00    +0.235 C 
ATOM     17  C   UNL     1      15.156  -9.831  29.817  0.00  0.00    +0.190 C 
ATOM     18  C   UNL     1      17.405  -7.345  29.223  0.00  0.00    +0.207 C 
ENDROOT
BRANCH  15   9
ATOM      9  N   UNL     1      13.286  -8.657  31.048  0.00  0.00    -0.244 N 
ATOM     10  N   UNL     1      12.638  -7.485  31.054  0.00  0.00    -0.065 NA
ATOM     11  N   UNL     1      11.369  -7.743  31.350  0.00  0.00    -0.132 NA
ATOM     19  C   UNL     1      12.464  -9.697  31.337  0.00  0.00    +0.136 A 
ATOM     20  C   UNL     1      11.245  -9.093  31.527  0.00  0.00    +0.108 A 
BRANCH  20  22
ATOM     22  C   UNL     1       9.954  -9.703  31.867  0.00  0.00    +0.218 C 
BRANCH  22   8
ATOM      8  O   UNL     1       8.861  -8.782  31.762  0.00  0.00    -0.377 OA
ATOM     27  C   UNL     1       7.691  -9.310  32.361  0.00  0.00    +0.194 C 
ENDBRANCH  22   8
ENDBRANCH  20  22
ENDBRANCH  15   9
BRANCH  16   6
ATOM      6  O   UNL     1      16.966  -7.791  26.883  0.00  0.00    -0.442 OA
BRANCH   6  21
ATOM      7  O   UNL     1      16.772  -7.593  24.612  0.00  0.00    -0.226 OA
ATOM     12  N   UNL     1      16.865  -5.714  26.007  0.00  0.00    -0.251 N 
ATOM     21  C   UNL     1      16.858  -7.065  25.714  0.00  0.00    +0.405 C 
ATOM     31  H   UNL     1      16.945  -5.469  26.991  0.00  0.00    +0.158 HD
BRANCH  12  23
ATOM     23  C   UNL     1      16.775  -4.629  25.106  0.00  0.00    +0.037 A 
ATOM     24  C   UNL     1      16.777  -3.334  25.601  0.00  0.00    +0.035 A 
ATOM     25  C   UNL     1      16.688  -4.880  23.746  0.00  0.00    +0.023 A 
ATOM     26  C   UNL     1      16.690  -2.263  24.713  0.00  0.00    +0.057 A 
ATOM     28  C   UNL     1      16.600  -3.809  22.857  0.00  0.00    +0.002 A 
ATOM     29  C   UNL     1      16.602  -2.500  23.340  0.00  0.00    +0.012 A 
BRANCH  26  30
ATOM      1  F   UNL     1      17.232   0.040  24.358  0.00  0.00    -0.166 F 
ATOM      2  F   UNL     1      15.443  -0.383  25.510  0.00  0.00    -0.166 F 
ATOM      3  F   UNL     1      17.404  -0.730  26.383  0.00  0.00    -0.166 F 
ATOM     30  C   UNL     1      16.692  -0.863  25.228  0.00  0.00    +0.417 C 
ENDBRANCH  26  30
ENDBRANCH  12  23
ENDBRANCH   6  21
ENDBRANCH  16   6
TORSDOF 7
ENDMDL
MODEL 3
REMARK VINA RESULT:      -1.9     15.508     19.336
REMARK  Name = 11886657
REMARK  8 active torsions:
REMARK  status: ('A' for Active; 'I' for Inactive)
REMARK    1  A    between atoms: O_6  and  C_16
REMARK    2  A    between atoms: O_6  and  C_21
REMARK    3  A    between atoms: O_8  and  C_22
REMARK    4  A    between atoms: O_8  and  C_27
REMARK    5  A    between atoms: N_9  and  C_15
REMARK    6  A    between atoms: N_12  and  C_23
REMARK    7  A    between atoms: C_20  and  C_22
REMARK    8  A    between atoms: C_26  and  C_30
REMARK                            x       y       z     vdW  Elec       q    Type
REMARK                         _______ _______ _______ _____ _____    ______ ____
ROOT
ATOM      4  O   UNL     1      -2.477  -0.181  25.240  0.00  0.00    -0.368 OA
ATOM      5  O   UNL     1      -1.985  -2.997  24.061  0.00  0.00    -0.368 OA
ATOM     13  C   UNL     1      -1.474  -1.692  23.705  0.00  0.00    +0.177 C 
ATOM     14  C   UNL     1      -2.607  -0.707  23.910  0.00  0.00    +0.192 C 
ATOM     15  C   UNL     1      -0.418  -1.270  24.707  0.00  0.00    +0.166 C 
ATOM     16  C   UNL     1      -3.834  -1.578  23.773  0.00  0.00    +0.235 C 
ATOM     17  C   UNL     1      -1.244  -0.633  25.819  0.00  0.00    +0.190 C 
ATOM     18  C   UNL     1      -3.375  -2.875  24.396  0.00  0.00    +0.207 C 
ENDROOT
BRANCH  15   9
ATOM      9  N   UNL     1       0.606  -0.407  24.112  0.00  0.00    -0.244 N 
ATOM     10  N   UNL     1       0.508   0.925  24.206  0.00  0.00    -0.065 NA
ATOM     11  N   UNL     1       1.561   1.439  23.579  0.00  0.00    -0.132 NA
ATOM     19  C   UNL     1       1.714  -0.791  23.428  0.00  0.00    +0.136 A 
ATOM     20  C   UNL     1       2.310   0.402  23.096  0.00  0.00    +0.108 A 
BRANCH  20  22
ATOM     22  C   UNL     1       3.550   0.639  22.348  0.00  0.00    +0.218 C 
BRANCH  22   8
ATOM      8  O   UNL     1       4.642   1.023  23.193  0.00  0.00    -0.377 OA
ATOM     27  C   UNL     1       5.418  -0.102  23.567  0.00  0.00    +0.194 C 
ENDBRANCH  22   8
ENDBRANCH  20  22
ENDBRANCH  15   9
BRANCH  16   6
ATOM      6  O   UNL     1      -4.973  -1.054  24.416  0.00  0.00    -0.442 OA
BRANCH   6  21
ATOM      7  O   UNL     1      -5.057   0.167  26.349  0.00  0.00    -0.226 OA
ATOM     12  N   UNL     1      -4.301   1.099  24.338  0.00  0.00    -0.251 N 
ATOM     21  C   UNL     1      -4.797   0.099  25.154  0.00  0.00    +0.405 C 
ATOM     31  H   UNL     1      -4.148   0.848  23.364  0.00  0.00    +0.158 HD
BRANCH  12  23
ATOM     23  C   UNL     1      -3.980   2.429  24.690  0.00  0.00    +0.037 A 
ATOM     24  C   UNL     1      -2.660   2.847  24.634  0.00  0.00    +0.035 A 
ATOM     25  C   UNL     1      -4.992   3.291  25.082  0.00  0.00    +0.023 A 
ATOM     26  C   UNL     1      -2.344   4.160  24.980  0.00  0.00    +0.057 A 
ATOM     28  C   UNL     1      -4.676   4.605  25.428  0.00  0.00    +0.002 A 
ATOM     29  C   UNL     1      -3.351   5.040  25.377  0.00  0.00    +0.012 A 
BRANCH  26  30
ATOM      1  F   UNL     1      -0.315   4.379  23.731  0.00  0.00    -0.166 F 
ATOM      2  F   UNL     1      -0.787   5.971  25.125  0.00  0.00    -0.166 F 
ATOM      3  F   UNL     1      -0.143   4.033  25.870  0.00  0.00    -0.166 F 
ATOM     30  C   UNL     1      -0.928   4.627  24.925  0.00  0.00    +0.417 C 
ENDBRANCH  26  30
ENDBRANCH  12  23
ENDBRANCH   6  21
ENDBRANCH  16   6
TORSDOF 7
ENDMDL
MODEL 4
REMARK VINA RESULT:      -1.2     23.290     25.988
REMARK  Name = 11886657
REMARK  8 active torsions:
REMARK  status: ('A' for Active; 'I' for Inactive)
REMARK    1  A    between atoms: O_6  and  C_16
REMARK    2  A    between atoms: O_6  and  C_21
REMARK    3  A    between atoms: O_8  and  C_22
REMARK    4  A    between atoms: O_8  and  C_27
REMARK    5  A    between atoms: N_9  and  C_15
REMARK    6  A    between atoms: N_12  and  C_23
REMARK    7  A    between atoms: C_20  and  C_22
REMARK    8  A    between atoms: C_26  and  C_30
REMARK                            x       y       z     vdW  Elec       q    Type
REMARK                         _______ _______ _______ _____ _____    ______ ____
ROOT
ATOM      4  O   UNL     1      -5.651  -9.647  10.982  0.00  0.00    -0.368 OA
ATOM      5  O   UNL     1      -7.884  -9.434   8.855  0.00  0.00    -0.368 OA
ATOM     13  C   UNL     1      -7.820 -10.111  10.130  0.00  0.00    +0.177 C 
ATOM     14  C   UNL     1      -6.407 -10.641  10.274  0.00  0.00    +0.192 C 
ATOM     15  C   UNL     1      -7.961  -9.098  11.250  0.00  0.00    +0.166 C 
ATOM     16  C   UNL     1      -5.952 -10.769   8.839  0.00  0.00    +0.235 C 
ATOM     17  C   UNL     1      -6.529  -8.612  11.446  0.00  0.00    +0.190 C 
ATOM     18  C   UNL     1      -6.624  -9.585   8.186  0.00  0.00    +0.207 C 
ENDROOT
BRANCH  15   9
ATOM      9  N   UNL     1      -8.601  -9.665  12.440  0.00  0.00    -0.244 N 
ATOM     10  N   UNL     1      -9.855 -10.129  12.380  0.00  0.00    -0.065 NA
ATOM     11  N   UNL     1     -10.166 -10.572  13.594  0.00  0.00    -0.132 NA
ATOM     19  C   UNL     1      -8.068  -9.793  13.682  0.00  0.00    +0.136 A 
ATOM     20  C   UNL     1      -9.082 -10.373  14.404  0.00  0.00    +0.108 A 
BRANCH  20  22
ATOM     22  C   UNL     1      -9.106 -10.759  15.819  0.00  0.00    +0.218 C 
BRANCH  22   8
ATOM      8  O   UNL     1      -9.251  -9.636  16.698  0.00  0.00    -0.377 OA
ATOM     27  C   UNL     1      -8.065  -9.413  17.440  0.00  0.00    +0.194 C 
ENDBRANCH  22   8
ENDBRANCH  20  22
ENDBRANCH  15   9
BRANCH  16   6
ATOM      6  O   UNL     1      -4.552 -10.737   8.686  0.00  0.00    -0.442 OA
BRANCH   6  21
ATOM      7  O   UNL     1      -3.747  -8.714   9.387  0.00  0.00    -0.226 OA
ATOM     12  N   UNL     1      -3.316 -10.686  10.573  0.00  0.00    -0.251 N 
ATOM     21  C   UNL     1      -3.849  -9.923   9.551  0.00  0.00    +0.405 C 
ATOM     31  H   UNL     1      -3.511 -11.684  10.536  0.00  0.00    +0.158 HD
BRANCH  12  23
ATOM     23  C   UNL     1      -2.531 -10.252  11.664  0.00  0.00    +0.037 A 
ATOM     24  C   UNL     1      -1.542  -9.303  11.454  0.00  0.00    +0.035 A 
ATOM     25  C   UNL     1      -2.765 -10.781  12.923  0.00  0.00    +0.023 A 
ATOM     26  C   UNL     1      -0.768  -8.873  12.532  0.00  0.00    +0.057 A 
ATOM     28  C   UNL     1      -1.991 -10.351  14.001  0.00  0.00    +0.002 A 
ATOM     29  C   UNL     1      -0.992  -9.397  13.805  0.00  0.00    +0.012 A 
BRANCH  26  30
ATOM      1  F   UNL     1       1.063  -8.076  11.214  0.00  0.00    -0.166 F 
ATOM      2  F   UNL     1      -0.180  -6.582  12.175  0.00  0.00    -0.166 F 
ATOM      3  F   UNL     1       1.178  -7.792  13.366  0.00  0.00    -0.166 F 
ATOM     30  C   UNL     1       0.300  -7.852  12.324  0.00  0.00    +0.417 C 
ENDBRANCH  26  30
ENDBRANCH  12  23
ENDBRANCH   6  21
ENDBRANCH  16   6
TORSDOF 7
ENDMDL
MODEL 5
REMARK VINA RESULT:      -1.2     15.505     19.466
REMARK  Name = 11886657
REMARK  8 active torsions:
REMARK  status: ('A' for Active; 'I' for Inactive)
REMARK    1  A    between atoms: O_6  and  C_16
REMARK    2  A    between atoms: O_6  and  C_21
REMARK    3  A    between atoms: O_8  and  C_22
REMARK    4  A    between atoms: O_8  and  C_27
REMARK    5  A    between atoms: N_9  and  C_15
REMARK    6  A    between atoms: N_12  and  C_23
REMARK    7  A    between atoms: C_20  and  C_22
REMARK    8  A    between atoms: C_26  and  C_30
REMARK                            x       y       z     vdW  Elec       q    Type
REMARK                         _______ _______ _______ _____ _____    ______ ____
ROOT
ATOM      4  O   UNL     1      -1.997  -0.676  23.440  0.00  0.00    -0.368 OA
ATOM      5  O   UNL     1      -0.835  -0.849  26.299  0.00  0.00    -0.368 OA
ATOM     13  C   UNL     1      -0.248  -1.073  24.998  0.00  0.00    +0.177 C 
ATOM     14  C   UNL     1      -1.315  -1.725  24.142  0.00  0.00    +0.192 C 
ATOM     15  C   UNL     1       0.015   0.261  24.325  0.00  0.00    +0.166 C 
ATOM     16  C   UNL     1      -2.208  -2.383  25.168  0.00  0.00    +0.235 C 
ATOM     17  C   UNL     1      -1.321   0.571  23.659  0.00  0.00    +0.190 C 
ATOM     18  C   UNL     1      -2.163  -1.394  26.309  0.00  0.00    +0.207 C 
ENDROOT
BRANCH  15   9
ATOM      9  N   UNL     1       1.170   0.215  23.424  0.00  0.00    -0.244 N 
ATOM     10  N   UNL     1       1.056  -0.318  22.201  0.00  0.00    -0.065 NA
ATOM     11  N   UNL     1       2.248  -0.225  21.623  0.00  0.00    -0.132 NA
ATOM     19  C   UNL     1       2.428   0.663  23.670  0.00  0.00    +0.136 A 
ATOM     20  C   UNL     1       3.101   0.372  22.509  0.00  0.00    +0.108 A 
BRANCH  20  22
ATOM     22  C   UNL     1       4.506   0.621  22.168  0.00  0.00    +0.218 C 
BRANCH  22   8
ATOM      8  O   UNL     1       5.349   0.712  23.324  0.00  0.00    -0.377 OA
ATOM     27  C   UNL     1       5.485  -0.549  23.956  0.00  0.00    +0.194 C 
ENDBRANCH  22   8
ENDBRANCH  20  22
ENDBRANCH  15   9
BRANCH  16   6
ATOM      6  O   UNL     1      -3.522  -2.607  24.711  0.00  0.00    -0.442 OA
BRANCH   6  21
ATOM      7  O   UNL     1      -5.049  -1.464  23.450  0.00  0.00    -0.226 OA
ATOM     12  N   UNL     1      -3.990  -0.476  25.289  0.00  0.00    -0.251 N 
ATOM     21  C   UNL     1      -4.270  -1.491  24.394  0.00  0.00    +0.405 C 
ATOM     31  H   UNL     1      -3.307  -0.692  26.012  0.00  0.00    +0.158 HD
BRANCH  12  23
ATOM     23  C   UNL     1      -4.534   0.827  25.325  0.00  0.00    +0.037 A 
ATOM     24  C   UNL     1      -3.699   1.918  25.140  0.00  0.00    +0.035 A 
ATOM     25  C   UNL     1      -5.893   0.990  25.542  0.00  0.00    +0.023 A 
ATOM     26  C   UNL     1      -4.236   3.204  25.174  0.00  0.00    +0.057 A 
ATOM     28  C   UNL     1      -6.431   2.276  25.576  0.00  0.00    +0.002 A 
ATOM     29  C   UNL     1      -5.603   3.384  25.392  0.00  0.00    +0.012 A 
BRANCH  26  30
ATOM      1  F   UNL     1      -3.183   5.140  26.105  0.00  0.00    -0.166 F 
ATOM      2  F   UNL     1      -2.087   4.065  24.572  0.00  0.00    -0.166 F 
ATOM      3  F   UNL     1      -3.829   5.249  24.032  0.00  0.00    -0.166 F 
ATOM     30  C   UNL     1      -3.352   4.389  24.977  0.00  0.00    +0.417 C 
ENDBRANCH  26  30
ENDBRANCH  12  23
ENDBRANCH   6  21
ENDBRANCH  16   6
TORSDOF 7
ENDMDL
