MODEL 1
REMARK VINA RESULT:       5.5      0.000      0.000
REMARK  Name = 7156243
REMARK  6 active torsions:
REMARK  status: ('A' for Active; 'I' for Inactive)
REMARK    1  A    between atoms: O_3  and  C_22
REMARK    2  A    between atoms: O_3  and  C_24
REMARK    3  A    between atoms: N_7  and  C_20
REMARK    4  A    between atoms: N_8  and  C_27
REMARK    5  A    between atoms: C_19  and  C_22
REMARK    6  A    between atoms: C_33  and  C_36
REMARK                            x       y       z     vdW  Elec       q    Type
REMARK                         _______ _______ _______ _____ _____    ______ ____
ROOT
ATOM      1  O   UNL     1      -0.495   3.029  25.950  0.00  0.00    -0.266 OA
ATOM      2  O   UNL     1      -4.515  -0.448  26.607  0.00  0.00    -0.272 OA
ATOM      5  N   UNL     1      -5.198   1.372  25.335  0.00  0.00    -0.298 N 
ATOM      6  N   UNL     1      -2.603   3.203  24.957  0.00  0.00    -0.310 N 
ATOM     10  C   UNL     1      -4.738   3.629  26.304  0.00  0.00    +0.027 C 
ATOM     11  C   UNL     1      -4.869   3.352  23.865  0.00  0.00    +0.054 C 
ATOM     12  C   UNL     1      -5.252   4.271  25.022  0.00  0.00    +0.018 C 
ATOM     13  C   UNL     1      -5.371   2.240  26.502  0.00  0.00    +0.113 C 
ATOM     14  C   UNL     1      -3.208   3.561  26.247  0.00  0.00    +0.130 C 
ATOM     15  C   UNL     1      -5.552   1.982  24.045  0.00  0.00    +0.117 C 
ATOM     16  C   UNL     1      -3.365   3.172  23.785  0.00  0.00    +0.027 A 
ATOM     17  C   UNL     1      -2.771   2.955  22.598  0.00  0.00    +0.024 A 
ATOM     18  C   UNL     1      -1.209   2.994  24.947  0.00  0.00    +0.273 A 
ATOM     19  C   UNL     1      -4.808   0.045  25.515  0.00  0.00    +0.253 C 
ATOM     20  C   UNL     1      -0.590   2.732  23.609  0.00  0.00    +0.100 A 
ATOM     21  C   UNL     1      -1.356   2.729  22.513  0.00  0.00    +0.030 A 
ENDROOT
BRANCH  20   7
ATOM      4  O   UNL     1       0.697   0.196  23.652  0.00  0.00    -0.252 OA
ATOM      7  N   UNL     1       0.755   2.512  23.558  0.00  0.00    -0.265 N 
ATOM      8  N   UNL     1       2.735   1.352  23.515  0.00  0.00    -0.269 N 
ATOM     23  C   UNL     1       1.342   1.240  23.582  0.00  0.00    +0.308 C 
ATOM     37  H   UNL     1       1.359   3.305  23.757  0.00  0.00    +0.157 HD
ATOM     38  H   UNL     1       3.114   2.294  23.457  0.00  0.00    +0.156 HD
BRANCH   8  27
ATOM     27  C   UNL     1       3.692   0.310  23.514  0.00  0.00    +0.036 A 
ATOM     31  C   UNL     1       5.043   0.603  23.333  0.00  0.00    +0.042 A 
ATOM     32  C   UNL     1       3.282  -1.011  23.696  0.00  0.00    +0.023 A 
ATOM     33  C   UNL     1       5.985  -0.425  23.332  0.00  0.00    +0.054 A 
ATOM     34  C   UNL     1       4.225  -2.040  23.694  0.00  0.00    +0.003 A 
ATOM     35  C   UNL     1       5.576  -1.746  23.513  0.00  0.00    +0.019 A 
BRANCH  33  36
ATOM      9  N   UNL     1       8.495   0.118  22.995  0.00  0.00    -0.191 NA
ATOM     36  C   UNL     1       7.370  -0.125  23.146  0.00  0.00    +0.099 C 
ENDBRANCH  33  36
ENDBRANCH   8  27
ENDBRANCH  20   7
BRANCH  19  22
ATOM     22  C   UNL     1      -4.742  -0.813  24.278  0.00  0.00    +0.324 C 
BRANCH  22   3
ATOM      3  O   UNL     1      -3.465  -0.615  23.718  0.00  0.00    -0.483 OA
BRANCH   3  24
ATOM     24  C   UNL     1      -2.383  -1.079  24.431  0.00  0.00    +0.121 A 
ATOM     25  C   UNL     1      -1.855  -2.341  24.156  0.00  0.00    +0.045 A 
ATOM     26  C   UNL     1      -1.813  -0.289  25.429  0.00  0.00    +0.045 A 
ATOM     28  C   UNL     1      -0.759  -2.812  24.877  0.00  0.00    +0.004 A 
ATOM     29  C   UNL     1      -0.715  -0.758  26.150  0.00  0.00    +0.004 A 
ATOM     30  C   UNL     1      -0.188  -2.020  25.874  0.00  0.00    +0.000 A 
ENDBRANCH   3  24
ENDBRANCH  22   3
ENDBRANCH  19  22
TORSDOF 6
ENDMDL
MODEL 2
REMARK VINA RESULT:       8.3      1.427      1.714
REMARK  Name = 7156243
REMARK  6 active torsions:
REMARK  status: ('A' for Active; 'I' for Inactive)
REMARK    1  A    between atoms: O_3  and  C_22
REMARK    2  A    between atoms: O_3  and  C_24
REMARK    3  A    between atoms: N_7  and  C_20
REMARK    4  A    between atoms: N_8  and  C_27
REMARK    5  A    between atoms: C_19  and  C_22
REMARK    6  A    between atoms: C_33  and  C_36
REMARK                            x       y       z     vdW  Elec       q    Type
REMARK                         _______ _______ _______ _____ _____    ______ ____
ROOT
ATOM      1  O   UNL     1      -0.528   1.719  25.743  0.00  0.00    -0.266 OA
ATOM      2  O   UNL     1      -5.700   1.171  27.015  0.00  0.00    -0.272 OA
ATOM      5  N   UNL     1      -5.407   2.887  25.476  0.00  0.00    -0.298 N 
ATOM      6  N   UNL     1      -2.289   2.906  24.768  0.00  0.00    -0.310 N 
ATOM     10  C   UNL     1      -3.695   4.610  26.061  0.00  0.00    +0.027 C 
ATOM     11  C   UNL     1      -4.204   4.148  23.701  0.00  0.00    +0.054 C 
ATOM     12  C   UNL     1      -3.903   5.262  24.700  0.00  0.00    +0.018 C 
ATOM     13  C   UNL     1      -4.958   3.844  26.490  0.00  0.00    +0.113 C 
ATOM     14  C   UNL     1      -2.464   3.699  25.992  0.00  0.00    +0.130 C 
ATOM     15  C   UNL     1      -5.500   3.422  24.110  0.00  0.00    +0.117 C 
ATOM     16  C   UNL     1      -3.059   3.155  23.628  0.00  0.00    +0.027 A 
ATOM     17  C   UNL     1      -2.804   2.498  22.483  0.00  0.00    +0.024 A 
ATOM     18  C   UNL     1      -1.243   1.960  24.770  0.00  0.00    +0.273 A 
ATOM     19  C   UNL     1      -5.787   1.602  25.862  0.00  0.00    +0.253 C 
ATOM     20  C   UNL     1      -1.008   1.233  23.483  0.00  0.00    +0.100 A 
ATOM     21  C   UNL     1      -1.758   1.517  22.413  0.00  0.00    +0.030 A 
ENDROOT
BRANCH  20   7
ATOM      4  O   UNL     1       1.773   1.733  23.809  0.00  0.00    -0.252 OA
ATOM      7  N   UNL     1      -0.014   0.300  23.447  0.00  0.00    -0.265 N 
ATOM      8  N   UNL     1       2.108  -0.573  23.526  0.00  0.00    -0.269 N 
ATOM     23  C   UNL     1       1.345   0.597  23.614  0.00  0.00    +0.308 C 
ATOM     37  H   UNL     1      -0.244  -0.603  23.042  0.00  0.00    +0.157 HD
ATOM     38  H   UNL     1       1.598  -1.437  23.364  0.00  0.00    +0.156 HD
BRANCH   8  27
ATOM     27  C   UNL     1       3.512  -0.706  23.638  0.00  0.00    +0.036 A 
ATOM     31  C   UNL     1       4.307   0.426  23.814  0.00  0.00    +0.042 A 
ATOM     32  C   UNL     1       4.100  -1.969  23.572  0.00  0.00    +0.023 A 
ATOM     33  C   UNL     1       5.691   0.295  23.925  0.00  0.00    +0.054 A 
ATOM     34  C   UNL     1       5.484  -2.100  23.682  0.00  0.00    +0.003 A 
ATOM     35  C   UNL     1       6.280  -0.968  23.858  0.00  0.00    +0.019 A 
BRANCH  33  36
ATOM      9  N   UNL     1       7.170   2.395  24.252  0.00  0.00    -0.191 NA
ATOM     36  C   UNL     1       6.507   1.454  24.105  0.00  0.00    +0.099 C 
ENDBRANCH  33  36
ENDBRANCH   8  27
ENDBRANCH  20   7
BRANCH  19  22
ATOM     22  C   UNL     1      -6.326   0.703  24.779  0.00  0.00    +0.324 C 
BRANCH  22   3
ATOM      3  O   UNL     1      -5.240   0.383  23.943  0.00  0.00    -0.483 OA
BRANCH   3  24
ATOM     24  C   UNL     1      -4.395  -0.621  24.360  0.00  0.00    +0.121 A 
ATOM     25  C   UNL     1      -4.447  -1.875  23.751  0.00  0.00    +0.045 A 
ATOM     26  C   UNL     1      -3.485  -0.384  25.391  0.00  0.00    +0.045 A 
ATOM     28  C   UNL     1      -3.591  -2.892  24.172  0.00  0.00    +0.004 A 
ATOM     29  C   UNL     1      -2.628  -1.401  25.812  0.00  0.00    +0.004 A 
ATOM     30  C   UNL     1      -2.681  -2.654  25.203  0.00  0.00    +0.000 A 
ENDBRANCH   3  24
ENDBRANCH  22   3
ENDBRANCH  19  22
TORSDOF 6
ENDMDL
