MODEL 1
REMARK VINA RESULT:       0.7      0.000      0.000
REMARK  Name = 45783642
REMARK  9 active torsions:
REMARK  status: ('A' for Active; 'I' for Inactive)
REMARK    1  A    between atoms: O_5  and  C_32
REMARK    2  A    between atoms: O_5  and  C_33
REMARK    3  A    between atoms: N_7  and  C_16
REMARK    4  A    between atoms: N_11  and  C_30
REMARK    5  A    between atoms: C_12  and  C_17
REMARK    6  A    between atoms: C_16  and  C_18
REMARK    7  A    between atoms: C_21  and  C_25
REMARK    8  A    between atoms: C_24  and  C_26
REMARK    9  A    between atoms: C_31  and  C_32
REMARK                            x       y       z     vdW  Elec       q    Type
REMARK                         _______ _______ _______ _____ _____    ______ ____
ROOT
ATOM      4  O   UNL     1      -3.838   2.692  22.377  0.00  0.00    -0.336 OA
ATOM      8  N   UNL     1      -2.765   2.228  24.287  0.00  0.00    -0.190 NA
ATOM      9  N   UNL     1      -2.534   2.332  22.014  0.00  0.00    -0.056 NA
ATOM     17  C   UNL     1      -3.889   2.604  23.731  0.00  0.00    +0.245 A 
ATOM     21  C   UNL     1      -1.964   2.072  23.194  0.00  0.00    +0.204 A 
ENDROOT
BRANCH  21  25
ATOM     10  N   UNL     1       1.636   2.112  24.129  0.00  0.00    -0.239 NA
ATOM     25  C   UNL     1      -0.595   1.658  23.315  0.00  0.00    +0.041 A 
ATOM     27  C   UNL     1      -0.159   0.458  22.766  0.00  0.00    +0.016 A 
ATOM     28  C   UNL     1       0.333   2.442  23.981  0.00  0.00    +0.124 A 
ATOM     29  C   UNL     1       1.173   0.082  22.898  0.00  0.00    +0.044 A 
ATOM     30  C   UNL     1       2.022   0.937  23.583  0.00  0.00    +0.125 A 
BRANCH  30  11
ATOM      6  O   UNL     1       4.217   0.801  21.529  0.00  0.00    -0.273 OA
ATOM     11  N   UNL     1       3.362   0.550  23.709  0.00  0.00    -0.268 N 
ATOM     31  C   UNL     1       4.343   0.507  22.714  0.00  0.00    +0.244 C 
ATOM     34  H   UNL     1       3.631   0.270  24.650  0.00  0.00    +0.156 HD
BRANCH  31  32
ATOM     32  C   UNL     1       5.674   0.023  23.248  0.00  0.00    +0.255 C 
BRANCH  32   5
ATOM      5  O   UNL     1       5.440  -0.840  24.341  0.00  0.00    -0.374 OA
ATOM     33  C   UNL     1       4.666  -1.975  23.965  0.00  0.00    +0.194 C 
ENDBRANCH  32   5
ENDBRANCH  31  32
ENDBRANCH  30  11
ENDBRANCH  21  25
BRANCH  17  12
ATOM      7  N   UNL     1      -5.371   2.327  25.710  0.00  0.00    -0.287 NA
ATOM     12  C   UNL     1      -5.213   2.948  24.381  0.00  0.00    +0.146 C 
ATOM     13  C   UNL     1      -5.377   4.458  24.633  0.00  0.00    +0.030 C 
ATOM     14  C   UNL     1      -5.685   4.582  26.118  0.00  0.00    +0.017 C 
ATOM     15  C   UNL     1      -6.235   3.219  26.484  0.00  0.00    +0.085 C 
BRANCH   7  16
ATOM     16  C   UNL     1      -5.898   0.969  25.652  0.00  0.00    +0.120 C 
BRANCH  16  18
ATOM     18  C   UNL     1      -4.833  -0.030  25.283  0.00  0.00    -0.033 A 
ATOM     19  C   UNL     1      -4.923  -0.734  24.082  0.00  0.00    +0.005 A 
ATOM     20  C   UNL     1      -3.756  -0.250  26.141  0.00  0.00    +0.005 A 
ATOM     22  C   UNL     1      -3.936  -1.659  23.741  0.00  0.00    +0.012 A 
ATOM     23  C   UNL     1      -2.769  -1.175  25.800  0.00  0.00    +0.012 A 
ATOM     24  C   UNL     1      -2.860  -1.879  24.599  0.00  0.00    +0.055 A 
BRANCH  24  26
ATOM      1  F   UNL     1      -0.863  -2.368  23.374  0.00  0.00    -0.166 F 
ATOM      2  F   UNL     1      -2.311  -3.973  23.615  0.00  0.00    -0.166 F 
ATOM      3  F   UNL     1      -1.096  -3.334  25.302  0.00  0.00    -0.166 F 
ATOM     26  C   UNL     1      -1.803  -2.866  24.231  0.00  0.00    +0.417 C 
ENDBRANCH  24  26
ENDBRANCH  16  18
ENDBRANCH   7  16
ENDBRANCH  17  12
TORSDOF 8
ENDMDL
MODEL 2
REMARK VINA RESULT:       1.1      1.273      1.603
REMARK  Name = 45783642
REMARK  9 active torsions:
REMARK  status: ('A' for Active; 'I' for Inactive)
REMARK    1  A    between atoms: O_5  and  C_32
REMARK    2  A    between atoms: O_5  and  C_33
REMARK    3  A    between atoms: N_7  and  C_16
REMARK    4  A    between atoms: N_11  and  C_30
REMARK    5  A    between atoms: C_12  and  C_17
REMARK    6  A    between atoms: C_16  and  C_18
REMARK    7  A    between atoms: C_21  and  C_25
REMARK    8  A    between atoms: C_24  and  C_26
REMARK    9  A    between atoms: C_31  and  C_32
REMARK                            x       y       z     vdW  Elec       q    Type
REMARK                         _______ _______ _______ _____ _____    ______ ____
ROOT
ATOM      4  O   UNL     1      -2.601   3.001  25.881  0.00  0.00    -0.336 OA
ATOM      8  N   UNL     1      -2.261   2.229  23.807  0.00  0.00    -0.190 NA
ATOM      9  N   UNL     1      -1.266   2.580  25.836  0.00  0.00    -0.056 NA
ATOM     17  C   UNL     1      -3.113   2.759  24.647  0.00  0.00    +0.245 A 
ATOM     21  C   UNL     1      -1.141   2.139  24.581  0.00  0.00    +0.204 A 
ENDROOT
BRANCH  21  25
ATOM     10  N   UNL     1       2.433   1.913  23.577  0.00  0.00    -0.239 NA
ATOM     25  C   UNL     1       0.087   1.599  24.072  0.00  0.00    +0.041 A 
ATOM     27  C   UNL     1       0.151   0.297  23.590  0.00  0.00    +0.016 A 
ATOM     28  C   UNL     1       1.245   2.360  24.044  0.00  0.00    +0.124 A 
ATOM     29  C   UNL     1       1.355  -0.199  23.101  0.00  0.00    +0.044 A 
ATOM     30  C   UNL     1       2.456   0.642  23.117  0.00  0.00    +0.125 A 
BRANCH  30  11
ATOM      6  O   UNL     1       5.229   0.713  24.283  0.00  0.00    -0.273 OA
ATOM     11  N   UNL     1       3.663   0.134  22.622  0.00  0.00    -0.268 N 
ATOM     31  C   UNL     1       4.930   0.197  23.211  0.00  0.00    +0.244 C 
ATOM     34  H   UNL     1       3.584  -0.333  21.722  0.00  0.00    +0.156 HD
BRANCH  31  32
ATOM     32  C   UNL     1       5.989  -0.465  22.356  0.00  0.00    +0.255 C 
BRANCH  32   5
ATOM      5  O   UNL     1       7.026  -0.931  23.193  0.00  0.00    -0.374 OA
ATOM     33  C   UNL     1       8.288  -0.379  22.833  0.00  0.00    +0.194 C 
ENDBRANCH  32   5
ENDBRANCH  31  32
ENDBRANCH  30  11
ENDBRANCH  21  25
BRANCH  17  12
ATOM      7  N   UNL     1      -5.469   2.471  25.395  0.00  0.00    -0.287 NA
ATOM     12  C   UNL     1      -4.566   3.132  24.433  0.00  0.00    +0.146 C 
ATOM     13  C   UNL     1      -4.827   4.637  24.621  0.00  0.00    +0.030 C 
ATOM     14  C   UNL     1      -5.933   4.722  25.663  0.00  0.00    +0.017 C 
ATOM     15  C   UNL     1      -6.610   3.369  25.575  0.00  0.00    +0.085 C 
BRANCH   7  16
ATOM     16  C   UNL     1      -5.882   1.138  24.975  0.00  0.00    +0.120 C 
BRANCH  16  18
ATOM     18  C   UNL     1      -4.725   0.175  24.949  0.00  0.00    -0.033 A 
ATOM     19  C   UNL     1      -4.383  -0.472  23.761  0.00  0.00    +0.005 A 
ATOM     20  C   UNL     1      -3.995  -0.069  26.112  0.00  0.00    +0.005 A 
ATOM     22  C   UNL     1      -3.310  -1.365  23.738  0.00  0.00    +0.012 A 
ATOM     23  C   UNL     1      -2.923  -0.961  26.089  0.00  0.00    +0.012 A 
ATOM     24  C   UNL     1      -2.580  -1.609  24.901  0.00  0.00    +0.055 A 
BRANCH  24  26
ATOM      1  F   UNL     1      -0.306  -2.076  25.478  0.00  0.00    -0.166 F 
ATOM      2  F   UNL     1      -1.054  -2.891  23.605  0.00  0.00    -0.166 F 
ATOM      3  F   UNL     1      -1.690  -3.746  25.501  0.00  0.00    -0.166 F 
ATOM     26  C   UNL     1      -1.432  -2.560  24.874  0.00  0.00    +0.417 C 
ENDBRANCH  24  26
ENDBRANCH  16  18
ENDBRANCH   7  16
ENDBRANCH  17  12
TORSDOF 8
ENDMDL
