MODEL 1
REMARK VINA RESULT:      -5.2      0.000      0.000
REMARK  Name = 26743682
REMARK  5 active torsions:
REMARK  status: ('A' for Active; 'I' for Inactive)
REMARK    1  A    between atoms: O_2  and  C_10
REMARK    2  A    between atoms: N_4  and  C_12
REMARK    3  A    between atoms: C_8  and  C_13
REMARK    4  A    between atoms: C_12  and  C_14
REMARK    5  A    between atoms: C_16  and  C_19
REMARK                            x       y       z     vdW  Elec       q    Type
REMARK                         _______ _______ _______ _____ _____    ______ ____
ROOT
ATOM      4  N   UNL     1      -4.729   1.487  25.172  0.00  0.00    -0.284 NA
ATOM      8  C   UNL     1      -3.931   2.351  24.278  0.00  0.00    +0.149 C 
ATOM      9  C   UNL     1      -4.255   3.788  24.727  0.00  0.00    +0.061 C 
ATOM     10  C   UNL     1      -5.278   3.632  25.845  0.00  0.00    +0.130 C 
ATOM     11  C   UNL     1      -5.895   2.273  25.573  0.00  0.00    +0.116 C 
ENDROOT
BRANCH   8  13
ATOM      3  O   UNL     1      -1.813   2.340  25.498  0.00  0.00    -0.336 OA
ATOM      5  N   UNL     1      -1.675   1.517  23.420  0.00  0.00    -0.189 NA
ATOM      6  N   UNL     1      -0.475   1.969  25.314  0.00  0.00    -0.054 NA
ATOM     13  C   UNL     1      -2.450   2.040  24.336  0.00  0.00    +0.245 A 
ATOM     16  C   UNL     1      -0.474   1.494  24.065  0.00  0.00    +0.220 A 
BRANCH  16  19
ATOM      7  N   UNL     1       1.855   1.645  23.722  0.00  0.00    -0.252 NA
ATOM     19  C   UNL     1       0.711   0.986  23.434  0.00  0.00    +0.111 A 
ATOM     20  C   UNL     1       0.638  -0.111  22.591  0.00  0.00    +0.031 A 
ATOM     21  C   UNL     1       1.816  -0.561  22.006  0.00  0.00    +0.004 A 
ATOM     22  C   UNL     1       2.980   1.179  23.134  0.00  0.00    +0.111 A 
ATOM     23  C   UNL     1       3.014   0.091  22.277  0.00  0.00    +0.020 A 
ENDBRANCH  16  19
ENDBRANCH   8  13
BRANCH  10   2
ATOM      2  O   UNL     1      -6.240   4.666  25.793  0.00  0.00    -0.390 OA
ATOM     24  H   UNL     1      -6.631   4.658  24.903  0.00  0.00    +0.210 HD
ENDBRANCH  10   2
BRANCH   4  12
ATOM     12  C   UNL     1      -5.106   0.220  24.559  0.00  0.00    +0.127 C 
BRANCH  12  14
ATOM      1  S   UNL     1      -4.022  -2.208  23.744  0.00  0.00    -0.100 S 
ATOM     14  C   UNL     1      -4.059  -0.840  24.774  0.00  0.00    +0.004 A 
ATOM     15  C   UNL     1      -3.067  -0.884  25.728  0.00  0.00    +0.012 A 
ATOM     17  C   UNL     1      -2.266  -2.056  25.612  0.00  0.00    +0.008 A 
ATOM     18  C   UNL     1      -2.675  -2.863  24.574  0.00  0.00    +0.045 A 
ENDBRANCH  12  14
ENDBRANCH   4  12
TORSDOF 5
ENDMDL
MODEL 2
REMARK VINA RESULT:      -5.0     14.672     17.010
REMARK  Name = 26743682
REMARK  5 active torsions:
REMARK  status: ('A' for Active; 'I' for Inactive)
REMARK    1  A    between atoms: O_2  and  C_10
REMARK    2  A    between atoms: N_4  and  C_12
REMARK    3  A    between atoms: C_8  and  C_13
REMARK    4  A    between atoms: C_12  and  C_14
REMARK    5  A    between atoms: C_16  and  C_19
REMARK                            x       y       z     vdW  Elec       q    Type
REMARK                         _______ _______ _______ _____ _____    ______ ____
ROOT
ATOM      4  N   UNL     1      -3.519 -10.016  11.655  0.00  0.00    -0.284 NA
ATOM      8  C   UNL     1      -2.755 -10.769  12.671  0.00  0.00    +0.149 C 
ATOM      9  C   UNL     1      -1.331 -10.185  12.606  0.00  0.00    +0.061 C 
ATOM     10  C   UNL     1      -1.381  -9.145  11.494  0.00  0.00    +0.130 C 
ATOM     11  C   UNL     1      -2.554  -9.594  10.642  0.00  0.00    +0.116 C 
ENDROOT
BRANCH   8  13
ATOM      3  O   UNL     1      -2.507 -10.753  15.103  0.00  0.00    -0.336 OA
ATOM      5  N   UNL     1      -4.619 -10.510  14.397  0.00  0.00    -0.189 NA
ATOM      6  N   UNL     1      -3.293 -10.636  16.257  0.00  0.00    -0.054 NA
ATOM     13  C   UNL     1      -3.366 -10.667  14.053  0.00  0.00    +0.245 A 
ATOM     16  C   UNL     1      -4.524 -10.496  15.758  0.00  0.00    +0.220 A 
BRANCH  16  19
ATOM      7  N   UNL     1      -6.789  -9.873  15.973  0.00  0.00    -0.252 NA
ATOM     19  C   UNL     1      -5.681 -10.339  16.592  0.00  0.00    +0.111 A 
ATOM     20  C   UNL     1      -5.620 -10.656  17.939  0.00  0.00    +0.031 A 
ATOM     21  C   UNL     1      -6.771 -10.485  18.701  0.00  0.00    +0.004 A 
ATOM     22  C   UNL     1      -7.888  -9.719  16.746  0.00  0.00    +0.111 A 
ATOM     23  C   UNL     1      -7.930 -10.008  18.101  0.00  0.00    +0.020 A 
ENDBRANCH  16  19
ENDBRANCH   8  13
BRANCH  10   2
ATOM      2  O   UNL     1      -0.172  -9.135  10.761  0.00  0.00    -0.390 OA
ATOM     24  H   UNL     1       0.495  -9.604  11.291  0.00  0.00    +0.210 HD
ENDBRANCH  10   2
BRANCH   4  12
ATOM     12  C   UNL     1      -4.618 -10.780  11.081  0.00  0.00    +0.127 C 
BRANCH  12  14
ATOM      1  S   UNL     1      -5.658 -10.369   8.534  0.00  0.00    -0.100 S 
ATOM     14  C   UNL     1      -5.479  -9.935  10.181  0.00  0.00    +0.004 A 
ATOM     15  C   UNL     1      -6.187  -8.796  10.495  0.00  0.00    +0.012 A 
ATOM     17  C   UNL     1      -6.886  -8.274   9.369  0.00  0.00    +0.008 A 
ATOM     18  C   UNL     1      -6.686  -9.033   8.237  0.00  0.00    +0.045 A 
ENDBRANCH  12  14
ENDBRANCH   4  12
TORSDOF 5
ENDMDL
MODEL 3
REMARK VINA RESULT:      -4.5     14.198     16.479
REMARK  Name = 26743682
REMARK  5 active torsions:
REMARK  status: ('A' for Active; 'I' for Inactive)
REMARK    1  A    between atoms: O_2  and  C_10
REMARK    2  A    between atoms: N_4  and  C_12
REMARK    3  A    between atoms: C_8  and  C_13
REMARK    4  A    between atoms: C_12  and  C_14
REMARK    5  A    between atoms: C_16  and  C_19
REMARK                            x       y       z     vdW  Elec       q    Type
REMARK                         _______ _______ _______ _____ _____    ______ ____
ROOT
ATOM      4  N   UNL     1      -2.806 -10.090  13.776  0.00  0.00    -0.284 NA
ATOM      8  C   UNL     1      -3.194 -10.781  15.023  0.00  0.00    +0.149 C 
ATOM      9  C   UNL     1      -2.103 -10.402  16.040  0.00  0.00    +0.061 C 
ATOM     10  C   UNL     1      -1.122  -9.534  15.262  0.00  0.00    +0.130 C 
ATOM     11  C   UNL     1      -1.352  -9.945  13.820  0.00  0.00    +0.116 C 
ENDROOT
BRANCH   8  13
ATOM      3  O   UNL     1      -4.735 -10.168  16.818  0.00  0.00    -0.336 OA
ATOM      5  N   UNL     1      -5.687 -10.274  14.794  0.00  0.00    -0.189 NA
ATOM      6  N   UNL     1      -6.085  -9.845  17.005  0.00  0.00    -0.054 NA
ATOM     13  C   UNL     1      -4.586 -10.405  15.489  0.00  0.00    +0.245 A 
ATOM     16  C   UNL     1      -6.579  -9.929  15.766  0.00  0.00    +0.220 A 
BRANCH  16  19
ATOM      7  N   UNL     1      -8.280  -9.666  14.153  0.00  0.00    -0.252 NA
ATOM     19  C   UNL     1      -7.959  -9.674  15.467  0.00  0.00    +0.111 A 
ATOM     20  C   UNL     1      -8.867  -9.455  16.489  0.00  0.00    +0.031 A 
ATOM     21  C   UNL     1     -10.192  -9.212  16.142  0.00  0.00    +0.004 A 
ATOM     22  C   UNL     1      -9.577  -9.426  13.855  0.00  0.00    +0.111 A 
ATOM     23  C   UNL     1     -10.561  -9.196  14.802  0.00  0.00    +0.020 A 
ENDBRANCH  16  19
ENDBRANCH   8  13
BRANCH  10   2
ATOM      2  O   UNL     1       0.207  -9.786  15.674  0.00  0.00    -0.390 OA
ATOM     24  H   UNL     1       0.194 -10.577  16.239  0.00  0.00    +0.210 HD
ENDBRANCH  10   2
BRANCH   4  12
ATOM     12  C   UNL     1      -3.253 -10.780  12.574  0.00  0.00    +0.127 C 
BRANCH  12  14
ATOM      1  S   UNL     1      -5.227  -8.978  11.806  0.00  0.00    -0.100 S 
ATOM     14  C   UNL     1      -3.762  -9.820  11.532  0.00  0.00    +0.004 A 
ATOM     15  C   UNL     1      -3.199  -9.495  10.318  0.00  0.00    +0.012 A 
ATOM     17  C   UNL     1      -3.980  -8.542   9.604  0.00  0.00    +0.008 A 
ATOM     18  C   UNL     1      -5.111  -8.174  10.299  0.00  0.00    +0.045 A 
ENDBRANCH  12  14
ENDBRANCH   4  12
TORSDOF 5
ENDMDL
MODEL 4
REMARK VINA RESULT:      -4.4      1.928      2.660
REMARK  Name = 26743682
REMARK  5 active torsions:
REMARK  status: ('A' for Active; 'I' for Inactive)
REMARK    1  A    between atoms: O_2  and  C_10
REMARK    2  A    between atoms: N_4  and  C_12
REMARK    3  A    between atoms: C_8  and  C_13
REMARK    4  A    between atoms: C_12  and  C_14
REMARK    5  A    between atoms: C_16  and  C_19
REMARK                            x       y       z     vdW  Elec       q    Type
REMARK                         _______ _______ _______ _____ _____    ______ ____
ROOT
ATOM      4  N   UNL     1      -2.578   1.741  24.613  0.00  0.00    -0.284 NA
ATOM      8  C   UNL     1      -1.512   2.343  23.787  0.00  0.00    +0.149 C 
ATOM      9  C   UNL     1      -1.099   3.619  24.545  0.00  0.00    +0.061 C 
ATOM     10  C   UNL     1      -2.019   3.671  25.758  0.00  0.00    +0.130 C 
ATOM     11  C   UNL     1      -3.215   2.841  25.333  0.00  0.00    +0.116 C 
ENDROOT
BRANCH   8  13
ATOM      3  O   UNL     1      -0.661   0.162  23.085  0.00  0.00    -0.336 OA
ATOM      5  N   UNL     1       0.929   1.597  23.738  0.00  0.00    -0.189 NA
ATOM      6  N   UNL     1       0.556  -0.518  22.951  0.00  0.00    -0.054 NA
ATOM     13  C   UNL     1      -0.351   1.399  23.553  0.00  0.00    +0.245 A 
ATOM     16  C   UNL     1       1.445   0.393  23.356  0.00  0.00    +0.220 A 
BRANCH  16  19
ATOM      7  N   UNL     1       3.651   1.187  23.095  0.00  0.00    -0.252 NA
ATOM     19  C   UNL     1       2.856   0.133  23.388  0.00  0.00    +0.111 A 
ATOM     20  C   UNL     1       3.326  -1.130  23.705  0.00  0.00    +0.031 A 
ATOM     21  C   UNL     1       4.703  -1.327  23.722  0.00  0.00    +0.004 A 
ATOM     22  C   UNL     1       4.984   0.957  23.121  0.00  0.00    +0.111 A 
ATOM     23  C   UNL     1       5.554  -0.268  23.425  0.00  0.00    +0.020 A 
ENDBRANCH  16  19
ENDBRANCH   8  13
BRANCH  10   2
ATOM      2  O   UNL     1      -2.383   5.005  26.055  0.00  0.00    -0.390 OA
ATOM     24  H   UNL     1      -1.563   5.521  26.136  0.00  0.00    +0.210 HD
ENDBRANCH  10   2
BRANCH   4  12
ATOM     12  C   UNL     1      -3.536   0.965  23.837  0.00  0.00    +0.127 C 
BRANCH  12  14
ATOM      1  S   UNL     1      -2.791  -0.949  25.712  0.00  0.00    -0.100 S 
ATOM     14  C   UNL     1      -3.554  -0.482  24.252  0.00  0.00    +0.004 A 
ATOM     15  C   UNL     1      -4.122  -1.554  23.600  0.00  0.00    +0.012 A 
ATOM     17  C   UNL     1      -3.928  -2.775  24.309  0.00  0.00    +0.008 A 
ATOM     18  C   UNL     1      -3.220  -2.590  25.476  0.00  0.00    +0.045 A 
ENDBRANCH  12  14
ENDBRANCH   4  12
TORSDOF 5
ENDMDL
MODEL 5
REMARK VINA RESULT:      -3.6      2.957      3.625
REMARK  Name = 26743682
REMARK  5 active torsions:
REMARK  status: ('A' for Active; 'I' for Inactive)
REMARK    1  A    between atoms: O_2  and  C_10
REMARK    2  A    between atoms: N_4  and  C_12
REMARK    3  A    between atoms: C_8  and  C_13
REMARK    4  A    between atoms: C_12  and  C_14
REMARK    5  A    between atoms: C_16  and  C_19
REMARK                            x       y       z     vdW  Elec       q    Type
REMARK                         _______ _______ _______ _____ _____    ______ ____
ROOT
ATOM      4  N   UNL     1      -3.925   1.770  24.770  0.00  0.00    -0.284 NA
ATOM      8  C   UNL     1      -3.090   2.986  24.695  0.00  0.00    +0.149 C 
ATOM      9  C   UNL     1      -3.920   4.078  25.394  0.00  0.00    +0.061 C 
ATOM     10  C   UNL     1      -5.223   3.393  25.786  0.00  0.00    +0.130 C 
ATOM     11  C   UNL     1      -5.313   2.224  24.823  0.00  0.00    +0.116 C 
ENDROOT
BRANCH   8  13
ATOM      3  O   UNL     1      -0.715   2.448  24.484  0.00  0.00    -0.336 OA
ATOM      5  N   UNL     1      -1.365   2.914  26.576  0.00  0.00    -0.189 NA
ATOM      6  N   UNL     1       0.430   2.331  25.283  0.00  0.00    -0.054 NA
ATOM     13  C   UNL     1      -1.725   2.795  25.324  0.00  0.00    +0.245 A 
ATOM     16  C   UNL     1      -0.035   2.620  26.502  0.00  0.00    +0.220 A 
BRANCH  16  19
ATOM      7  N   UNL     1       2.101   2.940  27.452  0.00  0.00    -0.252 NA
ATOM     19  C   UNL     1       0.804   2.625  27.667  0.00  0.00    +0.111 A 
ATOM     20  C   UNL     1       0.275   2.320  28.910  0.00  0.00    +0.031 A 
ATOM     21  C   UNL     1       1.133   2.339  30.005  0.00  0.00    +0.004 A 
ATOM     22  C   UNL     1       2.904   2.949  28.539  0.00  0.00    +0.111 A 
ATOM     23  C   UNL     1       2.474   2.659  29.824  0.00  0.00    +0.020 A 
ENDBRANCH  16  19
ENDBRANCH   8  13
BRANCH  10   2
ATOM      2  O   UNL     1      -6.318   4.277  25.644  0.00  0.00    -0.390 OA
ATOM     24  H   UNL     1      -6.447   4.433  24.693  0.00  0.00    +0.210 HD
ENDBRANCH  10   2
BRANCH   4  12
ATOM     12  C   UNL     1      -3.693   0.844  23.669  0.00  0.00    +0.127 C 
BRANCH  12  14
ATOM      1  S   UNL     1      -2.573  -0.919  25.505  0.00  0.00    -0.100 S 
ATOM     14  C   UNL     1      -3.560  -0.576  24.149  0.00  0.00    +0.004 A 
ATOM     15  C   UNL     1      -4.144  -1.713  23.635  0.00  0.00    +0.012 A 
ATOM     17  C   UNL     1      -3.777  -2.880  24.364  0.00  0.00    +0.008 A 
ATOM     18  C   UNL     1      -2.926  -2.592  25.408  0.00  0.00    +0.045 A 
ENDBRANCH  12  14
ENDBRANCH   4  12
TORSDOF 5
ENDMDL
MODEL 6
REMARK VINA RESULT:      -1.9      2.294      3.837
REMARK  Name = 26743682
REMARK  5 active torsions:
REMARK  status: ('A' for Active; 'I' for Inactive)
REMARK    1  A    between atoms: O_2  and  C_10
REMARK    2  A    between atoms: N_4  and  C_12
REMARK    3  A    between atoms: C_8  and  C_13
REMARK    4  A    between atoms: C_12  and  C_14
REMARK    5  A    between atoms: C_16  and  C_19
REMARK                            x       y       z     vdW  Elec       q    Type
REMARK                         _______ _______ _______ _____ _____    ______ ____
ROOT
ATOM      4  N   UNL     1      -1.331   2.164  25.376  0.00  0.00    -0.284 NA
ATOM      8  C   UNL     1      -0.939   2.328  23.962  0.00  0.00    +0.149 C 
ATOM      9  C   UNL     1      -0.577   3.818  23.823  0.00  0.00    +0.061 C 
ATOM     10  C   UNL     1      -0.841   4.418  25.198  0.00  0.00    +0.130 C 
ATOM     11  C   UNL     1      -1.842   3.461  25.816  0.00  0.00    +0.116 C 
ENDROOT
BRANCH   8  13
ATOM      3  O   UNL     1      -0.103   0.429  22.669  0.00  0.00    -0.336 OA
ATOM      5  N   UNL     1       1.445   1.414  23.953  0.00  0.00    -0.189 NA
ATOM      6  N   UNL     1       1.086  -0.279  22.458  0.00  0.00    -0.054 NA
ATOM     13  C   UNL     1       0.196   1.409  23.561  0.00  0.00    +0.245 A 
ATOM     16  C   UNL     1       1.951   0.361  23.249  0.00  0.00    +0.220 A 
BRANCH  16  19
ATOM      7  N   UNL     1       3.550  -1.304  23.740  0.00  0.00    -0.252 NA
ATOM     19  C   UNL     1       3.329  -0.026  23.358  0.00  0.00    +0.111 A 
ATOM     20  C   UNL     1       4.334   0.886  23.081  0.00  0.00    +0.031 A 
ATOM     21  C   UNL     1       5.652   0.459  23.203  0.00  0.00    +0.004 A 
ATOM     22  C   UNL     1       4.843  -1.683  23.848  0.00  0.00    +0.111 A 
ATOM     23  C   UNL     1       5.919  -0.849  23.593  0.00  0.00    +0.020 A 
ENDBRANCH  16  19
ENDBRANCH   8  13
BRANCH  10   2
ATOM      2  O   UNL     1      -1.365   5.726  25.084  0.00  0.00    -0.390 OA
ATOM     24  H   UNL     1      -1.667   5.999  25.967  0.00  0.00    +0.210 HD
ENDBRANCH  10   2
BRANCH   4  12
ATOM     12  C   UNL     1      -2.298   1.094  25.584  0.00  0.00    +0.127 C 
BRANCH  12  14
ATOM      1  S   UNL     1      -4.881   0.492  24.745  0.00  0.00    -0.100 S 
ATOM     14  C   UNL     1      -3.712   1.569  25.382  0.00  0.00    +0.004 A 
ATOM     15  C   UNL     1      -4.245   2.813  25.644  0.00  0.00    +0.012 A 
ATOM     17  C   UNL     1      -5.630   2.881  25.318  0.00  0.00    +0.008 A 
ATOM     18  C   UNL     1      -6.104   1.687  24.820  0.00  0.00    +0.045 A 
ENDBRANCH  12  14
ENDBRANCH   4  12
TORSDOF 5
ENDMDL
MODEL 7
REMARK VINA RESULT:      -1.5      2.542      3.947
REMARK  Name = 26743682
REMARK  5 active torsions:
REMARK  status: ('A' for Active; 'I' for Inactive)
REMARK    1  A    between atoms: O_2  and  C_10
REMARK    2  A    between atoms: N_4  and  C_12
REMARK    3  A    between atoms: C_8  and  C_13
REMARK    4  A    between atoms: C_12  and  C_14
REMARK    5  A    between atoms: C_16  and  C_19
REMARK                            x       y       z     vdW  Elec       q    Type
REMARK                         _______ _______ _______ _____ _____    ______ ____
ROOT
ATOM      4  N   UNL     1      -3.942   2.560  25.305  0.00  0.00    -0.284 NA
ATOM      8  C   UNL     1      -3.865   1.112  25.587  0.00  0.00    +0.149 C 
ATOM      9  C   UNL     1      -5.163   0.528  24.997  0.00  0.00    +0.061 C 
ATOM     10  C   UNL     1      -5.923   1.729  24.449  0.00  0.00    +0.130 C 
ATOM     11  C   UNL     1      -5.363   2.895  25.241  0.00  0.00    +0.116 C 
ENDROOT
BRANCH   8  13
ATOM      3  O   UNL     1      -2.483  -0.867  25.203  0.00  0.00    -0.336 OA
ATOM      5  N   UNL     1      -1.636   1.020  24.345  0.00  0.00    -0.189 NA
ATOM      6  N   UNL     1      -1.275  -1.225  24.592  0.00  0.00    -0.054 NA
ATOM     13  C   UNL     1      -2.620   0.471  25.011  0.00  0.00    +0.245 A 
ATOM     16  C   UNL     1      -0.835  -0.059  24.110  0.00  0.00    +0.220 A 
BRANCH  16  19
ATOM      7  N   UNL     1       0.484  -0.664  22.250  0.00  0.00    -0.252 NA
ATOM     19  C   UNL     1       0.399   0.062  23.388  0.00  0.00    +0.111 A 
ATOM     20  C   UNL     1       1.410   0.880  23.864  0.00  0.00    +0.031 A 
ATOM     21  C   UNL     1       2.585   0.960  23.124  0.00  0.00    +0.004 A 
ATOM     22  C   UNL     1       1.641  -0.561  21.558  0.00  0.00    +0.111 A 
ATOM     23  C   UNL     1       2.710   0.228  21.949  0.00  0.00    +0.020 A 
ENDBRANCH  16  19
ENDBRANCH   8  13
BRANCH  10   2
ATOM      2  O   UNL     1      -7.315   1.576  24.650  0.00  0.00    -0.390 OA
ATOM     24  H   UNL     1      -7.753   2.349  24.256  0.00  0.00    +0.210 HD
ENDBRANCH  10   2
BRANCH   4  12
ATOM     12  C   UNL     1      -3.231   3.373  26.284  0.00  0.00    +0.127 C 
BRANCH  12  14
ATOM      1  S   UNL     1      -0.590   3.488  25.418  0.00  0.00    -0.100 S 
ATOM     14  C   UNL     1      -2.136   4.188  25.647  0.00  0.00    +0.004 A 
ATOM     15  C   UNL     1      -2.188   5.487  25.194  0.00  0.00    +0.012 A 
ATOM     17  C   UNL     1      -0.942   5.914  24.651  0.00  0.00    +0.008 A 
ATOM     18  C   UNL     1       0.015   4.925  24.710  0.00  0.00    +0.045 A 
ENDBRANCH  12  14
ENDBRANCH   4  12
TORSDOF 5
ENDMDL
