MODEL 1
REMARK VINA RESULT:      -2.6      0.000      0.000
REMARK  Name = 11866301
REMARK  15 active torsions:
REMARK  status: ('A' for Active; 'I' for Inactive)
REMARK    1  A    between atoms: O_2  and  C_12
REMARK    2  A    between atoms: O_3  and  C_13
REMARK    3  A    between atoms: N_7  and  C_11
REMARK    4  A    between atoms: N_8  and  C_17
REMARK    5  A    between atoms: N_8  and  C_26
REMARK    6  A    between atoms: N_9  and  C_24
REMARK    7  A    between atoms: C_15  and  C_21
REMARK    8  A    between atoms: C_17  and  C_18
REMARK    9  A    between atoms: C_17  and  C_19
REMARK   10  A    between atoms: C_18  and  C_20
REMARK   11  A    between atoms: C_20  and  C_22
REMARK   12  A    between atoms: C_20  and  C_23
REMARK   13  A    between atoms: C_24  and  C_25
REMARK   14  A    between atoms: C_24  and  C_27
REMARK   15  A    between atoms: C_25  and  C_28
REMARK                            x       y       z     vdW  Elec       q    Type
REMARK                         _______ _______ _______ _____ _____    ______ ____
ROOT
ATOM     11  C   UNL     1      -0.580  -1.270  23.687  0.00  0.00    +0.127 C 
ATOM     12  C   UNL     1      -0.703  -2.240  24.878  0.00  0.00    +0.167 C 
ATOM     13  C   UNL     1      -2.165  -2.612  25.153  0.00  0.00    +0.149 C 
ATOM     14  C   UNL     1      -3.046  -1.371  25.382  0.00  0.00    +0.074 C 
ATOM     15  C   UNL     1      -2.696  -0.218  24.485  0.00  0.00    +0.015 C 
ATOM     16  C   UNL     1      -1.598  -0.163  23.713  0.00  0.00    +0.006 C 
ENDROOT
BRANCH  11   7
ATOM      4  O   UNL     1       0.869  -0.572  21.292  0.00  0.00    -0.274 OA
ATOM      7  N   UNL     1       0.738  -0.690  23.608  0.00  0.00    -0.305 N 
ATOM     19  C   UNL     1       1.359  -0.385  22.406  0.00  0.00    +0.231 C 
ATOM     32  H   UNL     1       1.243  -0.531  24.476  0.00  0.00    +0.149 HD
BRANCH  19  17
ATOM     17  C   UNL     1       2.759   0.187  22.598  0.00  0.00    +0.140 C 
BRANCH  17   8
ATOM      8  N   UNL     1       2.565   1.520  23.175  0.00  0.00    -0.309 NA
ATOM     26  C   UNL     1       1.310   1.585  23.905  0.00  0.00    +0.101 C 
ATOM     35  H   UNL     1       3.349   1.779  23.772  0.00  0.00    +0.122 HD
ENDBRANCH  17   8
BRANCH  17  18
ATOM     18  C   UNL     1       3.619  -0.674  23.536  0.00  0.00    +0.031 C 
BRANCH  18  20
ATOM     20  C   UNL     1       5.137  -0.413  23.434  0.00  0.00    -0.015 C 
ATOM     22  C   UNL     1       5.896  -1.440  24.279  0.00  0.00    +0.007 C 
ATOM     23  C   UNL     1       5.519   1.001  23.876  0.00  0.00    +0.007 C 
ENDBRANCH  18  20
ENDBRANCH  17  18
ENDBRANCH  19  17
ENDBRANCH  11   7
BRANCH  15  21
ATOM      5  O   UNL     1      -4.187   1.220  23.378  0.00  0.00    -0.271 OA
ATOM      9  N   UNL     1      -3.758   1.566  25.642  0.00  0.00    -0.300 N 
ATOM     21  C   UNL     1      -3.621   0.918  24.427  0.00  0.00    +0.241 C 
ATOM     36  H   UNL     1      -3.213   1.249  26.440  0.00  0.00    +0.150 HD
BRANCH   9  24
ATOM     24  C   UNL     1      -4.612   2.714  25.832  0.00  0.00    +0.164 C 
BRANCH  24  27
ATOM      6  O   UNL     1      -6.671   2.067  24.715  0.00  0.00    -0.274 OA
ATOM     10  N   UNL     1      -6.568   1.910  27.004  0.00  0.00    -0.328 N 
ATOM     27  C   UNL     1      -6.050   2.219  25.764  0.00  0.00    +0.231 C 
ATOM     37  H   UNL     1      -6.042   2.037  27.863  0.00  0.00    +0.145 HD
ATOM     38  H   UNL     1      -7.513   1.552  27.099  0.00  0.00    +0.145 HD
ENDBRANCH  24  27
BRANCH  24  25
ATOM     25  C   UNL     1      -4.371   3.802  24.777  0.00  0.00    +0.074 C 
BRANCH  25  28
ATOM      1  S   UNL     1      -1.891   3.479  23.552  0.00  0.00    -0.102 S 
ATOM     28  C   UNL     1      -2.921   4.217  24.703  0.00  0.00    -0.008 A 
ATOM     29  C   UNL     1      -2.258   5.156  25.463  0.00  0.00    +0.011 A 
ATOM     30  C   UNL     1      -0.886   5.269  25.096  0.00  0.00    +0.008 A 
ATOM     31  C   UNL     1      -0.553   4.414  24.068  0.00  0.00    +0.045 A 
ENDBRANCH  25  28
ENDBRANCH  24  25
ENDBRANCH   9  24
ENDBRANCH  15  21
BRANCH  12   2
ATOM      2  O   UNL     1      -0.157  -1.630  26.051  0.00  0.00    -0.387 OA
ATOM     33  H   UNL     1       0.174  -0.752  25.797  0.00  0.00    +0.210 HD
ENDBRANCH  12   2
BRANCH  13   3
ATOM      3  O   UNL     1      -2.684  -3.387  24.074  0.00  0.00    -0.389 OA
ATOM     34  H   UNL     1      -3.082  -4.189  24.453  0.00  0.00    +0.210 HD
ENDBRANCH  13   3
TORSDOF 12
ENDMDL
MODEL 2
REMARK VINA RESULT:      -1.9      2.190      4.232
REMARK  Name = 11866301
REMARK  15 active torsions:
REMARK  status: ('A' for Active; 'I' for Inactive)
REMARK    1  A    between atoms: O_2  and  C_12
REMARK    2  A    between atoms: O_3  and  C_13
REMARK    3  A    between atoms: N_7  and  C_11
REMARK    4  A    between atoms: N_8  and  C_17
REMARK    5  A    between atoms: N_8  and  C_26
REMARK    6  A    between atoms: N_9  and  C_24
REMARK    7  A    between atoms: C_15  and  C_21
REMARK    8  A    between atoms: C_17  and  C_18
REMARK    9  A    between atoms: C_17  and  C_19
REMARK   10  A    between atoms: C_18  and  C_20
REMARK   11  A    between atoms: C_20  and  C_22
REMARK   12  A    between atoms: C_20  and  C_23
REMARK   13  A    between atoms: C_24  and  C_25
REMARK   14  A    between atoms: C_24  and  C_27
REMARK   15  A    between atoms: C_25  and  C_28
REMARK                            x       y       z     vdW  Elec       q    Type
REMARK                         _______ _______ _______ _____ _____    ______ ____
ROOT
ATOM     11  C   UNL     1       0.410   2.530  24.458  0.00  0.00    +0.127 C 
ATOM     12  C   UNL     1       0.414   4.037  24.136  0.00  0.00    +0.167 C 
ATOM     13  C   UNL     1      -0.818   4.740  24.717  0.00  0.00    +0.149 C 
ATOM     14  C   UNL     1      -2.132   4.096  24.239  0.00  0.00    +0.074 C 
ATOM     15  C   UNL     1      -2.064   2.598  24.153  0.00  0.00    +0.015 C 
ATOM     16  C   UNL     1      -0.933   1.883  24.258  0.00  0.00    +0.006 C 
ENDROOT
BRANCH  11   7
ATOM      4  O   UNL     1       0.516  -0.312  23.978  0.00  0.00    -0.274 OA
ATOM      7  N   UNL     1       1.393   1.817  23.679  0.00  0.00    -0.305 N 
ATOM     19  C   UNL     1       1.363   0.442  23.502  0.00  0.00    +0.231 C 
ATOM     32  H   UNL     1       2.158   2.350  23.274  0.00  0.00    +0.149 HD
BRANCH  19  17
ATOM     17  C   UNL     1       2.532  -0.065  22.664  0.00  0.00    +0.140 C 
BRANCH  17   8
ATOM      8  N   UNL     1       2.082   0.005  21.273  0.00  0.00    -0.309 NA
ATOM     26  C   UNL     1       0.871  -0.776  21.085  0.00  0.00    +0.101 C 
ATOM     35  H   UNL     1       1.942   0.971  20.981  0.00  0.00    +0.122 HD
ENDBRANCH  17   8
BRANCH  17  18
ATOM     18  C   UNL     1       3.799   0.786  22.853  0.00  0.00    +0.031 C 
BRANCH  18  20
ATOM     20  C   UNL     1       5.051  -0.014  23.272  0.00  0.00    -0.015 C 
ATOM     22  C   UNL     1       4.630  -1.375  23.835  0.00  0.00    +0.007 C 
ATOM     23  C   UNL     1       5.903   0.729  24.303  0.00  0.00    +0.007 C 
ENDBRANCH  18  20
ENDBRANCH  17  18
ENDBRANCH  19  17
ENDBRANCH  11   7
BRANCH  15  21
ATOM      5  O   UNL     1      -3.606   1.378  22.868  0.00  0.00    -0.271 OA
ATOM      9  N   UNL     1      -4.082   1.786  25.113  0.00  0.00    -0.300 N 
ATOM     21  C   UNL     1      -3.317   1.859  23.962  0.00  0.00    +0.241 C 
ATOM     36  H   UNL     1      -3.758   2.252  25.957  0.00  0.00    +0.150 HD
BRANCH   9  24
ATOM     24  C   UNL     1      -5.357   1.112  25.171  0.00  0.00    +0.164 C 
BRANCH  24  27
ATOM      6  O   UNL     1      -7.063   1.550  26.845  0.00  0.00    -0.274 OA
ATOM     10  N   UNL     1      -6.136   3.331  25.729  0.00  0.00    -0.328 N 
ATOM     27  C   UNL     1      -6.289   1.987  25.997  0.00  0.00    +0.231 C 
ATOM     37  H   UNL     1      -5.490   3.679  25.029  0.00  0.00    +0.145 HD
ATOM     38  H   UNL     1      -6.686   4.026  26.224  0.00  0.00    +0.145 HD
ENDBRANCH  24  27
BRANCH  24  25
ATOM     25  C   UNL     1      -5.250  -0.287  25.790  0.00  0.00    +0.074 C 
BRANCH  25  28
ATOM      1  S   UNL     1      -4.018  -1.985  23.957  0.00  0.00    -0.102 S 
ATOM     28  C   UNL     1      -3.993  -1.009  25.363  0.00  0.00    -0.008 A 
ATOM     29  C   UNL     1      -2.754  -1.003  25.966  0.00  0.00    +0.011 A 
ATOM     30  C   UNL     1      -1.814  -1.812  25.264  0.00  0.00    +0.008 A 
ATOM     31  C   UNL     1      -2.370  -2.403  24.150  0.00  0.00    +0.045 A 
ENDBRANCH  25  28
ENDBRANCH  24  25
ENDBRANCH   9  24
ENDBRANCH  15  21
BRANCH  12   2
ATOM      2  O   UNL     1       0.424   4.224  22.719  0.00  0.00    -0.387 OA
ATOM     33  H   UNL     1       0.307   3.351  22.308  0.00  0.00    +0.210 HD
ENDBRANCH  12   2
BRANCH  13   3
ATOM      3  O   UNL     1      -0.761   4.733  26.142  0.00  0.00    -0.389 OA
ATOM     34  H   UNL     1      -0.977   3.832  26.439  0.00  0.00    +0.210 HD
ENDBRANCH  13   3
TORSDOF 12
ENDMDL
MODEL 3
REMARK VINA RESULT:      -1.0      1.581      2.079
REMARK  Name = 11866301
REMARK  15 active torsions:
REMARK  status: ('A' for Active; 'I' for Inactive)
REMARK    1  A    between atoms: O_2  and  C_12
REMARK    2  A    between atoms: O_3  and  C_13
REMARK    3  A    between atoms: N_7  and  C_11
REMARK    4  A    between atoms: N_8  and  C_17
REMARK    5  A    between atoms: N_8  and  C_26
REMARK    6  A    between atoms: N_9  and  C_24
REMARK    7  A    between atoms: C_15  and  C_21
REMARK    8  A    between atoms: C_17  and  C_18
REMARK    9  A    between atoms: C_17  and  C_19
REMARK   10  A    between atoms: C_18  and  C_20
REMARK   11  A    between atoms: C_20  and  C_22
REMARK   12  A    between atoms: C_20  and  C_23
REMARK   13  A    between atoms: C_24  and  C_25
REMARK   14  A    between atoms: C_24  and  C_27
REMARK   15  A    between atoms: C_25  and  C_28
REMARK                            x       y       z     vdW  Elec       q    Type
REMARK                         _______ _______ _______ _____ _____    ______ ____
ROOT
ATOM     11  C   UNL     1      -0.871  -1.334  23.961  0.00  0.00    +0.127 C 
ATOM     12  C   UNL     1      -1.014  -2.115  25.282  0.00  0.00    +0.167 C 
ATOM     13  C   UNL     1      -2.478  -2.461  25.576  0.00  0.00    +0.149 C 
ATOM     14  C   UNL     1      -3.376  -1.211  25.596  0.00  0.00    +0.074 C 
ATOM     15  C   UNL     1      -3.015  -0.201  24.544  0.00  0.00    +0.015 C 
ATOM     16  C   UNL     1      -1.900  -0.249  23.798  0.00  0.00    +0.006 C 
ENDROOT
BRANCH  11   7
ATOM      4  O   UNL     1       0.435  -0.543  21.513  0.00  0.00    -0.274 OA
ATOM      7  N   UNL     1       0.443  -0.755  23.826  0.00  0.00    -0.305 N 
ATOM     19  C   UNL     1       0.991  -0.404  22.601  0.00  0.00    +0.231 C 
ATOM     32  H   UNL     1       1.000  -0.634  24.667  0.00  0.00    +0.149 HD
BRANCH  19  17
ATOM     17  C   UNL     1       2.404   0.156  22.731  0.00  0.00    +0.140 C 
BRANCH  17   8
ATOM      8  N   UNL     1       2.267   1.400  23.493  0.00  0.00    -0.309 NA
ATOM     26  C   UNL     1       0.870   1.672  23.785  0.00  0.00    +0.101 C 
ATOM     35  H   UNL     1       2.820   1.369  24.348  0.00  0.00    +0.122 HD
ENDBRANCH  17   8
BRANCH  17  18
ATOM     18  C   UNL     1       3.350  -0.810  23.462  0.00  0.00    +0.031 C 
BRANCH  18  20
ATOM     20  C   UNL     1       4.850  -0.471  23.316  0.00  0.00    -0.015 C 
ATOM     22  C   UNL     1       5.617  -0.987  24.536  0.00  0.00    +0.007 C 
ATOM     23  C   UNL     1       5.097   1.029  23.148  0.00  0.00    +0.007 C 
ENDBRANCH  18  20
ENDBRANCH  17  18
ENDBRANCH  19  17
ENDBRANCH  11   7
BRANCH  15  21
ATOM      5  O   UNL     1      -5.045   0.940  24.853  0.00  0.00    -0.271 OA
ATOM      9  N   UNL     1      -3.458   1.835  23.400  0.00  0.00    -0.300 N 
ATOM     21  C   UNL     1      -3.949   0.901  24.296  0.00  0.00    +0.241 C 
ATOM     36  H   UNL     1      -2.547   1.684  22.973  0.00  0.00    +0.150 HD
BRANCH   9  24
ATOM     24  C   UNL     1      -4.197   3.008  22.997  0.00  0.00    +0.164 C 
BRANCH  24  27
ATOM      6  O   UNL     1      -4.358   4.155  20.861  0.00  0.00    -0.274 OA
ATOM     10  N   UNL     1      -2.681   2.613  21.157  0.00  0.00    -0.328 N 
ATOM     27  C   UNL     1      -3.790   3.324  21.565  0.00  0.00    +0.231 C 
ATOM     37  H   UNL     1      -2.218   1.932  21.750  0.00  0.00    +0.145 HD
ATOM     38  H   UNL     1      -2.294   2.742  20.227  0.00  0.00    +0.145 HD
ENDBRANCH  24  27
BRANCH  24  25
ATOM     25  C   UNL     1      -3.924   4.211  23.908  0.00  0.00    +0.074 C 
BRANCH  25  28
ATOM      1  S   UNL     1      -1.189   4.647  24.202  0.00  0.00    -0.102 S 
ATOM     28  C   UNL     1      -2.686   4.023  24.752  0.00  0.00    -0.008 A 
ATOM     29  C   UNL     1      -2.565   3.388  25.969  0.00  0.00    +0.011 A 
ATOM     30  C   UNL     1      -1.226   3.414  26.456  0.00  0.00    +0.008 A 
ATOM     31  C   UNL     1      -0.374   4.069  25.593  0.00  0.00    +0.045 A 
ENDBRANCH  25  28
ENDBRANCH  24  25
ENDBRANCH   9  24
ENDBRANCH  15  21
BRANCH  12   2
ATOM      2  O   UNL     1      -0.502  -1.330  26.361  0.00  0.00    -0.387 OA
ATOM     33  H   UNL     1       0.465  -1.422  26.357  0.00  0.00    +0.210 HD
ENDBRANCH  12   2
BRANCH  13   3
ATOM      3  O   UNL     1      -2.964  -3.396  24.614  0.00  0.00    -0.389 OA
ATOM     34  H   UNL     1      -3.375  -4.131  25.100  0.00  0.00    +0.210 HD
ENDBRANCH  13   3
TORSDOF 12
ENDMDL
MODEL 4
REMARK VINA RESULT:      -0.9      1.892      3.135
REMARK  Name = 11866301
REMARK  15 active torsions:
REMARK  status: ('A' for Active; 'I' for Inactive)
REMARK    1  A    between atoms: O_2  and  C_12
REMARK    2  A    between atoms: O_3  and  C_13
REMARK    3  A    between atoms: N_7  and  C_11
REMARK    4  A    between atoms: N_8  and  C_17
REMARK    5  A    between atoms: N_8  and  C_26
REMARK    6  A    between atoms: N_9  and  C_24
REMARK    7  A    between atoms: C_15  and  C_21
REMARK    8  A    between atoms: C_17  and  C_18
REMARK    9  A    between atoms: C_17  and  C_19
REMARK   10  A    between atoms: C_18  and  C_20
REMARK   11  A    between atoms: C_20  and  C_22
REMARK   12  A    between atoms: C_20  and  C_23
REMARK   13  A    between atoms: C_24  and  C_25
REMARK   14  A    between atoms: C_24  and  C_27
REMARK   15  A    between atoms: C_25  and  C_28
REMARK                            x       y       z     vdW  Elec       q    Type
REMARK                         _______ _______ _______ _____ _____    ______ ____
ROOT
ATOM     11  C   UNL     1      -0.238  -0.955  23.589  0.00  0.00    +0.127 C 
ATOM     12  C   UNL     1      -0.659  -1.731  24.852  0.00  0.00    +0.167 C 
ATOM     13  C   UNL     1      -2.183  -1.756  25.016  0.00  0.00    +0.149 C 
ATOM     14  C   UNL     1      -2.787  -0.339  25.033  0.00  0.00    +0.074 C 
ATOM     15  C   UNL     1      -2.127   0.602  24.066  0.00  0.00    +0.015 C 
ATOM     16  C   UNL     1      -0.990   0.335  23.405  0.00  0.00    +0.006 C 
ENDROOT
BRANCH  11   7
ATOM      4  O   UNL     1       1.418  -0.422  21.287  0.00  0.00    -0.274 OA
ATOM      7  N   UNL     1       1.177  -0.676  23.583  0.00  0.00    -0.305 N 
ATOM     19  C   UNL     1       1.894  -0.430  22.422  0.00  0.00    +0.231 C 
ATOM     32  H   UNL     1       1.671  -0.697  24.471  0.00  0.00    +0.149 HD
BRANCH  19  17
ATOM     17  C   UNL     1       3.377  -0.196  22.688  0.00  0.00    +0.140 C 
BRANCH  17   8
ATOM      8  N   UNL     1       3.472   1.160  23.234  0.00  0.00    -0.309 NA
ATOM     26  C   UNL     1       4.065   2.063  22.263  0.00  0.00    +0.101 C 
ATOM     35  H   UNL     1       2.560   1.497  23.537  0.00  0.00    +0.122 HD
ENDBRANCH  17   8
BRANCH  17  18
ATOM     18  C   UNL     1       3.958  -1.210  23.687  0.00  0.00    +0.031 C 
BRANCH  18  20
ATOM     20  C   UNL     1       5.444  -0.982  24.040  0.00  0.00    -0.015 C 
ATOM     22  C   UNL     1       5.568   0.189  25.019  0.00  0.00    +0.007 C 
ATOM     23  C   UNL     1       6.305  -0.713  22.805  0.00  0.00    +0.007 C 
ENDBRANCH  18  20
ENDBRANCH  17  18
ENDBRANCH  19  17
ENDBRANCH  11   7
BRANCH  15  21
ATOM      5  O   UNL     1      -3.532   2.037  22.848  0.00  0.00    -0.271 OA
ATOM      9  N   UNL     1      -2.435   2.863  24.731  0.00  0.00    -0.300 N 
ATOM     21  C   UNL     1      -2.775   1.891  23.806  0.00  0.00    +0.241 C 
ATOM     36  H   UNL     1      -1.771   2.639  25.468  0.00  0.00    +0.150 HD
BRANCH   9  24
ATOM     24  C   UNL     1      -2.946   4.213  24.682  0.00  0.00    +0.164 C 
BRANCH  24  27
ATOM      6  O   UNL     1      -1.921   6.345  25.234  0.00  0.00    -0.274 OA
ATOM     10  N   UNL     1      -0.587   4.478  25.139  0.00  0.00    -0.328 N 
ATOM     27  C   UNL     1      -1.792   5.141  25.029  0.00  0.00    +0.231 C 
ATOM     37  H   UNL     1      -0.495   3.481  24.970  0.00  0.00    +0.145 HD
ATOM     38  H   UNL     1       0.261   4.977  25.383  0.00  0.00    +0.145 HD
ENDBRANCH  24  27
BRANCH  24  25
ATOM     25  C   UNL     1      -4.116   4.429  25.650  0.00  0.00    +0.074 C 
BRANCH  25  28
ATOM      1  S   UNL     1      -5.482   2.464  27.074  0.00  0.00    -0.102 S 
ATOM     28  C   UNL     1      -5.104   3.287  25.621  0.00  0.00    -0.008 A 
ATOM     29  C   UNL     1      -5.790   2.773  24.543  0.00  0.00    +0.011 A 
ATOM     30  C   UNL     1      -6.637   1.689  24.914  0.00  0.00    +0.008 A 
ATOM     31  C   UNL     1      -6.567   1.416  26.263  0.00  0.00    +0.045 A 
ENDBRANCH  25  28
ENDBRANCH  24  25
ENDBRANCH   9  24
ENDBRANCH  15  21
BRANCH  12   2
ATOM      2  O   UNL     1      -0.083  -1.116  26.006  0.00  0.00    -0.387 OA
ATOM     33  H   UNL     1      -0.515  -0.253  26.125  0.00  0.00    +0.210 HD
ENDBRANCH  12   2
BRANCH  13   3
ATOM      3  O   UNL     1      -2.777  -2.526  23.972  0.00  0.00    -0.389 OA
ATOM     34  H   UNL     1      -3.360  -1.935  23.466  0.00  0.00    +0.210 HD
ENDBRANCH  13   3
TORSDOF 12
ENDMDL
MODEL 5
REMARK VINA RESULT:       0.4      2.463      7.519
REMARK  Name = 11866301
REMARK  15 active torsions:
REMARK  status: ('A' for Active; 'I' for Inactive)
REMARK    1  A    between atoms: O_2  and  C_12
REMARK    2  A    between atoms: O_3  and  C_13
REMARK    3  A    between atoms: N_7  and  C_11
REMARK    4  A    between atoms: N_8  and  C_17
REMARK    5  A    between atoms: N_8  and  C_26
REMARK    6  A    between atoms: N_9  and  C_24
REMARK    7  A    between atoms: C_15  and  C_21
REMARK    8  A    between atoms: C_17  and  C_18
REMARK    9  A    between atoms: C_17  and  C_19
REMARK   10  A    between atoms: C_18  and  C_20
REMARK   11  A    between atoms: C_20  and  C_22
REMARK   12  A    between atoms: C_20  and  C_23
REMARK   13  A    between atoms: C_24  and  C_25
REMARK   14  A    between atoms: C_24  and  C_27
REMARK   15  A    between atoms: C_25  and  C_28
REMARK                            x       y       z     vdW  Elec       q    Type
REMARK                         _______ _______ _______ _____ _____    ______ ____
ROOT
ATOM     11  C   UNL     1      -3.006   3.632  24.076  0.00  0.00    +0.127 C 
ATOM     12  C   UNL     1      -2.787   4.683  25.182  0.00  0.00    +0.167 C 
ATOM     13  C   UNL     1      -1.385   5.297  25.105  0.00  0.00    +0.149 C 
ATOM     14  C   UNL     1      -0.280   4.227  25.160  0.00  0.00    +0.074 C 
ATOM     15  C   UNL     1      -0.621   2.979  24.397  0.00  0.00    +0.015 C 
ATOM     16  C   UNL     1      -1.836   2.703  23.899  0.00  0.00    +0.006 C 
ENDROOT
BRANCH  11   7
ATOM      4  O   UNL     1      -3.299   1.448  25.937  0.00  0.00    -0.274 OA
ATOM      7  N   UNL     1      -4.193   2.848  24.315  0.00  0.00    -0.305 N 
ATOM     19  C   UNL     1      -4.241   1.812  25.235  0.00  0.00    +0.231 C 
ATOM     32  H   UNL     1      -5.018   3.048  23.755  0.00  0.00    +0.149 HD
BRANCH  19  17
ATOM     17  C   UNL     1      -5.601   1.123  25.271  0.00  0.00    +0.140 C 
BRANCH  17   8
ATOM      8  N   UNL     1      -6.586   2.183  25.043  0.00  0.00    -0.309 NA
ATOM     26  C   UNL     1      -6.300   3.338  25.878  0.00  0.00    +0.101 C 
ATOM     35  H   UNL     1      -6.624   2.444  24.059  0.00  0.00    +0.122 HD
ENDBRANCH  17   8
BRANCH  17  18
ATOM     18  C   UNL     1      -5.735   0.037  24.192  0.00  0.00    +0.031 C 
BRANCH  18  20
ATOM     20  C   UNL     1      -4.473  -0.830  23.995  0.00  0.00    -0.015 C 
ATOM     22  C   UNL     1      -3.563  -0.185  22.945  0.00  0.00    +0.007 C 
ATOM     23  C   UNL     1      -4.805  -2.263  23.579  0.00  0.00    +0.007 C 
ENDBRANCH  18  20
ENDBRANCH  17  18
ENDBRANCH  19  17
ENDBRANCH  11   7
BRANCH  15  21
ATOM      5  O   UNL     1       1.626   2.346  24.132  0.00  0.00    -0.271 OA
ATOM      9  N   UNL     1      -0.031   0.714  23.982  0.00  0.00    -0.300 N 
ATOM     21  C   UNL     1       0.445   2.001  24.160  0.00  0.00    +0.241 C 
ATOM     36  H   UNL     1      -1.034   0.548  23.993  0.00  0.00    +0.150 HD
BRANCH   9  24
ATOM     24  C   UNL     1       0.829  -0.419  23.732  0.00  0.00    +0.164 C 
BRANCH  24  27
ATOM      6  O   UNL     1       1.062  -0.334  21.315  0.00  0.00    -0.274 OA
ATOM     10  N   UNL     1       2.818   0.380  22.612  0.00  0.00    -0.328 N 
ATOM     27  C   UNL     1       1.557  -0.147  22.423  0.00  0.00    +0.231 C 
ATOM     37  H   UNL     1       3.214   0.533  23.534  0.00  0.00    +0.145 HD
ATOM     38  H   UNL     1       3.404   0.623  21.821  0.00  0.00    +0.145 HD
ENDBRANCH  24  27
BRANCH  24  25
ATOM     25  C   UNL     1       0.049  -1.736  23.645  0.00  0.00    +0.074 C 
BRANCH  25  28
ATOM      1  S   UNL     1      -1.074  -0.673  25.962  0.00  0.00    -0.102 S 
ATOM     28  C   UNL     1      -1.006  -1.850  24.720  0.00  0.00    -0.008 A 
ATOM     29  C   UNL     1      -1.982  -2.812  24.867  0.00  0.00    +0.011 A 
ATOM     30  C   UNL     1      -2.794  -2.579  26.014  0.00  0.00    +0.008 A 
ATOM     31  C   UNL     1      -2.410  -1.448  26.700  0.00  0.00    +0.045 A 
ENDBRANCH  25  28
ENDBRANCH  24  25
ENDBRANCH   9  24
ENDBRANCH  15  21
BRANCH  12   2
ATOM      2  O   UNL     1      -2.951   4.071  26.464  0.00  0.00    -0.387 OA
ATOM     33  H   UNL     1      -3.905   3.991  26.630  0.00  0.00    +0.210 HD
ENDBRANCH  12   2
BRANCH  13   3
ATOM      3  O   UNL     1      -1.254   6.074  23.916  0.00  0.00    -0.389 OA
ATOM     34  H   UNL     1      -1.537   6.981  24.125  0.00  0.00    +0.210 HD
ENDBRANCH  13   3
TORSDOF 12
ENDMDL
MODEL 6
REMARK VINA RESULT:       0.9      2.527      7.754
REMARK  Name = 11866301
REMARK  15 active torsions:
REMARK  status: ('A' for Active; 'I' for Inactive)
REMARK    1  A    between atoms: O_2  and  C_12
REMARK    2  A    between atoms: O_3  and  C_13
REMARK    3  A    between atoms: N_7  and  C_11
REMARK    4  A    between atoms: N_8  and  C_17
REMARK    5  A    between atoms: N_8  and  C_26
REMARK    6  A    between atoms: N_9  and  C_24
REMARK    7  A    between atoms: C_15  and  C_21
REMARK    8  A    between atoms: C_17  and  C_18
REMARK    9  A    between atoms: C_17  and  C_19
REMARK   10  A    between atoms: C_18  and  C_20
REMARK   11  A    between atoms: C_20  and  C_22
REMARK   12  A    between atoms: C_20  and  C_23
REMARK   13  A    between atoms: C_24  and  C_25
REMARK   14  A    between atoms: C_24  and  C_27
REMARK   15  A    between atoms: C_25  and  C_28
REMARK                            x       y       z     vdW  Elec       q    Type
REMARK                         _______ _______ _______ _____ _____    ______ ____
ROOT
ATOM     11  C   UNL     1      -2.791   3.645  23.801  0.00  0.00    +0.127 C 
ATOM     12  C   UNL     1      -2.727   4.510  25.074  0.00  0.00    +0.167 C 
ATOM     13  C   UNL     1      -1.331   5.111  25.277  0.00  0.00    +0.149 C 
ATOM     14  C   UNL     1      -0.234   4.031  25.310  0.00  0.00    +0.074 C 
ATOM     15  C   UNL     1      -0.463   2.920  24.326  0.00  0.00    +0.015 C 
ATOM     16  C   UNL     1      -1.601   2.740  23.636  0.00  0.00    +0.006 C 
ENDROOT
BRANCH  11   7
ATOM      4  O   UNL     1      -3.091   0.908  24.661  0.00  0.00    -0.274 OA
ATOM      7  N   UNL     1      -3.993   2.848  23.759  0.00  0.00    -0.305 N 
ATOM     19  C   UNL     1      -4.043   1.534  24.197  0.00  0.00    +0.231 C 
ATOM     32  H   UNL     1      -4.828   3.266  23.356  0.00  0.00    +0.149 HD
BRANCH  19  17
ATOM     17  C   UNL     1      -5.421   0.908  24.014  0.00  0.00    +0.140 C 
BRANCH  17   8
ATOM      8  N   UNL     1      -5.310  -0.454  24.541  0.00  0.00    -0.309 NA
ATOM     26  C   UNL     1      -4.700  -1.336  23.561  0.00  0.00    +0.101 C 
ATOM     35  H   UNL     1      -4.791  -0.466  25.418  0.00  0.00    +0.122 HD
ENDBRANCH  17   8
BRANCH  17  18
ATOM     18  C   UNL     1      -6.518   1.679  24.766  0.00  0.00    +0.031 C 
BRANCH  18  20
ATOM     20  C   UNL     1      -6.029   2.416  26.032  0.00  0.00    -0.015 C 
ATOM     22  C   UNL     1      -6.692   1.809  27.271  0.00  0.00    +0.007 C 
ATOM     23  C   UNL     1      -6.312   3.919  25.980  0.00  0.00    +0.007 C 
ENDBRANCH  18  20
ENDBRANCH  17  18
ENDBRANCH  19  17
ENDBRANCH  11   7
BRANCH  15  21
ATOM      5  O   UNL     1       1.787   2.375  23.928  0.00  0.00    -0.271 OA
ATOM      9  N   UNL     1       0.214   0.659  24.047  0.00  0.00    -0.300 N 
ATOM     21  C   UNL     1       0.633   1.977  24.081  0.00  0.00    +0.241 C 
ATOM     36  H   UNL     1      -0.775   0.447  24.154  0.00  0.00    +0.150 HD
BRANCH   9  24
ATOM     24  C   UNL     1       1.112  -0.449  23.819  0.00  0.00    +0.164 C 
BRANCH  24  27
ATOM      6  O   UNL     1       1.202  -0.399  21.391  0.00  0.00    -0.274 OA
ATOM     10  N   UNL     1       3.059   0.258  22.572  0.00  0.00    -0.328 N 
ATOM     27  C   UNL     1       1.770  -0.220  22.466  0.00  0.00    +0.231 C 
ATOM     37  H   UNL     1       3.516   0.405  23.467  0.00  0.00    +0.145 HD
ATOM     38  H   UNL     1       3.606   0.469  21.744  0.00  0.00    +0.145 HD
ENDBRANCH  24  27
BRANCH  24  25
ATOM     25  C   UNL     1       0.388  -1.801  23.839  0.00  0.00    +0.074 C 
BRANCH  25  28
ATOM      1  S   UNL     1      -2.113  -2.852  24.471  0.00  0.00    -0.102 S 
ATOM     28  C   UNL     1      -0.795  -1.804  24.779  0.00  0.00    -0.008 A 
ATOM     29  C   UNL     1      -0.990  -1.050  25.915  0.00  0.00    +0.011 A 
ATOM     30  C   UNL     1      -2.238  -1.335  26.540  0.00  0.00    +0.008 A 
ATOM     31  C   UNL     1      -2.949  -2.299  25.858  0.00  0.00    +0.045 A 
ENDBRANCH  25  28
ENDBRANCH  24  25
ENDBRANCH   9  24
ENDBRANCH  15  21
BRANCH  12   2
ATOM      2  O   UNL     1      -3.052   3.710  26.214  0.00  0.00    -0.387 OA
ATOM     33  H   UNL     1      -3.963   3.393  26.098  0.00  0.00    +0.210 HD
ENDBRANCH  12   2
BRANCH  13   3
ATOM      3  O   UNL     1      -1.052   6.060  24.250  0.00  0.00    -0.389 OA
ATOM     34  H   UNL     1      -0.387   6.680  24.596  0.00  0.00    +0.210 HD
ENDBRANCH  13   3
TORSDOF 12
ENDMDL
MODEL 7
REMARK VINA RESULT:       1.1      2.344      4.730
REMARK  Name = 11866301
REMARK  15 active torsions:
REMARK  status: ('A' for Active; 'I' for Inactive)
REMARK    1  A    between atoms: O_2  and  C_12
REMARK    2  A    between atoms: O_3  and  C_13
REMARK    3  A    between atoms: N_7  and  C_11
REMARK    4  A    between atoms: N_8  and  C_17
REMARK    5  A    between atoms: N_8  and  C_26
REMARK    6  A    between atoms: N_9  and  C_24
REMARK    7  A    between atoms: C_15  and  C_21
REMARK    8  A    between atoms: C_17  and  C_18
REMARK    9  A    between atoms: C_17  and  C_19
REMARK   10  A    between atoms: C_18  and  C_20
REMARK   11  A    between atoms: C_20  and  C_22
REMARK   12  A    between atoms: C_20  and  C_23
REMARK   13  A    between atoms: C_24  and  C_25
REMARK   14  A    between atoms: C_24  and  C_27
REMARK   15  A    between atoms: C_25  and  C_28
REMARK                            x       y       z     vdW  Elec       q    Type
REMARK                         _______ _______ _______ _____ _____    ______ ____
ROOT
ATOM     11  C   UNL     1      -0.407   3.234  25.289  0.00  0.00    +0.127 C 
ATOM     12  C   UNL     1       0.099   4.296  24.293  0.00  0.00    +0.167 C 
ATOM     13  C   UNL     1      -0.790   5.545  24.300  0.00  0.00    +0.149 C 
ATOM     14  C   UNL     1      -2.264   5.207  24.016  0.00  0.00    +0.074 C 
ATOM     15  C   UNL     1      -2.719   3.930  24.662  0.00  0.00    +0.015 C 
ATOM     16  C   UNL     1      -1.899   3.041  25.243  0.00  0.00    +0.006 C 
ENDROOT
BRANCH  11   7
ATOM      4  O   UNL     1      -1.044   1.278  23.267  0.00  0.00    -0.274 OA
ATOM      7  N   UNL     1       0.236   1.960  25.081  0.00  0.00    -0.305 N 
ATOM     19  C   UNL     1      -0.139   1.080  24.077  0.00  0.00    +0.231 C 
ATOM     32  H   UNL     1       0.973   1.687  25.725  0.00  0.00    +0.149 HD
BRANCH  19  17
ATOM     17  C   UNL     1       0.676  -0.209  24.094  0.00  0.00    +0.140 C 
BRANCH  17   8
ATOM      8  N   UNL     1      -0.304  -1.297  24.049  0.00  0.00    -0.309 NA
ATOM     26  C   UNL     1      -0.037  -2.271  25.094  0.00  0.00    +0.101 C 
ATOM     35  H   UNL     1      -1.254  -0.937  24.118  0.00  0.00    +0.122 HD
ENDBRANCH  17   8
BRANCH  17  18
ATOM     18  C   UNL     1       1.634  -0.310  22.896  0.00  0.00    +0.031 C 
BRANCH  18  20
ATOM     20  C   UNL     1       3.104   0.031  23.221  0.00  0.00    -0.015 C 
ATOM     22  C   UNL     1       3.750   0.730  22.021  0.00  0.00    +0.007 C 
ATOM     23  C   UNL     1       3.922  -1.205  23.599  0.00  0.00    +0.007 C 
ENDBRANCH  18  20
ENDBRANCH  17  18
ENDBRANCH  19  17
ENDBRANCH  11   7
BRANCH  15  21
ATOM      5  O   UNL     1      -4.986   4.545  24.666  0.00  0.00    -0.271 OA
ATOM      9  N   UNL     1      -4.431   2.282  24.715  0.00  0.00    -0.300 N 
ATOM     21  C   UNL     1      -4.156   3.638  24.680  0.00  0.00    +0.241 C 
ATOM     36  H   UNL     1      -3.662   1.618  24.757  0.00  0.00    +0.150 HD
BRANCH   9  24
ATOM     24  C   UNL     1      -5.774   1.750  24.740  0.00  0.00    +0.164 C 
BRANCH  24  27
ATOM      6  O   UNL     1      -6.933   0.959  26.724  0.00  0.00    -0.274 OA
ATOM     10  N   UNL     1      -5.821   2.966  26.829  0.00  0.00    -0.328 N 
ATOM     27  C   UNL     1      -6.260   1.831  26.180  0.00  0.00    +0.231 C 
ATOM     37  H   UNL     1      -5.262   3.677  26.369  0.00  0.00    +0.145 HD
ATOM     38  H   UNL     1      -6.060   3.136  27.800  0.00  0.00    +0.145 HD
ENDBRANCH  24  27
BRANCH  24  25
ATOM     25  C   UNL     1      -5.837   0.303  24.235  0.00  0.00    +0.074 C 
BRANCH  25  28
ATOM      1  S   UNL     1      -4.302  -2.008  23.989  0.00  0.00    -0.102 S 
ATOM     28  C   UNL     1      -4.710  -0.544  24.778  0.00  0.00    -0.008 A 
ATOM     29  C   UNL     1      -3.910  -0.308  25.874  0.00  0.00    +0.011 A 
ATOM     30  C   UNL     1      -2.951  -1.343  26.070  0.00  0.00    +0.008 A 
ATOM     31  C   UNL     1      -3.053  -2.330  25.114  0.00  0.00    +0.045 A 
ENDBRANCH  25  28
ENDBRANCH  24  25
ENDBRANCH   9  24
ENDBRANCH  15  21
BRANCH  12   2
ATOM      2  O   UNL     1       0.111   3.748  22.973  0.00  0.00    -0.387 OA
ATOM     33  H   UNL     1      -0.436   2.944  22.985  0.00  0.00    +0.210 HD
ENDBRANCH  12   2
BRANCH  13   3
ATOM      3  O   UNL     1      -0.676   6.221  25.551  0.00  0.00    -0.389 OA
ATOM     34  H   UNL     1      -0.376   5.571  26.210  0.00  0.00    +0.210 HD
ENDBRANCH  13   3
TORSDOF 12
ENDMDL
