MODEL 1
REMARK VINA RESULT:      16.6      0.000      0.000
REMARK  Name = 44715906
REMARK  13 active torsions:
REMARK  status: ('A' for Active; 'I' for Inactive)
REMARK    1  A    between atoms: O_1  and  C_37
REMARK    2  A    between atoms: O_1  and  C_43
REMARK    3  A    between atoms: O_2  and  C_38
REMARK    4  A    between atoms: O_2  and  C_44
REMARK    5  A    between atoms: N_4  and  C_14
REMARK    6  A    between atoms: N_4  and  C_17
REMARK    7  A    between atoms: N_4  and  C_18
REMARK    8  A    between atoms: N_5  and  C_20
REMARK    9  A    between atoms: C_8  and  C_15
REMARK   10  A    between atoms: C_9  and  C_14
REMARK   11  A    between atoms: C_17  and  C_21
REMARK   12  A    between atoms: C_18  and  C_22
REMARK   13  A    between atoms: C_19  and  C_23
REMARK                            x       y       z     vdW  Elec       q    Type
REMARK                         _______ _______ _______ _____ _____    ______ ____
ROOT
ATOM      3  N   UNL     1      -5.822   1.608  26.240  0.00  0.00    -0.298 NA
ATOM      7  C   UNL     1      -4.884   1.724  23.814  0.00  0.00    +0.002 C 
ATOM      8  C   UNL     1      -4.406   0.425  24.520  0.00  0.00    +0.055 C 
ATOM      9  C   UNL     1      -5.191   2.933  26.002  0.00  0.00    +0.071 C 
ATOM     10  C   UNL     1      -4.449   2.948  24.648  0.00  0.00    +0.024 C 
ATOM     11  C   UNL     1      -6.426   1.693  23.822  0.00  0.00    +0.019 C 
ATOM     12  C   UNL     1      -4.833   0.525  26.013  0.00  0.00    +0.094 C 
ATOM     13  C   UNL     1      -6.921   1.445  25.258  0.00  0.00    +0.085 C 
ENDROOT
BRANCH   8  15
ATOM      5  N   UNL     1      -2.507  -1.258  24.573  0.00  0.00    -0.270 N 
ATOM      6  N   UNL     1      -1.185  -1.413  24.383  0.00  0.00    -0.171 NA
ATOM     15  C   UNL     1      -2.948   0.015  24.365  0.00  0.00    +0.044 A 
ATOM     16  C   UNL     1      -1.839   0.745  24.015  0.00  0.00    +0.053 A 
ATOM     19  C   UNL     1      -0.782  -0.186  24.043  0.00  0.00    +0.093 A 
ATOM     20  C   UNL     1      -3.302  -2.400  24.962  0.00  0.00    +0.172 C 
BRANCH  19  23
ATOM     23  C   UNL     1       0.603   0.075  23.753  0.00  0.00    +0.003 A 
ATOM     28  C   UNL     1       1.559  -0.919  23.964  0.00  0.00    +0.018 A 
ATOM     29  C   UNL     1       0.989   1.320  23.264  0.00  0.00    +0.011 A 
ATOM     30  C   UNL     1       2.915  -0.681  23.687  0.00  0.00    -0.017 A 
ATOM     31  C   UNL     1       2.332   1.574  22.984  0.00  0.00    +0.009 A 
ATOM     36  C   UNL     1       3.307   0.585  23.189  0.00  0.00    -0.018 A 
ATOM     39  C   UNL     1       3.890  -1.671  23.892  0.00  0.00    +0.008 A 
ATOM     40  C   UNL     1       4.663   0.822  22.912  0.00  0.00    +0.008 A 
ATOM     41  C   UNL     1       5.233  -1.416  23.612  0.00  0.00    +0.001 A 
ATOM     42  C   UNL     1       5.619  -0.172  23.123  0.00  0.00    +0.001 A 
ENDBRANCH  19  23
ENDBRANCH   8  15
BRANCH   9  14
ATOM     14  C   UNL     1      -4.281   3.361  27.155  0.00  0.00    +0.104 C 
BRANCH  14   4
ATOM      4  N   UNL     1      -3.004   3.843  26.654  0.00  0.00    -0.293 NA
BRANCH   4  17
ATOM     17  C   UNL     1      -2.154   2.723  26.237  0.00  0.00    +0.120 C 
BRANCH  17  21
ATOM     21  C   UNL     1      -0.845   2.707  26.980  0.00  0.00    -0.033 A 
ATOM     24  C   UNL     1       0.358   2.675  26.274  0.00  0.00    +0.008 A 
ATOM     26  C   UNL     1      -0.835   2.725  28.375  0.00  0.00    +0.008 A 
ATOM     32  C   UNL     1       1.571   2.660  26.963  0.00  0.00    +0.046 A 
ATOM     34  C   UNL     1       0.378   2.710  29.064  0.00  0.00    +0.046 A 
ATOM     37  C   UNL     1       1.581   2.677  28.359  0.00  0.00    +0.120 A 
BRANCH  37   1
ATOM      1  O   UNL     1       2.764   2.663  29.030  0.00  0.00    -0.495 OA
ATOM     43  C   UNL     1       2.842   1.836  30.191  0.00  0.00    +0.277 C 
ENDBRANCH  37   1
ENDBRANCH  17  21
ENDBRANCH   4  17
BRANCH   4  18
ATOM     18  C   UNL     1      -3.201   4.771  25.537  0.00  0.00    +0.120 C 
BRANCH  18  22
ATOM     22  C   UNL     1      -1.977   4.865  24.664  0.00  0.00    -0.033 A 
ATOM     25  C   UNL     1      -1.791   3.956  23.624  0.00  0.00    +0.008 A 
ATOM     27  C   UNL     1      -1.031   5.864  24.897  0.00  0.00    +0.008 A 
ATOM     33  C   UNL     1      -0.658   4.044  22.816  0.00  0.00    +0.046 A 
ATOM     35  C   UNL     1       0.102   5.952  24.089  0.00  0.00    +0.046 A 
ATOM     38  C   UNL     1       0.290   5.042  23.049  0.00  0.00    +0.120 A 
BRANCH  38   2
ATOM      2  O   UNL     1       1.395   5.128  22.259  0.00  0.00    -0.495 OA
ATOM     44  C   UNL     1       1.377   6.106  21.221  0.00  0.00    +0.277 C 
ENDBRANCH  38   2
ENDBRANCH  18  22
ENDBRANCH   4  18
ENDBRANCH  14   4
ENDBRANCH   9  14
TORSDOF 10
ENDMDL
MODEL 2
REMARK VINA RESULT:      18.8      0.706      3.790
REMARK  Name = 44715906
REMARK  13 active torsions:
REMARK  status: ('A' for Active; 'I' for Inactive)
REMARK    1  A    between atoms: O_1  and  C_37
REMARK    2  A    between atoms: O_1  and  C_43
REMARK    3  A    between atoms: O_2  and  C_38
REMARK    4  A    between atoms: O_2  and  C_44
REMARK    5  A    between atoms: N_4  and  C_14
REMARK    6  A    between atoms: N_4  and  C_17
REMARK    7  A    between atoms: N_4  and  C_18
REMARK    8  A    between atoms: N_5  and  C_20
REMARK    9  A    between atoms: C_8  and  C_15
REMARK   10  A    between atoms: C_9  and  C_14
REMARK   11  A    between atoms: C_17  and  C_21
REMARK   12  A    between atoms: C_18  and  C_22
REMARK   13  A    between atoms: C_19  and  C_23
REMARK                            x       y       z     vdW  Elec       q    Type
REMARK                         _______ _______ _______ _____ _____    ______ ____
ROOT
ATOM      3  N   UNL     1      -5.427   1.882  26.137  0.00  0.00    -0.298 NA
ATOM      7  C   UNL     1      -4.797   1.441  23.650  0.00  0.00    +0.002 C 
ATOM      8  C   UNL     1      -4.197   0.338  24.566  0.00  0.00    +0.055 C 
ATOM      9  C   UNL     1      -4.870   3.118  25.528  0.00  0.00    +0.071 C 
ATOM     10  C   UNL     1      -4.301   2.824  24.123  0.00  0.00    +0.024 C 
ATOM     11  C   UNL     1      -6.326   1.410  23.860  0.00  0.00    +0.019 C 
ATOM     12  C   UNL     1      -4.441   0.777  26.039  0.00  0.00    +0.094 C 
ATOM     13  C   UNL     1      -6.633   1.497  25.365  0.00  0.00    +0.085 C 
ENDROOT
BRANCH   8  15
ATOM      5  N   UNL     1      -2.367  -1.399  24.307  0.00  0.00    -0.270 N 
ATOM      6  N   UNL     1      -1.053  -1.569  24.077  0.00  0.00    -0.171 NA
ATOM     15  C   UNL     1      -2.758  -0.094  24.324  0.00  0.00    +0.044 A 
ATOM     16  C   UNL     1      -1.623   0.642  24.088  0.00  0.00    +0.053 A 
ATOM     19  C   UNL     1      -0.604  -0.319  23.944  0.00  0.00    +0.093 A 
ATOM     20  C   UNL     1      -3.203  -2.560  24.508  0.00  0.00    +0.172 C 
BRANCH  19  23
ATOM     23  C   UNL     1       0.789  -0.065  23.685  0.00  0.00    +0.003 A 
ATOM     28  C   UNL     1       1.739  -1.052  23.951  0.00  0.00    +0.018 A 
ATOM     29  C   UNL     1       1.188   1.164  23.168  0.00  0.00    +0.011 A 
ATOM     30  C   UNL     1       3.102  -0.821  23.705  0.00  0.00    -0.017 A 
ATOM     31  C   UNL     1       2.538   1.411  22.917  0.00  0.00    +0.009 A 
ATOM     36  C   UNL     1       3.507   0.430  23.179  0.00  0.00    -0.018 A 
ATOM     39  C   UNL     1       4.071  -1.802  23.967  0.00  0.00    +0.008 A 
ATOM     40  C   UNL     1       4.870   0.661  22.933  0.00  0.00    +0.008 A 
ATOM     41  C   UNL     1       5.421  -1.555  23.716  0.00  0.00    +0.001 A 
ATOM     42  C   UNL     1       5.820  -0.326  23.199  0.00  0.00    +0.001 A 
ENDBRANCH  19  23
ENDBRANCH   8  15
BRANCH   9  14
ATOM     14  C   UNL     1      -3.838   3.800  26.429  0.00  0.00    +0.104 C 
BRANCH  14   4
ATOM      4  N   UNL     1      -2.491   3.381  26.080  0.00  0.00    -0.293 NA
BRANCH   4  17
ATOM     17  C   UNL     1      -1.555   4.505  26.183  0.00  0.00    +0.120 C 
BRANCH  17  21
ATOM     21  C   UNL     1      -0.882   4.796  24.868  0.00  0.00    -0.033 A 
ATOM     24  C   UNL     1      -0.715   3.777  23.929  0.00  0.00    +0.008 A 
ATOM     26  C   UNL     1      -0.426   6.084  24.588  0.00  0.00    +0.008 A 
ATOM     32  C   UNL     1      -0.091   4.047  22.711  0.00  0.00    +0.046 A 
ATOM     34  C   UNL     1       0.198   6.354  23.370  0.00  0.00    +0.046 A 
ATOM     37  C   UNL     1       0.366   5.336  22.431  0.00  0.00    +0.120 A 
BRANCH  37   1
ATOM      1  O   UNL     1       0.974   5.598  21.243  0.00  0.00    -0.495 OA
ATOM     43  C   UNL     1       2.329   6.044  21.291  0.00  0.00    +0.277 C 
ENDBRANCH  37   1
ENDBRANCH  17  21
ENDBRANCH   4  17
BRANCH   4  18
ATOM     18  C   UNL     1      -2.050   2.278  26.938  0.00  0.00    +0.120 C 
BRANCH  18  22
ATOM     22  C   UNL     1      -0.652   2.493  27.455  0.00  0.00    -0.033 A 
ATOM     25  C   UNL     1      -0.436   2.695  28.818  0.00  0.00    +0.008 A 
ATOM     27  C   UNL     1       0.426   2.491  26.570  0.00  0.00    +0.008 A 
ATOM     33  C   UNL     1       0.859   2.894  29.296  0.00  0.00    +0.046 A 
ATOM     35  C   UNL     1       1.721   2.690  27.048  0.00  0.00    +0.046 A 
ATOM     38  C   UNL     1       1.938   2.892  28.411  0.00  0.00    +0.120 A 
BRANCH  38   2
ATOM      2  O   UNL     1       3.201   3.086  28.878  0.00  0.00    -0.495 OA
ATOM     44  C   UNL     1       4.232   2.274  28.319  0.00  0.00    +0.277 C 
ENDBRANCH  38   2
ENDBRANCH  18  22
ENDBRANCH   4  18
ENDBRANCH  14   4
ENDBRANCH   9  14
TORSDOF 10
ENDMDL
MODEL 3
REMARK VINA RESULT:      19.1      2.153      4.867
REMARK  Name = 44715906
REMARK  13 active torsions:
REMARK  status: ('A' for Active; 'I' for Inactive)
REMARK    1  A    between atoms: O_1  and  C_37
REMARK    2  A    between atoms: O_1  and  C_43
REMARK    3  A    between atoms: O_2  and  C_38
REMARK    4  A    between atoms: O_2  and  C_44
REMARK    5  A    between atoms: N_4  and  C_14
REMARK    6  A    between atoms: N_4  and  C_17
REMARK    7  A    between atoms: N_4  and  C_18
REMARK    8  A    between atoms: N_5  and  C_20
REMARK    9  A    between atoms: C_8  and  C_15
REMARK   10  A    between atoms: C_9  and  C_14
REMARK   11  A    between atoms: C_17  and  C_21
REMARK   12  A    between atoms: C_18  and  C_22
REMARK   13  A    between atoms: C_19  and  C_23
REMARK                            x       y       z     vdW  Elec       q    Type
REMARK                         _______ _______ _______ _____ _____    ______ ____
ROOT
ATOM      3  N   UNL     1      -4.495   4.792  23.543  0.00  0.00    -0.298 NA
ATOM      7  C   UNL     1      -2.060   4.975  24.448  0.00  0.00    +0.002 C 
ATOM      8  C   UNL     1      -2.087   4.173  23.117  0.00  0.00    +0.055 C 
ATOM      9  C   UNL     1      -4.454   4.394  24.974  0.00  0.00    +0.071 C 
ATOM     10  C   UNL     1      -2.996   4.296  25.471  0.00  0.00    +0.024 C 
ATOM     11  C   UNL     1      -2.655   6.365  24.140  0.00  0.00    +0.019 C 
ATOM     12  C   UNL     1      -3.580   3.934  22.750  0.00  0.00    +0.094 C 
ATOM     13  C   UNL     1      -4.017   6.192  23.446  0.00  0.00    +0.085 C 
ENDROOT
BRANCH   8  15
ATOM      5  N   UNL     1      -1.734   1.741  22.484  0.00  0.00    -0.270 N 
ATOM      6  N   UNL     1      -0.848   0.730  22.502  0.00  0.00    -0.171 NA
ATOM     15  C   UNL     1      -1.261   2.898  23.029  0.00  0.00    +0.044 A 
ATOM     16  C   UNL     1       0.024   2.626  23.430  0.00  0.00    +0.053 A 
ATOM     19  C   UNL     1       0.224   1.277  23.081  0.00  0.00    +0.093 A 
ATOM     20  C   UNL     1      -3.045   1.519  21.919  0.00  0.00    +0.172 C 
BRANCH  19  23
ATOM     23  C   UNL     1       1.418   0.500  23.292  0.00  0.00    +0.003 A 
ATOM     28  C   UNL     1       2.671   1.098  23.162  0.00  0.00    +0.018 A 
ATOM     29  C   UNL     1       1.320  -0.848  23.626  0.00  0.00    +0.011 A 
ATOM     30  C   UNL     1       3.845   0.355  23.364  0.00  0.00    -0.017 A 
ATOM     31  C   UNL     1       2.476  -1.602  23.830  0.00  0.00    +0.009 A 
ATOM     36  C   UNL     1       3.746  -1.016  23.703  0.00  0.00    -0.018 A 
ATOM     39  C   UNL     1       5.115   0.940  23.238  0.00  0.00    +0.008 A 
ATOM     40  C   UNL     1       4.920  -1.760  23.905  0.00  0.00    +0.008 A 
ATOM     41  C   UNL     1       6.271   0.186  23.442  0.00  0.00    +0.001 A 
ATOM     42  C   UNL     1       6.173  -1.161  23.775  0.00  0.00    +0.001 A 
ENDBRANCH  19  23
ENDBRANCH   8  15
BRANCH   9  14
ATOM     14  C   UNL     1      -5.235   3.107  25.245  0.00  0.00    +0.104 C 
BRANCH  14   4
ATOM      4  N   UNL     1      -4.401   2.128  25.922  0.00  0.00    -0.293 NA
BRANCH   4  17
ATOM     17  C   UNL     1      -5.161   0.909  26.211  0.00  0.00    +0.120 C 
BRANCH  17  21
ATOM     21  C   UNL     1      -4.543  -0.303  25.565  0.00  0.00    -0.033 A 
ATOM     24  C   UNL     1      -3.708  -1.140  26.305  0.00  0.00    +0.008 A 
ATOM     26  C   UNL     1      -4.808  -0.588  24.225  0.00  0.00    +0.008 A 
ATOM     32  C   UNL     1      -3.136  -2.263  25.705  0.00  0.00    +0.046 A 
ATOM     34  C   UNL     1      -4.236  -1.711  23.625  0.00  0.00    +0.046 A 
ATOM     37  C   UNL     1      -3.401  -2.548  24.365  0.00  0.00    +0.120 A 
BRANCH  37   1
ATOM      1  O   UNL     1      -2.844  -3.643  23.781  0.00  0.00    -0.495 OA
ATOM     43  C   UNL     1      -1.458  -3.566  23.446  0.00  0.00    +0.277 C 
ENDBRANCH  37   1
ENDBRANCH  17  21
ENDBRANCH   4  17
BRANCH   4  18
ATOM     18  C   UNL     1      -3.219   1.807  25.117  0.00  0.00    +0.120 C 
BRANCH  18  22
ATOM     22  C   UNL     1      -1.946   1.939  25.912  0.00  0.00    -0.033 A 
ATOM     25  C   UNL     1      -1.636   3.147  26.535  0.00  0.00    +0.008 A 
ATOM     27  C   UNL     1      -1.079   0.852  26.024  0.00  0.00    +0.008 A 
ATOM     33  C   UNL     1      -0.458   3.269  27.271  0.00  0.00    +0.046 A 
ATOM     35  C   UNL     1       0.100   0.974  26.759  0.00  0.00    +0.046 A 
ATOM     38  C   UNL     1       0.411   2.182  27.383  0.00  0.00    +0.120 A 
BRANCH  38   2
ATOM      2  O   UNL     1       1.560   2.301  28.102  0.00  0.00    -0.495 OA
ATOM     44  C   UNL     1       1.432   2.414  29.518  0.00  0.00    +0.277 C 
ENDBRANCH  38   2
ENDBRANCH  18  22
ENDBRANCH   4  18
ENDBRANCH  14   4
ENDBRANCH   9  14
TORSDOF 10
ENDMDL
MODEL 4
REMARK VINA RESULT:      19.9      2.763      5.054
REMARK  Name = 44715906
REMARK  13 active torsions:
REMARK  status: ('A' for Active; 'I' for Inactive)
REMARK    1  A    between atoms: O_1  and  C_37
REMARK    2  A    between atoms: O_1  and  C_43
REMARK    3  A    between atoms: O_2  and  C_38
REMARK    4  A    between atoms: O_2  and  C_44
REMARK    5  A    between atoms: N_4  and  C_14
REMARK    6  A    between atoms: N_4  and  C_17
REMARK    7  A    between atoms: N_4  and  C_18
REMARK    8  A    between atoms: N_5  and  C_20
REMARK    9  A    between atoms: C_8  and  C_15
REMARK   10  A    between atoms: C_9  and  C_14
REMARK   11  A    between atoms: C_17  and  C_21
REMARK   12  A    between atoms: C_18  and  C_22
REMARK   13  A    between atoms: C_19  and  C_23
REMARK                            x       y       z     vdW  Elec       q    Type
REMARK                         _______ _______ _______ _____ _____    ______ ____
ROOT
ATOM      3  N   UNL     1      -4.970   4.463  24.732  0.00  0.00    -0.298 NA
ATOM      7  C   UNL     1      -2.718   4.135  25.999  0.00  0.00    +0.002 C 
ATOM      8  C   UNL     1      -2.489   4.096  24.462  0.00  0.00    +0.055 C 
ATOM      9  C   UNL     1      -5.120   3.409  25.770  0.00  0.00    +0.071 C 
ATOM     10  C   UNL     1      -3.750   3.055  26.388  0.00  0.00    +0.024 C 
ATOM     11  C   UNL     1      -3.352   5.505  26.319  0.00  0.00    +0.019 C 
ATOM     12  C   UNL     1      -3.890   4.094  23.784  0.00  0.00    +0.094 C 
ATOM     13  C   UNL     1      -4.579   5.720  25.415  0.00  0.00    +0.085 C 
ENDROOT
BRANCH   8  15
ATOM      5  N   UNL     1      -1.881   2.290  22.786  0.00  0.00    -0.270 N 
ATOM      6  N   UNL     1      -0.941   1.388  22.452  0.00  0.00    -0.171 NA
ATOM     15  C   UNL     1      -1.575   3.017  23.898  0.00  0.00    +0.044 A 
ATOM     16  C   UNL     1      -0.351   2.560  24.322  0.00  0.00    +0.053 A 
ATOM     19  C   UNL     1      -0.010   1.558  23.394  0.00  0.00    +0.093 A 
ATOM     20  C   UNL     1      -3.072   2.401  21.976  0.00  0.00    +0.172 C 
BRANCH  19  23
ATOM     23  C   UNL     1       1.187   0.757  23.391  0.00  0.00    +0.003 A 
ATOM     28  C   UNL     1       2.437   1.373  23.447  0.00  0.00    +0.018 A 
ATOM     29  C   UNL     1       1.096  -0.630  23.333  0.00  0.00    +0.011 A 
ATOM     30  C   UNL     1       3.615   0.608  23.446  0.00  0.00    -0.017 A 
ATOM     31  C   UNL     1       2.255  -1.407  23.330  0.00  0.00    +0.009 A 
ATOM     36  C   UNL     1       3.521  -0.804  23.386  0.00  0.00    -0.018 A 
ATOM     39  C   UNL     1       4.881   1.211  23.502  0.00  0.00    +0.008 A 
ATOM     40  C   UNL     1       4.699  -1.569  23.384  0.00  0.00    +0.008 A 
ATOM     41  C   UNL     1       6.041   0.434  23.498  0.00  0.00    +0.001 A 
ATOM     42  C   UNL     1       5.949  -0.953  23.440  0.00  0.00    +0.001 A 
ENDBRANCH  19  23
ENDBRANCH   8  15
BRANCH   9  14
ATOM     14  C   UNL     1      -5.845   2.170  25.241  0.00  0.00    +0.104 C 
BRANCH  14   4
ATOM      4  N   UNL     1      -4.907   1.083  25.008  0.00  0.00    -0.293 NA
BRANCH   4  17
ATOM     17  C   UNL     1      -4.694   0.309  26.234  0.00  0.00    +0.120 C 
BRANCH  17  21
ATOM     21  C   UNL     1      -3.339  -0.348  26.253  0.00  0.00    -0.033 A 
ATOM     24  C   UNL     1      -3.225  -1.703  26.566  0.00  0.00    +0.008 A 
ATOM     26  C   UNL     1      -2.199   0.398  25.956  0.00  0.00    +0.008 A 
ATOM     32  C   UNL     1      -1.970  -2.312  26.582  0.00  0.00    +0.046 A 
ATOM     34  C   UNL     1      -0.944  -0.211  25.973  0.00  0.00    +0.046 A 
ATOM     37  C   UNL     1      -0.829  -1.566  26.286  0.00  0.00    +0.120 A 
BRANCH  37   1
ATOM      1  O   UNL     1       0.395  -2.160  26.302  0.00  0.00    -0.495 OA
ATOM     43  C   UNL     1       0.528  -3.391  25.591  0.00  0.00    +0.277 C 
ENDBRANCH  37   1
ENDBRANCH  17  21
ENDBRANCH   4  17
BRANCH   4  18
ATOM     18  C   UNL     1      -5.385   0.206  23.935  0.00  0.00    +0.120 C 
BRANCH  18  22
ATOM     22  C   UNL     1      -4.484  -0.984  23.741  0.00  0.00    -0.033 A 
ATOM     25  C   UNL     1      -3.155  -0.799  23.362  0.00  0.00    +0.008 A 
ATOM     27  C   UNL     1      -4.980  -2.273  23.942  0.00  0.00    +0.008 A 
ATOM     33  C   UNL     1      -2.322  -1.903  23.183  0.00  0.00    +0.046 A 
ATOM     35  C   UNL     1      -4.146  -3.376  23.763  0.00  0.00    +0.046 A 
ATOM     38  C   UNL     1      -2.817  -3.192  23.383  0.00  0.00    +0.120 A 
BRANCH  38   2
ATOM      2  O   UNL     1      -2.003  -4.268  23.209  0.00  0.00    -0.495 OA
ATOM     44  C   UNL     1      -0.776  -4.049  22.515  0.00  0.00    +0.277 C 
ENDBRANCH  38   2
ENDBRANCH  18  22
ENDBRANCH   4  18
ENDBRANCH  14   4
ENDBRANCH   9  14
TORSDOF 10
ENDMDL
MODEL 5
REMARK VINA RESULT:      20.1      1.807      4.114
REMARK  Name = 44715906
REMARK  13 active torsions:
REMARK  status: ('A' for Active; 'I' for Inactive)
REMARK    1  A    between atoms: O_1  and  C_37
REMARK    2  A    between atoms: O_1  and  C_43
REMARK    3  A    between atoms: O_2  and  C_38
REMARK    4  A    between atoms: O_2  and  C_44
REMARK    5  A    between atoms: N_4  and  C_14
REMARK    6  A    between atoms: N_4  and  C_17
REMARK    7  A    between atoms: N_4  and  C_18
REMARK    8  A    between atoms: N_5  and  C_20
REMARK    9  A    between atoms: C_8  and  C_15
REMARK   10  A    between atoms: C_9  and  C_14
REMARK   11  A    between atoms: C_17  and  C_21
REMARK   12  A    between atoms: C_18  and  C_22
REMARK   13  A    between atoms: C_19  and  C_23
REMARK                            x       y       z     vdW  Elec       q    Type
REMARK                         _______ _______ _______ _____ _____    ______ ____
ROOT
ATOM      3  N   UNL     1      -3.812  -2.186  25.907  0.00  0.00    -0.298 NA
ATOM      7  C   UNL     1      -3.108  -2.613  23.436  0.00  0.00    +0.002 C 
ATOM      8  C   UNL     1      -1.853  -2.461  24.341  0.00  0.00    +0.055 C 
ATOM      9  C   UNL     1      -4.538  -1.255  25.003  0.00  0.00    +0.071 C 
ATOM     10  C   UNL     1      -3.986  -1.349  23.565  0.00  0.00    +0.024 C 
ATOM     11  C   UNL     1      -3.925  -3.793  24.003  0.00  0.00    +0.019 C 
ATOM     12  C   UNL     1      -2.347  -2.011  25.746  0.00  0.00    +0.094 C 
ATOM     13  C   UNL     1      -4.160  -3.571  25.508  0.00  0.00    +0.085 C 
ENDROOT
BRANCH   8  15
ATOM      5  N   UNL     1      -0.856  -0.625  22.901  0.00  0.00    -0.270 N 
ATOM      6  N   UNL     1       0.285   0.013  22.589  0.00  0.00    -0.171 NA
ATOM     15  C   UNL     1      -0.700  -1.607  23.834  0.00  0.00    +0.044 A 
ATOM     16  C   UNL     1       0.635  -1.612  24.156  0.00  0.00    +0.053 A 
ATOM     19  C   UNL     1       1.192  -0.594  23.358  0.00  0.00    +0.093 A 
ATOM     20  C   UNL     1      -2.084  -0.233  22.249  0.00  0.00    +0.172 C 
BRANCH  19  23
ATOM     23  C   UNL     1       2.574  -0.193  23.316  0.00  0.00    +0.003 A 
ATOM     28  C   UNL     1       3.567  -1.063  23.766  0.00  0.00    +0.018 A 
ATOM     29  C   UNL     1       2.918   1.064  22.826  0.00  0.00    +0.011 A 
ATOM     30  C   UNL     1       4.920  -0.687  23.731  0.00  0.00    -0.017 A 
ATOM     31  C   UNL     1       4.258   1.454  22.785  0.00  0.00    +0.009 A 
ATOM     36  C   UNL     1       5.270   0.591  23.233  0.00  0.00    -0.018 A 
ATOM     39  C   UNL     1       5.932  -1.550  24.180  0.00  0.00    +0.008 A 
ATOM     40  C   UNL     1       6.623   0.967  23.199  0.00  0.00    +0.008 A 
ATOM     41  C   UNL     1       7.271  -1.160  24.139  0.00  0.00    +0.001 A 
ATOM     42  C   UNL     1       7.616   0.097  23.649  0.00  0.00    +0.001 A 
ENDBRANCH  19  23
ENDBRANCH   8  15
BRANCH   9  14
ATOM     14  C   UNL     1      -4.534   0.184  25.522  0.00  0.00    +0.104 C 
BRANCH  14   4
ATOM      4  N   UNL     1      -5.038   1.100  24.512  0.00  0.00    -0.293 NA
BRANCH   4  17
ATOM     17  C   UNL     1      -5.565   2.318  25.132  0.00  0.00    +0.120 C 
BRANCH  17  21
ATOM     21  C   UNL     1      -4.533   3.414  25.179  0.00  0.00    -0.033 A 
ATOM     24  C   UNL     1      -4.276   4.179  24.041  0.00  0.00    +0.008 A 
ATOM     26  C   UNL     1      -3.837   3.665  26.361  0.00  0.00    +0.008 A 
ATOM     32  C   UNL     1      -3.320   5.194  24.084  0.00  0.00    +0.046 A 
ATOM     34  C   UNL     1      -2.881   4.681  26.404  0.00  0.00    +0.046 A 
ATOM     37  C   UNL     1      -2.622   5.445  25.267  0.00  0.00    +0.120 A 
BRANCH  37   1
ATOM      1  O   UNL     1      -1.691   6.436  25.309  0.00  0.00    -0.495 OA
ATOM     43  C   UNL     1      -0.435   6.173  24.683  0.00  0.00    +0.277 C 
ENDBRANCH  37   1
ENDBRANCH  17  21
ENDBRANCH   4  17
BRANCH   4  18
ATOM     18  C   UNL     1      -3.989   1.438  23.546  0.00  0.00    +0.120 C 
BRANCH  18  22
ATOM     22  C   UNL     1      -2.668   1.696  24.221  0.00  0.00    -0.033 A 
ATOM     25  C   UNL     1      -1.733   2.540  23.624  0.00  0.00    +0.008 A 
ATOM     27  C   UNL     1      -2.381   1.089  25.444  0.00  0.00    +0.008 A 
ATOM     33  C   UNL     1      -0.509   2.779  24.250  0.00  0.00    +0.046 A 
ATOM     35  C   UNL     1      -1.157   1.328  26.070  0.00  0.00    +0.046 A 
ATOM     38  C   UNL     1      -0.221   2.172  25.473  0.00  0.00    +0.120 A 
BRANCH  38   2
ATOM      2  O   UNL     1       0.972   2.406  26.084  0.00  0.00    -0.495 OA
ATOM     44  C   UNL     1       0.943   2.682  27.483  0.00  0.00    +0.277 C 
ENDBRANCH  38   2
ENDBRANCH  18  22
ENDBRANCH   4  18
ENDBRANCH  14   4
ENDBRANCH   9  14
TORSDOF 10
ENDMDL
MODEL 6
REMARK VINA RESULT:      20.2      1.423      1.907
REMARK  Name = 44715906
REMARK  13 active torsions:
REMARK  status: ('A' for Active; 'I' for Inactive)
REMARK    1  A    between atoms: O_1  and  C_37
REMARK    2  A    between atoms: O_1  and  C_43
REMARK    3  A    between atoms: O_2  and  C_38
REMARK    4  A    between atoms: O_2  and  C_44
REMARK    5  A    between atoms: N_4  and  C_14
REMARK    6  A    between atoms: N_4  and  C_17
REMARK    7  A    between atoms: N_4  and  C_18
REMARK    8  A    between atoms: N_5  and  C_20
REMARK    9  A    between atoms: C_8  and  C_15
REMARK   10  A    between atoms: C_9  and  C_14
REMARK   11  A    between atoms: C_17  and  C_21
REMARK   12  A    between atoms: C_18  and  C_22
REMARK   13  A    between atoms: C_19  and  C_23
REMARK                            x       y       z     vdW  Elec       q    Type
REMARK                         _______ _______ _______ _____ _____    ______ ____
ROOT
ATOM      3  N   UNL     1      -5.595   1.699  26.779  0.00  0.00    -0.298 NA
ATOM      7  C   UNL     1      -5.111   1.389  24.239  0.00  0.00    +0.002 C 
ATOM      8  C   UNL     1      -4.450   0.248  25.062  0.00  0.00    +0.055 C 
ATOM      9  C   UNL     1      -5.084   2.969  26.201  0.00  0.00    +0.071 C 
ATOM     10  C   UNL     1      -4.597   2.752  24.752  0.00  0.00    +0.024 C 
ATOM     11  C   UNL     1      -6.624   1.333  24.537  0.00  0.00    +0.019 C 
ATOM     12  C   UNL     1      -4.610   0.611  26.567  0.00  0.00    +0.094 C 
ATOM     13  C   UNL     1      -6.842   1.342  26.061  0.00  0.00    +0.085 C 
ENDROOT
BRANCH   8  15
ATOM      5  N   UNL     1      -2.625  -1.457  24.615  0.00  0.00    -0.270 N 
ATOM      6  N   UNL     1      -1.327  -1.602  24.299  0.00  0.00    -0.171 NA
ATOM     15  C   UNL     1      -3.025  -0.157  24.714  0.00  0.00    +0.044 A 
ATOM     16  C   UNL     1      -1.913   0.601  24.443  0.00  0.00    +0.053 A 
ATOM     19  C   UNL     1      -0.897  -0.342  24.195  0.00  0.00    +0.093 A 
ATOM     20  C   UNL     1      -3.439  -2.634  24.815  0.00  0.00    +0.172 C 
BRANCH  19  23
ATOM     23  C   UNL     1       0.476  -0.062  23.863  0.00  0.00    +0.003 A 
ATOM     28  C   UNL     1       1.456  -1.033  24.074  0.00  0.00    +0.018 A 
ATOM     29  C   UNL     1       0.825   1.176  23.333  0.00  0.00    +0.011 A 
ATOM     30  C   UNL     1       2.799  -0.776  23.757  0.00  0.00    -0.017 A 
ATOM     31  C   UNL     1       2.155   1.448  23.011  0.00  0.00    +0.009 A 
ATOM     36  C   UNL     1       3.154   0.484  23.217  0.00  0.00    -0.018 A 
ATOM     39  C   UNL     1       3.798  -1.741  23.962  0.00  0.00    +0.008 A 
ATOM     40  C   UNL     1       4.498   0.740  22.899  0.00  0.00    +0.008 A 
ATOM     41  C   UNL     1       5.129  -1.469  23.641  0.00  0.00    +0.001 A 
ATOM     42  C   UNL     1       5.477  -0.230  23.110  0.00  0.00    +0.001 A 
ENDBRANCH  19  23
ENDBRANCH   8  15
BRANCH   9  14
ATOM     14  C   UNL     1      -4.005   3.615  27.073  0.00  0.00    +0.104 C 
BRANCH  14   4
ATOM      4  N   UNL     1      -2.919   4.131  26.255  0.00  0.00    -0.293 NA
BRANCH   4  17
ATOM     17  C   UNL     1      -2.030   3.046  25.830  0.00  0.00    +0.120 C 
BRANCH  17  21
ATOM     21  C   UNL     1      -0.831   2.919  26.732  0.00  0.00    -0.033 A 
ATOM     24  C   UNL     1      -1.001   2.874  28.116  0.00  0.00    +0.008 A 
ATOM     26  C   UNL     1       0.449   2.844  26.183  0.00  0.00    +0.008 A 
ATOM     32  C   UNL     1       0.110   2.756  28.952  0.00  0.00    +0.046 A 
ATOM     34  C   UNL     1       1.560   2.726  27.019  0.00  0.00    +0.046 A 
ATOM     37  C   UNL     1       1.391   2.681  28.402  0.00  0.00    +0.120 A 
BRANCH  37   1
ATOM      1  O   UNL     1       2.474   2.565  29.217  0.00  0.00    -0.495 OA
ATOM     43  C   UNL     1       2.311   1.795  30.408  0.00  0.00    +0.277 C 
ENDBRANCH  37   1
ENDBRANCH  17  21
ENDBRANCH   4  17
BRANCH   4  18
ATOM     18  C   UNL     1      -3.442   4.843  25.085  0.00  0.00    +0.120 C 
BRANCH  18  22
ATOM     22  C   UNL     1      -3.185   4.088  23.808  0.00  0.00    -0.033 A 
ATOM     25  C   UNL     1      -4.141   4.089  22.794  0.00  0.00    +0.008 A 
ATOM     27  C   UNL     1      -1.990   3.389  23.641  0.00  0.00    +0.008 A 
ATOM     33  C   UNL     1      -3.903   3.390  21.611  0.00  0.00    +0.046 A 
ATOM     35  C   UNL     1      -1.752   2.689  22.458  0.00  0.00    +0.046 A 
ATOM     38  C   UNL     1      -2.707   2.689  21.443  0.00  0.00    +0.120 A 
BRANCH  38   2
ATOM      2  O   UNL     1      -2.475   2.008  20.288  0.00  0.00    -0.495 OA
ATOM     44  C   UNL     1      -1.748   0.785  20.391  0.00  0.00    +0.277 C 
ENDBRANCH  38   2
ENDBRANCH  18  22
ENDBRANCH   4  18
ENDBRANCH  14   4
ENDBRANCH   9  14
TORSDOF 10
ENDMDL
