MODEL 1
REMARK VINA RESULT:      -1.1      0.000      0.000
REMARK  Name = 75536999
REMARK  6 active torsions:
REMARK  status: ('A' for Active; 'I' for Inactive)
REMARK    1  A    between atoms: S_1  and  N_7
REMARK    2  A    between atoms: S_1  and  C_17
REMARK    3  A    between atoms: O_5  and  C_22
REMARK    4  A    between atoms: O_5  and  C_23
REMARK    5  A    between atoms: N_8  and  C_15
REMARK    6  A    between atoms: C_15  and  C_16
REMARK                            x       y       z     vdW  Elec       q    Type
REMARK                         _______ _______ _______ _____ _____    ______ ____
ROOT
ATOM      2  O   UNL     1      -0.908  -2.058  23.824  0.00  0.00    -0.252 OA
ATOM      6  N   UNL     1      -1.400   0.084  24.655  0.00  0.00    -0.278 N 
ATOM      7  N   UNL     1      -2.957   2.292  25.374  0.00  0.00    -0.178 NA
ATOM      8  N   UNL     1       0.347  -0.143  23.260  0.00  0.00    -0.279 N 
ATOM      9  C   UNL     1      -0.793   1.401  24.615  0.00  0.00    +0.111 C 
ATOM     10  C   UNL     1      -1.854   2.469  24.372  0.00  0.00    +0.133 C 
ATOM     11  C   UNL     1       0.256   1.284  23.511  0.00  0.00    +0.133 C 
ATOM     12  C   UNL     1      -2.556  -0.148  25.498  0.00  0.00    +0.127 C 
ATOM     13  C   UNL     1      -3.600   0.939  25.263  0.00  0.00    +0.128 C 
ATOM     14  C   UNL     1      -0.681  -0.858  23.906  0.00  0.00    +0.305 C 
ENDROOT
BRANCH   7   1
ATOM      1  S   UNL     1      -4.047   3.609  25.499  0.00  0.00    +0.029 S 
ATOM      3  O   UNL     1      -4.164   4.238  24.202  0.00  0.00    -0.158 OA
ATOM      4  O   UNL     1      -3.723   4.367  26.686  0.00  0.00    -0.158 OA
ATOM     17  C   UNL     1      -5.542   2.708  25.811  0.00  0.00    +0.215 C 
ENDBRANCH   7   1
BRANCH   8  15
ATOM     15  C   UNL     1       1.316  -0.700  22.342  0.00  0.00    +0.144 C 
BRANCH  15  16
ATOM     16  C   UNL     1       2.726  -0.441  22.787  0.00  0.00    -0.030 A 
ATOM     18  C   UNL     1       3.427  -1.420  23.490  0.00  0.00    +0.009 A 
ATOM     19  C   UNL     1       3.335   0.781  22.499  0.00  0.00    +0.009 A 
ATOM     20  C   UNL     1       4.737  -1.179  23.903  0.00  0.00    +0.046 A 
ATOM     21  C   UNL     1       4.645   1.022  22.912  0.00  0.00    +0.046 A 
ATOM     22  C   UNL     1       5.346   0.042  23.614  0.00  0.00    +0.120 A 
BRANCH  22   5
ATOM      5  O   UNL     1       6.625   0.277  24.017  0.00  0.00    -0.495 OA
ATOM     23  C   UNL     1       7.668  -0.310  23.240  0.00  0.00    +0.277 C 
ENDBRANCH  22   5
ENDBRANCH  15  16
ENDBRANCH   8  15
TORSDOF 4
ENDMDL
MODEL 2
REMARK VINA RESULT:       1.3      1.513      2.097
REMARK  Name = 75536999
REMARK  6 active torsions:
REMARK  status: ('A' for Active; 'I' for Inactive)
REMARK    1  A    between atoms: S_1  and  N_7
REMARK    2  A    between atoms: S_1  and  C_17
REMARK    3  A    between atoms: O_5  and  C_22
REMARK    4  A    between atoms: O_5  and  C_23
REMARK    5  A    between atoms: N_8  and  C_15
REMARK    6  A    between atoms: C_15  and  C_16
REMARK                            x       y       z     vdW  Elec       q    Type
REMARK                         _______ _______ _______ _____ _____    ______ ____
ROOT
ATOM      2  O   UNL     1       1.291   1.577  24.798  0.00  0.00    -0.252 OA
ATOM      6  N   UNL     1      -0.904   2.328  24.424  0.00  0.00    -0.278 N 
ATOM      7  N   UNL     1      -3.479   3.223  25.044  0.00  0.00    -0.178 NA
ATOM      8  N   UNL     1      -0.160   0.573  23.233  0.00  0.00    -0.279 N 
ATOM      9  C   UNL     1      -1.980   2.035  23.496  0.00  0.00    +0.111 C 
ATOM     10  C   UNL     1      -3.314   1.972  24.231  0.00  0.00    +0.133 C 
ATOM     11  C   UNL     1      -1.551   0.723  22.844  0.00  0.00    +0.133 C 
ATOM     12  C   UNL     1      -1.031   3.442  25.342  0.00  0.00    +0.127 C 
ATOM     13  C   UNL     1      -2.379   3.381  26.053  0.00  0.00    +0.128 C 
ATOM     14  C   UNL     1       0.213   1.505  24.222  0.00  0.00    +0.305 C 
ENDROOT
BRANCH   7   1
ATOM      1  S   UNL     1      -5.062   3.503  25.639  0.00  0.00    +0.029 S 
ATOM      3  O   UNL     1      -5.576   4.713  25.037  0.00  0.00    -0.158 OA
ATOM      4  O   UNL     1      -5.059   3.306  27.071  0.00  0.00    -0.158 OA
ATOM     17  C   UNL     1      -5.890   2.122  24.895  0.00  0.00    +0.215 C 
ENDBRANCH   7   1
BRANCH   8  15
ATOM     15  C   UNL     1       0.664  -0.505  22.734  0.00  0.00    +0.144 C 
BRANCH  15  16
ATOM     16  C   UNL     1       2.127  -0.234  22.939  0.00  0.00    -0.030 A 
ATOM     18  C   UNL     1       2.687   0.958  22.481  0.00  0.00    +0.009 A 
ATOM     19  C   UNL     1       2.926  -1.177  23.585  0.00  0.00    +0.009 A 
ATOM     20  C   UNL     1       4.046   1.209  22.671  0.00  0.00    +0.046 A 
ATOM     21  C   UNL     1       4.285  -0.926  23.776  0.00  0.00    +0.046 A 
ATOM     22  C   UNL     1       4.846   0.266  23.319  0.00  0.00    +0.120 A 
BRANCH  22   5
ATOM      5  O   UNL     1       6.171   0.512  23.505  0.00  0.00    -0.495 OA
ATOM     23  C   UNL     1       7.086  -0.482  23.043  0.00  0.00    +0.277 C 
ENDBRANCH  22   5
ENDBRANCH  15  16
ENDBRANCH   8  15
TORSDOF 4
ENDMDL
MODEL 3
REMARK VINA RESULT:       2.0      2.760      8.321
REMARK  Name = 75536999
REMARK  6 active torsions:
REMARK  status: ('A' for Active; 'I' for Inactive)
REMARK    1  A    between atoms: S_1  and  N_7
REMARK    2  A    between atoms: S_1  and  C_17
REMARK    3  A    between atoms: O_5  and  C_22
REMARK    4  A    between atoms: O_5  and  C_23
REMARK    5  A    between atoms: N_8  and  C_15
REMARK    6  A    between atoms: C_15  and  C_16
REMARK                            x       y       z     vdW  Elec       q    Type
REMARK                         _______ _______ _______ _____ _____    ______ ____
ROOT
ATOM      2  O   UNL     1      -2.316   2.004  25.603  0.00  0.00    -0.252 OA
ATOM      6  N   UNL     1      -0.440   0.835  24.807  0.00  0.00    -0.278 N 
ATOM      7  N   UNL     1       1.986   0.419  23.480  0.00  0.00    -0.178 NA
ATOM      8  N   UNL     1      -2.461  -0.124  24.598  0.00  0.00    -0.279 N 
ATOM      9  C   UNL     1      -0.163  -0.483  24.270  0.00  0.00    +0.111 C 
ATOM     10  C   UNL     1       0.783  -0.384  23.078  0.00  0.00    +0.133 C 
ATOM     11  C   UNL     1      -1.546  -1.039  23.938  0.00  0.00    +0.133 C 
ATOM     12  C   UNL     1       0.658   1.734  25.104  0.00  0.00    +0.127 C 
ATOM     13  C   UNL     1       1.609   1.807  23.914  0.00  0.00    +0.128 C 
ATOM     14  C   UNL     1      -1.802   1.027  25.073  0.00  0.00    +0.305 C 
ENDROOT
BRANCH   7   1
ATOM      1  S   UNL     1       3.317   0.328  22.404  0.00  0.00    +0.029 S 
ATOM      3  O   UNL     1       4.094   1.541  22.525  0.00  0.00    -0.158 OA
ATOM      4  O   UNL     1       2.846  -0.152  21.124  0.00  0.00    -0.158 OA
ATOM     17  C   UNL     1       4.219  -0.984  23.185  0.00  0.00    +0.215 C 
ENDBRANCH   7   1
BRANCH   8  15
ATOM     15  C   UNL     1      -3.889  -0.350  24.619  0.00  0.00    +0.144 C 
BRANCH  15  16
ATOM     16  C   UNL     1      -4.651   0.900  24.953  0.00  0.00    -0.030 A 
ATOM     18  C   UNL     1      -4.487   2.046  24.175  0.00  0.00    +0.009 A 
ATOM     19  C   UNL     1      -5.522   0.915  26.042  0.00  0.00    +0.009 A 
ATOM     20  C   UNL     1      -5.196   3.206  24.486  0.00  0.00    +0.046 A 
ATOM     21  C   UNL     1      -6.230   2.076  26.353  0.00  0.00    +0.046 A 
ATOM     22  C   UNL     1      -6.067   3.222  25.575  0.00  0.00    +0.120 A 
BRANCH  22   5
ATOM      5  O   UNL     1      -6.759   4.354  25.877  0.00  0.00    -0.495 OA
ATOM     23  C   UNL     1      -6.259   5.581  25.345  0.00  0.00    +0.277 C 
ENDBRANCH  22   5
ENDBRANCH  15  16
ENDBRANCH   8  15
TORSDOF 4
ENDMDL
