MODEL 1
REMARK VINA RESULT:      -2.4      0.000      0.000
REMARK  Name = 26742907
REMARK  5 active torsions:
REMARK  status: ('A' for Active; 'I' for Inactive)
REMARK    1  A    between atoms: C_9  and  C_15
REMARK    2  A    between atoms: C_10  and  C_14
REMARK    3  A    between atoms: C_14  and  C_16
REMARK    4  A    between atoms: C_15  and  C_17
REMARK    5  A    between atoms: C_19  and  C_20
REMARK                            x       y       z     vdW  Elec       q    Type
REMARK                         _______ _______ _______ _____ _____    ______ ____
ROOT
ATOM      5  N   UNL     1      -1.945  -2.989  24.642  0.00  0.00    -0.316 NA
ATOM      9  C   UNL     1      -4.001  -0.983  23.965  0.00  0.00    +0.004 C 
ATOM     10  C   UNL     1      -2.529  -0.862  23.503  0.00  0.00    +0.012 C 
ATOM     11  C   UNL     1      -4.323  -2.464  24.228  0.00  0.00    +0.019 C 
ATOM     12  C   UNL     1      -1.570  -1.586  24.463  0.00  0.00    +0.085 C 
ATOM     13  C   UNL     1      -3.306  -3.126  25.156  0.00  0.00    +0.081 C 
ATOM     29  H   UNL     1      -1.293  -3.432  25.289  0.00  0.00    +0.122 HD
ENDROOT
BRANCH  10  14
ATOM     14  C   UNL     1      -2.086   0.587  23.292  0.00  0.00    +0.064 C 
BRANCH  14  16
ATOM      3  O   UNL     1       1.253   1.608  24.172  0.00  0.00    -0.354 OA
ATOM      6  N   UNL     1      -0.127   1.770  24.190  0.00  0.00    -0.083 NA
ATOM     16  C   UNL     1      -0.605   0.739  23.485  0.00  0.00    +0.085 A 
ATOM     18  C   UNL     1       0.417  -0.097  23.004  0.00  0.00    +0.076 A 
ATOM     19  C   UNL     1       1.565   0.493  23.463  0.00  0.00    +0.167 A 
BRANCH  19  20
ATOM      2  F   UNL     1       6.992  -0.660  23.057  0.00  0.00    -0.205 F 
ATOM     20  C   UNL     1       2.963   0.196  23.357  0.00  0.00    +0.020 A 
ATOM     22  C   UNL     1       3.448  -1.042  23.781  0.00  0.00    +0.014 A 
ATOM     23  C   UNL     1       3.840   1.144  22.832  0.00  0.00    +0.014 A 
ATOM     24  C   UNL     1       4.808  -1.330  23.680  0.00  0.00    +0.039 A 
ATOM     25  C   UNL     1       5.201   0.855  22.730  0.00  0.00    +0.039 A 
ATOM     28  C   UNL     1       5.685  -0.382  23.154  0.00  0.00    +0.123 A 
ENDBRANCH  19  20
ENDBRANCH  14  16
ENDBRANCH  10  14
BRANCH   9  15
ATOM     15  C   UNL     1      -4.343  -0.125  25.188  0.00  0.00    +0.100 C 
BRANCH  15  17
ATOM      1  S   UNL     1      -1.359   3.820  25.683  0.00  0.00    -0.061 S 
ATOM      4  O   UNL     1      -5.393   1.863  24.323  0.00  0.00    -0.275 OA
ATOM      7  N   UNL     1      -3.234   1.988  25.240  0.00  0.00    -0.265 N 
ATOM      8  N   UNL     1      -3.646   4.314  24.583  0.00  0.00    -0.233 NA
ATOM     17  C   UNL     1      -4.412   1.354  24.855  0.00  0.00    +0.219 C 
ATOM     21  C   UNL     1      -2.907   3.359  25.102  0.00  0.00    +0.164 A 
ATOM     26  C   UNL     1      -1.690   5.435  25.208  0.00  0.00    +0.068 A 
ATOM     27  C   UNL     1      -2.947   5.503  24.645  0.00  0.00    +0.120 A 
ATOM     30  H   UNL     1      -2.500   1.433  25.673  0.00  0.00    +0.157 HD
ENDBRANCH  15  17
ENDBRANCH   9  15
TORSDOF 5
ENDMDL
MODEL 2
REMARK VINA RESULT:      -2.4      1.708      4.357
REMARK  Name = 26742907
REMARK  5 active torsions:
REMARK  status: ('A' for Active; 'I' for Inactive)
REMARK    1  A    between atoms: C_9  and  C_15
REMARK    2  A    between atoms: C_10  and  C_14
REMARK    3  A    between atoms: C_14  and  C_16
REMARK    4  A    between atoms: C_15  and  C_17
REMARK    5  A    between atoms: C_19  and  C_20
REMARK                            x       y       z     vdW  Elec       q    Type
REMARK                         _______ _______ _______ _____ _____    ______ ____
ROOT
ATOM      5  N   UNL     1      -1.341   5.379  25.018  0.00  0.00    -0.316 NA
ATOM      9  C   UNL     1      -2.716   2.835  25.609  0.00  0.00    +0.004 C 
ATOM     10  C   UNL     1      -1.590   2.953  24.553  0.00  0.00    +0.012 C 
ATOM     11  C   UNL     1      -2.557   3.966  26.639  0.00  0.00    +0.019 C 
ATOM     12  C   UNL     1      -1.506   4.372  23.968  0.00  0.00    +0.085 C 
ATOM     13  C   UNL     1      -2.438   5.341  25.983  0.00  0.00    +0.081 C 
ATOM     29  H   UNL     1      -1.298   6.305  24.593  0.00  0.00    +0.122 HD
ENDROOT
BRANCH  10  14
ATOM     14  C   UNL     1      -1.709   1.916  23.434  0.00  0.00    +0.064 C 
BRANCH  14  16
ATOM      3  O   UNL     1       0.871  -0.488  22.706  0.00  0.00    -0.354 OA
ATOM      6  N   UNL     1      -0.454  -0.070  22.710  0.00  0.00    -0.083 NA
ATOM     16  C   UNL     1      -0.431   1.147  23.265  0.00  0.00    +0.085 A 
ATOM     18  C   UNL     1       0.868   1.543  23.627  0.00  0.00    +0.076 A 
ATOM     19  C   UNL     1       1.649   0.480  23.255  0.00  0.00    +0.167 A 
BRANCH  19  20
ATOM      2  F   UNL     1       7.089  -0.654  23.511  0.00  0.00    -0.205 F 
ATOM     20  C   UNL     1       3.050   0.187  23.319  0.00  0.00    +0.020 A 
ATOM     22  C   UNL     1       3.481  -1.083  23.705  0.00  0.00    +0.014 A 
ATOM     23  C   UNL     1       3.984   1.172  22.999  0.00  0.00    +0.014 A 
ATOM     24  C   UNL     1       4.845  -1.366  23.769  0.00  0.00    +0.039 A 
ATOM     25  C   UNL     1       5.348   0.888  23.062  0.00  0.00    +0.039 A 
ATOM     28  C   UNL     1       5.779  -0.382  23.448  0.00  0.00    +0.123 A 
ENDBRANCH  19  20
ENDBRANCH  14  16
ENDBRANCH  10  14
BRANCH   9  15
ATOM     15  C   UNL     1      -4.130   2.834  25.015  0.00  0.00    +0.100 C 
BRANCH  15  17
ATOM      1  S   UNL     1      -2.157  -1.729  24.915  0.00  0.00    -0.061 S 
ATOM      4  O   UNL     1      -5.756   1.207  24.300  0.00  0.00    -0.275 OA
ATOM      7  N   UNL     1      -3.575   0.518  24.834  0.00  0.00    -0.265 N 
ATOM      8  N   UNL     1      -4.641  -1.599  24.210  0.00  0.00    -0.233 NA
ATOM     17  C   UNL     1      -4.609   1.435  24.668  0.00  0.00    +0.219 C 
ATOM     21  C   UNL     1      -3.618  -0.879  24.615  0.00  0.00    +0.164 A 
ATOM     26  C   UNL     1      -2.943  -3.187  24.471  0.00  0.00    +0.068 A 
ATOM     27  C   UNL     1      -4.252  -2.922  24.128  0.00  0.00    +0.120 A 
ATOM     30  H   UNL     1      -2.669   0.857  25.149  0.00  0.00    +0.157 HD
ENDBRANCH  15  17
ENDBRANCH   9  15
TORSDOF 5
ENDMDL
MODEL 3
REMARK VINA RESULT:      -1.8      1.729      4.230
REMARK  Name = 26742907
REMARK  5 active torsions:
REMARK  status: ('A' for Active; 'I' for Inactive)
REMARK    1  A    between atoms: C_9  and  C_15
REMARK    2  A    between atoms: C_10  and  C_14
REMARK    3  A    between atoms: C_14  and  C_16
REMARK    4  A    between atoms: C_15  and  C_17
REMARK    5  A    between atoms: C_19  and  C_20
REMARK                            x       y       z     vdW  Elec       q    Type
REMARK                         _______ _______ _______ _____ _____    ______ ____
ROOT
ATOM      5  N   UNL     1      -4.822   4.777  24.371  0.00  0.00    -0.316 NA
ATOM      9  C   UNL     1      -3.997   2.107  25.320  0.00  0.00    +0.004 C 
ATOM     10  C   UNL     1      -3.271   2.848  24.171  0.00  0.00    +0.012 C 
ATOM     11  C   UNL     1      -4.700   3.140  26.217  0.00  0.00    +0.019 C 
ATOM     12  C   UNL     1      -4.210   3.825  23.443  0.00  0.00    +0.085 C 
ATOM     13  C   UNL     1      -5.582   4.100  25.420  0.00  0.00    +0.081 C 
ATOM     29  H   UNL     1      -5.442   5.400  23.854  0.00  0.00    +0.122 HD
ENDROOT
BRANCH  10  14
ATOM     14  C   UNL     1      -2.605   1.899  23.174  0.00  0.00    +0.064 C 
BRANCH  14  16
ATOM      3  O   UNL     1       0.788   2.181  24.344  0.00  0.00    -0.354 OA
ATOM      6  N   UNL     1      -0.548   2.562  24.344  0.00  0.00    -0.083 NA
ATOM     16  C   UNL     1      -1.134   1.767  23.443  0.00  0.00    +0.085 A 
ATOM     18  C   UNL     1      -0.226   0.874  22.849  0.00  0.00    +0.076 A 
ATOM     19  C   UNL     1       0.968   1.176  23.450  0.00  0.00    +0.167 A 
BRANCH  19  20
ATOM      2  F   UNL     1       6.165  -0.763  23.024  0.00  0.00    -0.205 F 
ATOM     20  C   UNL     1       2.307   0.676  23.339  0.00  0.00    +0.020 A 
ATOM     22  C   UNL     1       2.577  -0.664  23.620  0.00  0.00    +0.014 A 
ATOM     23  C   UNL     1       3.340   1.529  22.953  0.00  0.00    +0.014 A 
ATOM     24  C   UNL     1       3.880  -1.149  23.513  0.00  0.00    +0.039 A 
ATOM     25  C   UNL     1       4.643   1.043  22.846  0.00  0.00    +0.039 A 
ATOM     28  C   UNL     1       4.913  -0.296  23.126  0.00  0.00    +0.123 A 
ENDBRANCH  19  20
ENDBRANCH  14  16
ENDBRANCH  10  14
BRANCH   9  15
ATOM     15  C   UNL     1      -4.984   1.035  24.845  0.00  0.00    +0.100 C 
BRANCH  15  17
ATOM      1  S   UNL     1      -0.604  -1.064  25.909  0.00  0.00    -0.061 S 
ATOM      4  O   UNL     1      -4.847  -1.187  23.924  0.00  0.00    -0.275 OA
ATOM      7  N   UNL     1      -3.035  -0.312  25.136  0.00  0.00    -0.265 N 
ATOM      8  N   UNL     1      -2.213  -2.539  24.524  0.00  0.00    -0.233 NA
ATOM     17  C   UNL     1      -4.304  -0.293  24.566  0.00  0.00    +0.219 C 
ATOM     21  C   UNL     1      -2.088  -1.364  25.100  0.00  0.00    +0.164 A 
ATOM     26  C   UNL     1      -0.070  -2.630  25.458  0.00  0.00    +0.068 A 
ATOM     27  C   UNL     1      -1.055  -3.263  24.730  0.00  0.00    +0.120 A 
ATOM     30  H   UNL     1      -2.716   0.509  25.645  0.00  0.00    +0.157 HD
ENDBRANCH  15  17
ENDBRANCH   9  15
TORSDOF 5
ENDMDL
MODEL 4
REMARK VINA RESULT:      -1.2      2.144      4.733
REMARK  Name = 26742907
REMARK  5 active torsions:
REMARK  status: ('A' for Active; 'I' for Inactive)
REMARK    1  A    between atoms: C_9  and  C_15
REMARK    2  A    between atoms: C_10  and  C_14
REMARK    3  A    between atoms: C_14  and  C_16
REMARK    4  A    between atoms: C_15  and  C_17
REMARK    5  A    between atoms: C_19  and  C_20
REMARK                            x       y       z     vdW  Elec       q    Type
REMARK                         _______ _______ _______ _____ _____    ______ ____
ROOT
ATOM      5  N   UNL     1      -6.283   4.337  25.926  0.00  0.00    -0.316 NA
ATOM      9  C   UNL     1      -3.974   2.568  25.427  0.00  0.00    +0.004 C 
ATOM     10  C   UNL     1      -3.819   4.041  25.876  0.00  0.00    +0.012 C 
ATOM     11  C   UNL     1      -5.351   2.050  25.877  0.00  0.00    +0.019 C 
ATOM     12  C   UNL     1      -5.021   4.897  25.442  0.00  0.00    +0.085 C 
ATOM     13  C   UNL     1      -6.491   2.972  25.447  0.00  0.00    +0.081 C 
ATOM     29  H   UNL     1      -7.055   4.926  25.613  0.00  0.00    +0.122 HD
ENDROOT
BRANCH  10  14
ATOM     14  C   UNL     1      -2.509   4.675  25.403  0.00  0.00    +0.064 C 
BRANCH  14  16
ATOM      3  O   UNL     1      -0.079   2.035  25.696  0.00  0.00    -0.354 OA
ATOM      6  N   UNL     1      -1.061   2.866  26.221  0.00  0.00    -0.083 NA
ATOM     16  C   UNL     1      -1.443   3.639  25.199  0.00  0.00    +0.085 A 
ATOM     18  C   UNL     1      -0.742   3.344  24.017  0.00  0.00    +0.076 A 
ATOM     19  C   UNL     1       0.102   2.329  24.383  0.00  0.00    +0.167 A 
BRANCH  19  20
ATOM      2  F   UNL     1       3.945  -0.702  21.739  0.00  0.00    -0.205 F 
ATOM     20  C   UNL     1       1.092   1.547  23.703  0.00  0.00    +0.020 A 
ATOM     22  C   UNL     1       2.404   2.013  23.606  0.00  0.00    +0.014 A 
ATOM     23  C   UNL     1       0.745   0.321  23.136  0.00  0.00    +0.014 A 
ATOM     24  C   UNL     1       3.367   1.253  22.942  0.00  0.00    +0.039 A 
ATOM     25  C   UNL     1       1.708  -0.439  22.474  0.00  0.00    +0.039 A 
ATOM     28  C   UNL     1       3.020   0.027  22.376  0.00  0.00    +0.123 A 
ENDBRANCH  19  20
ENDBRANCH  14  16
ENDBRANCH  10  14
BRANCH   9  15
ATOM     15  C   UNL     1      -3.775   2.350  23.923  0.00  0.00    +0.100 C 
BRANCH  15  17
ATOM      1  S   UNL     1      -1.027  -1.140  26.154  0.00  0.00    -0.061 S 
ATOM      4  O   UNL     1      -3.612   0.376  22.553  0.00  0.00    -0.275 OA
ATOM      7  N   UNL     1      -2.537   0.439  24.640  0.00  0.00    -0.265 N 
ATOM      8  N   UNL     1      -1.956  -1.801  23.834  0.00  0.00    -0.233 NA
ATOM     17  C   UNL     1      -3.313   0.941  23.599  0.00  0.00    +0.219 C 
ATOM     21  C   UNL     1      -1.921  -0.833  24.722  0.00  0.00    +0.164 A 
ATOM     26  C   UNL     1      -0.645  -2.699  25.551  0.00  0.00    +0.068 A 
ATOM     27  C   UNL     1      -1.223  -2.871  24.311  0.00  0.00    +0.120 A 
ATOM     30  H   UNL     1      -2.372   1.028  25.454  0.00  0.00    +0.157 HD
ENDBRANCH  15  17
ENDBRANCH   9  15
TORSDOF 5
ENDMDL
MODEL 5
REMARK VINA RESULT:       0.8      2.855      6.934
REMARK  Name = 26742907
REMARK  5 active torsions:
REMARK  status: ('A' for Active; 'I' for Inactive)
REMARK    1  A    between atoms: C_9  and  C_15
REMARK    2  A    between atoms: C_10  and  C_14
REMARK    3  A    between atoms: C_14  and  C_16
REMARK    4  A    between atoms: C_15  and  C_17
REMARK    5  A    between atoms: C_19  and  C_20
REMARK                            x       y       z     vdW  Elec       q    Type
REMARK                         _______ _______ _______ _____ _____    ______ ____
ROOT
ATOM      5  N   UNL     1      -1.727   6.428  25.056  0.00  0.00    -0.316 NA
ATOM      9  C   UNL     1      -2.117   3.544  24.568  0.00  0.00    +0.004 C 
ATOM     10  C   UNL     1      -3.252   4.469  25.068  0.00  0.00    +0.012 C 
ATOM     11  C   UNL     1      -1.073   4.391  23.822  0.00  0.00    +0.019 C 
ATOM     12  C   UNL     1      -2.701   5.675  25.847  0.00  0.00    +0.085 C 
ATOM     13  C   UNL     1      -0.602   5.592  24.640  0.00  0.00    +0.081 C 
ATOM     29  H   UNL     1      -1.379   7.212  25.607  0.00  0.00    +0.122 HD
ENDROOT
BRANCH  10  14
ATOM     14  C   UNL     1      -4.305   3.731  25.897  0.00  0.00    +0.064 C 
BRANCH  14  16
ATOM      3  O   UNL     1      -5.397   0.440  24.925  0.00  0.00    -0.354 OA
ATOM      6  N   UNL     1      -5.642   1.749  25.324  0.00  0.00    -0.083 NA
ATOM     16  C   UNL     1      -4.431   2.298  25.468  0.00  0.00    +0.085 A 
ATOM     18  C   UNL     1      -3.397   1.391  25.176  0.00  0.00    +0.076 A 
ATOM     19  C   UNL     1      -4.058   0.239  24.841  0.00  0.00    +0.167 A 
BRANCH  19  20
ATOM      2  F   UNL     1      -2.479  -4.859  23.273  0.00  0.00    -0.205 F 
ATOM     20  C   UNL     1      -3.651  -1.075  24.438  0.00  0.00    +0.020 A 
ATOM     22  C   UNL     1      -2.340  -1.498  24.658  0.00  0.00    +0.014 A 
ATOM     23  C   UNL     1      -4.566  -1.931  23.824  0.00  0.00    +0.014 A 
ATOM     24  C   UNL     1      -1.945  -2.776  24.264  0.00  0.00    +0.039 A 
ATOM     25  C   UNL     1      -4.170  -3.209  23.431  0.00  0.00    +0.039 A 
ATOM     28  C   UNL     1      -2.859  -3.632  23.651  0.00  0.00    +0.123 A 
ENDBRANCH  19  20
ENDBRANCH  14  16
ENDBRANCH  10  14
BRANCH   9  15
ATOM     15  C   UNL     1      -1.456   2.714  25.674  0.00  0.00    +0.100 C 
BRANCH  15  17
ATOM      1  S   UNL     1       0.757  -0.045  22.181  0.00  0.00    -0.061 S 
ATOM      4  O   UNL     1       0.933   2.691  25.980  0.00  0.00    -0.275 OA
ATOM      7  N   UNL     1      -0.026   1.498  24.199  0.00  0.00    -0.265 N 
ATOM      8  N   UNL     1       2.362   1.034  23.897  0.00  0.00    -0.233 NA
ATOM     17  C   UNL     1      -0.033   2.315  25.325  0.00  0.00    +0.219 C 
ATOM     21  C   UNL     1       1.096   0.919  23.559  0.00  0.00    +0.164 A 
ATOM     26  C   UNL     1       2.437  -0.343  22.007  0.00  0.00    +0.068 A 
ATOM     27  C   UNL     1       3.129   0.310  23.006  0.00  0.00    +0.120 A 
ATOM     30  H   UNL     1      -0.913   1.269  23.756  0.00  0.00    +0.157 HD
ENDBRANCH  15  17
ENDBRANCH   9  15
TORSDOF 5
ENDMDL
MODEL 6
REMARK VINA RESULT:       1.4      3.708      7.403
REMARK  Name = 26742907
REMARK  5 active torsions:
REMARK  status: ('A' for Active; 'I' for Inactive)
REMARK    1  A    between atoms: C_9  and  C_15
REMARK    2  A    between atoms: C_10  and  C_14
REMARK    3  A    between atoms: C_14  and  C_16
REMARK    4  A    between atoms: C_15  and  C_17
REMARK    5  A    between atoms: C_19  and  C_20
REMARK                            x       y       z     vdW  Elec       q    Type
REMARK                         _______ _______ _______ _____ _____    ______ ____
ROOT
ATOM      5  N   UNL     1       3.531   0.863  21.694  0.00  0.00    -0.316 NA
ATOM      9  C   UNL     1       1.070   0.101  23.133  0.00  0.00    +0.004 C 
ATOM     10  C   UNL     1       1.716   1.502  23.263  0.00  0.00    +0.012 C 
ATOM     11  C   UNL     1       1.486  -0.519  21.790  0.00  0.00    +0.019 C 
ATOM     12  C   UNL     1       3.230   1.456  22.998  0.00  0.00    +0.085 C 
ATOM     13  C   UNL     1       2.999  -0.493  21.578  0.00  0.00    +0.081 C 
ATOM     29  H   UNL     1       4.542   0.843  21.559  0.00  0.00    +0.122 HD
ENDROOT
BRANCH  10  14
ATOM     14  C   UNL     1       1.426   2.172  24.608  0.00  0.00    +0.064 C 
BRANCH  14  16
ATOM      3  O   UNL     1      -1.740   3.883  24.706  0.00  0.00    -0.354 OA
ATOM      6  N   UNL     1      -0.361   3.859  24.541  0.00  0.00    -0.083 NA
ATOM     16  C   UNL     1      -0.014   2.579  24.716  0.00  0.00    +0.085 A 
ATOM     18  C   UNL     1      -1.123   1.760  24.992  0.00  0.00    +0.076 A 
ATOM     19  C   UNL     1      -2.183   2.628  24.974  0.00  0.00    +0.167 A 
BRANCH  19  20
ATOM      2  F   UNL     1      -7.670   2.120  25.732  0.00  0.00    -0.205 F 
ATOM     20  C   UNL     1      -3.596   2.498  25.171  0.00  0.00    +0.020 A 
ATOM     22  C   UNL     1      -4.195   1.238  25.116  0.00  0.00    +0.014 A 
ATOM     23  C   UNL     1      -4.374   3.629  25.415  0.00  0.00    +0.014 A 
ATOM     24  C   UNL     1      -5.571   1.111  25.306  0.00  0.00    +0.039 A 
ATOM     25  C   UNL     1      -5.750   3.502  25.605  0.00  0.00    +0.039 A 
ATOM     28  C   UNL     1      -6.349   2.242  25.550  0.00  0.00    +0.123 A 
ENDBRANCH  19  20
ENDBRANCH  14  16
ENDBRANCH  10  14
BRANCH   9  15
ATOM     15  C   UNL     1       1.393  -0.845  24.295  0.00  0.00    +0.100 C 
BRANCH  15  17
ATOM      1  S   UNL     1      -3.443  -1.009  23.156  0.00  0.00    -0.061 S 
ATOM      4  O   UNL     1       0.263  -2.543  25.576  0.00  0.00    -0.275 OA
ATOM      7  N   UNL     1      -0.947  -1.243  24.040  0.00  0.00    -0.265 N 
ATOM      8  N   UNL     1      -2.686  -2.713  24.947  0.00  0.00    -0.233 NA
ATOM     17  C   UNL     1       0.188  -1.658  24.731  0.00  0.00    +0.219 C 
ATOM     21  C   UNL     1      -2.264  -1.748  24.160  0.00  0.00    +0.164 A 
ATOM     26  C   UNL     1      -4.627  -2.058  23.817  0.00  0.00    +0.068 A 
ATOM     27  C   UNL     1      -4.042  -2.889  24.749  0.00  0.00    +0.120 A 
ATOM     30  H   UNL     1      -0.857  -0.490  23.361  0.00  0.00    +0.157 HD
ENDBRANCH  15  17
ENDBRANCH   9  15
TORSDOF 5
ENDMDL
