MODEL 1
REMARK VINA RESULT:      -1.6      0.000      0.000
REMARK  Name = 7662800
REMARK  5 active torsions:
REMARK  status: ('A' for Active; 'I' for Inactive)
REMARK    1  A    between atoms: S_1  and  C_20
REMARK    2  A    between atoms: S_1  and  C_26
REMARK    3  A    between atoms: C_14  and  C_19
REMARK    4  A    between atoms: C_16  and  C_20
REMARK    5  A    between atoms: C_23  and  C_27
REMARK                            x       y       z     vdW  Elec       q    Type
REMARK                         _______ _______ _______ _____ _____    ______ ____
ROOT
ATOM      2  O   UNL     1      -2.469   4.639  26.837  0.00  0.00    -0.268 OA
ATOM      3  O   UNL     1      -5.358   0.301  26.071  0.00  0.00    -0.275 OA
ATOM      4  N   UNL     1      -4.130   0.773  24.156  0.00  0.00    -0.300 N 
ATOM      5  N   UNL     1      -2.348   3.296  24.921  0.00  0.00    -0.311 N 
ATOM      7  C   UNL     1      -4.319   3.102  23.294  0.00  0.00    +0.027 C 
ATOM      8  C   UNL     1      -2.261   1.820  22.888  0.00  0.00    +0.054 C 
ATOM      9  C   UNL     1      -3.247   2.802  22.258  0.00  0.00    +0.018 C 
ATOM     10  C   UNL     1      -5.052   1.815  23.708  0.00  0.00    +0.113 C 
ATOM     11  C   UNL     1      -3.661   3.794  24.488  0.00  0.00    +0.130 C 
ATOM     12  C   UNL     1      -3.000   0.516  23.253  0.00  0.00    +0.117 C 
ATOM     13  C   UNL     1      -1.588   2.413  24.128  0.00  0.00    +0.034 A 
ATOM     14  C   UNL     1      -0.318   2.099  24.495  0.00  0.00    +0.002 A 
ATOM     15  C   UNL     1      -1.855   3.853  26.115  0.00  0.00    +0.252 A 
ATOM     16  C   UNL     1      -4.402   0.067  25.328  0.00  0.00    +0.225 C 
ATOM     17  C   UNL     1       0.224   2.652  25.722  0.00  0.00    +0.015 A 
ATOM     18  C   UNL     1      -0.481   3.465  26.507  0.00  0.00    +0.071 A 
ENDROOT
BRANCH  14  19
ATOM     19  C   UNL     1       0.524   1.191  23.685  0.00  0.00    -0.015 A 
ATOM     21  C   UNL     1       1.911   1.282  23.760  0.00  0.00    +0.027 A 
ATOM     22  C   UNL     1      -0.077   0.253  22.851  0.00  0.00    +0.008 A 
ATOM     23  C   UNL     1       2.703   0.426  22.995  0.00  0.00    +0.052 A 
ATOM     24  C   UNL     1       0.716  -0.603  22.086  0.00  0.00    +0.002 A 
ATOM     25  C   UNL     1       2.105  -0.516  22.158  0.00  0.00    +0.019 A 
BRANCH  23  27
ATOM      6  N   UNL     1       5.286   0.587  23.128  0.00  0.00    -0.191 NA
ATOM     27  C   UNL     1       4.127   0.515  23.068  0.00  0.00    +0.099 C 
ENDBRANCH  23  27
ENDBRANCH  14  19
BRANCH  16  20
ATOM     20  C   UNL     1      -3.444  -1.041  25.687  0.00  0.00    +0.164 C 
BRANCH  20   1
ATOM      1  S   UNL     1      -3.668  -2.367  24.493  0.00  0.00    -0.155 S 
ATOM     26  C   UNL     1      -1.931  -2.799  24.223  0.00  0.00    +0.085 C 
ENDBRANCH  20   1
ENDBRANCH  16  20
TORSDOF 4
ENDMDL
MODEL 2
REMARK VINA RESULT:       1.5      2.615      4.718
REMARK  Name = 7662800
REMARK  5 active torsions:
REMARK  status: ('A' for Active; 'I' for Inactive)
REMARK    1  A    between atoms: S_1  and  C_20
REMARK    2  A    between atoms: S_1  and  C_26
REMARK    3  A    between atoms: C_14  and  C_19
REMARK    4  A    between atoms: C_16  and  C_20
REMARK    5  A    between atoms: C_23  and  C_27
REMARK                            x       y       z     vdW  Elec       q    Type
REMARK                         _______ _______ _______ _____ _____    ______ ____
ROOT
ATOM      2  O   UNL     1      -3.898   4.295  21.231  0.00  0.00    -0.268 OA
ATOM      3  O   UNL     1      -0.892   5.254  25.450  0.00  0.00    -0.275 OA
ATOM      4  N   UNL     1      -2.419   3.571  25.940  0.00  0.00    -0.300 N 
ATOM      5  N   UNL     1      -3.974   3.051  23.214  0.00  0.00    -0.311 N 
ATOM      7  C   UNL     1      -4.798   4.080  25.412  0.00  0.00    +0.027 C 
ATOM      8  C   UNL     1      -4.016   1.751  25.365  0.00  0.00    +0.054 C 
ATOM      9  C   UNL     1      -5.180   2.652  25.770  0.00  0.00    +0.018 C 
ATOM     10  C   UNL     1      -3.522   4.506  26.156  0.00  0.00    +0.113 C 
ATOM     11  C   UNL     1      -4.634   4.173  23.895  0.00  0.00    +0.130 C 
ATOM     12  C   UNL     1      -2.754   2.157  26.155  0.00  0.00    +0.117 C 
ATOM     13  C   UNL     1      -3.744   1.819  23.860  0.00  0.00    +0.034 A 
ATOM     14  C   UNL     1      -3.271   0.762  23.151  0.00  0.00    +0.002 A 
ATOM     15  C   UNL     1      -3.702   3.248  21.848  0.00  0.00    +0.252 A 
ATOM     16  C   UNL     1      -1.151   4.060  25.626  0.00  0.00    +0.225 C 
ATOM     17  C   UNL     1      -2.975   0.929  21.741  0.00  0.00    +0.015 A 
ATOM     18  C   UNL     1      -3.155   2.088  21.109  0.00  0.00    +0.071 A 
ENDROOT
BRANCH  14  19
ATOM     19  C   UNL     1      -3.031  -0.555  23.782  0.00  0.00    -0.015 A 
ATOM     21  C   UNL     1      -1.762  -0.876  24.254  0.00  0.00    +0.027 A 
ATOM     22  C   UNL     1      -4.078  -1.465  23.898  0.00  0.00    +0.008 A 
ATOM     23  C   UNL     1      -1.538  -2.118  24.847  0.00  0.00    +0.052 A 
ATOM     24  C   UNL     1      -3.852  -2.707  24.492  0.00  0.00    +0.002 A 
ATOM     25  C   UNL     1      -2.583  -3.034  24.966  0.00  0.00    +0.019 A 
BRANCH  23  27
ATOM      6  N   UNL     1       0.822  -2.725  25.728  0.00  0.00    -0.191 NA
ATOM     27  C   UNL     1      -0.236  -2.453  25.333  0.00  0.00    +0.099 C 
ENDBRANCH  23  27
ENDBRANCH  14  19
BRANCH  16  20
ATOM     20  C   UNL     1      -0.048   3.040  25.490  0.00  0.00    +0.164 C 
BRANCH  20   1
ATOM      1  S   UNL     1      -0.030   2.478  23.782  0.00  0.00    -0.155 S 
ATOM     26  C   UNL     1       1.168   1.131  23.943  0.00  0.00    +0.085 C 
ENDBRANCH  20   1
ENDBRANCH  16  20
TORSDOF 4
ENDMDL
