MODEL 1
REMARK VINA RESULT:      -4.7      0.000      0.000
REMARK  Name = 26743734
REMARK  7 active torsions:
REMARK  status: ('A' for Active; 'I' for Inactive)
REMARK    1  A    between atoms: O_4  and  C_13
REMARK    2  A    between atoms: O_6  and  C_28
REMARK    3  A    between atoms: O_6  and  C_29
REMARK    4  A    between atoms: N_7  and  C_15
REMARK    5  A    between atoms: C_11  and  C_16
REMARK    6  A    between atoms: C_15  and  C_17
REMARK    7  A    between atoms: C_18  and  C_21
REMARK                            x       y       z     vdW  Elec       q    Type
REMARK                         _______ _______ _______ _____ _____    ______ ____
ROOT
ATOM      5  O   UNL     1      -2.077   2.615  25.655  0.00  0.00    -0.336 OA
ATOM      8  N   UNL     1      -1.753   1.784  23.600  0.00  0.00    -0.190 NA
ATOM      9  N   UNL     1      -0.724   2.260  25.588  0.00  0.00    -0.056 NA
ATOM     16  C   UNL     1      -2.609   2.300  24.445  0.00  0.00    +0.245 A 
ATOM     18  C   UNL     1      -0.610   1.777  24.346  0.00  0.00    +0.202 A 
ENDROOT
BRANCH  18  21
ATOM     21  C   UNL     1       0.630   1.282  23.823  0.00  0.00    +0.023 A 
ATOM     24  C   UNL     1       0.756  -0.067  23.486  0.00  0.00    +0.015 A 
ATOM     25  C   UNL     1       1.710   2.147  23.651  0.00  0.00    +0.015 A 
ATOM     26  C   UNL     1       1.962  -0.549  22.978  0.00  0.00    +0.046 A 
ATOM     27  C   UNL     1       2.917   1.665  23.143  0.00  0.00    +0.046 A 
ATOM     28  C   UNL     1       3.043   0.317  22.807  0.00  0.00    +0.130 A 
BRANCH  28   6
ATOM      6  O   UNL     1       4.220  -0.153  22.311  0.00  0.00    -0.406 OA
BRANCH   6  29
ATOM      1  F   UNL     1       5.191  -1.280  24.008  0.00  0.00    -0.133 F 
ATOM      2  F   UNL     1       6.488  -0.388  22.492  0.00  0.00    -0.133 F 
ATOM      3  F   UNL     1       5.427   0.891  23.949  0.00  0.00    -0.133 F 
ATOM     29  C   UNL     1       5.342  -0.218  23.185  0.00  0.00    +0.575 C 
ENDBRANCH   6  29
ENDBRANCH  28   6
ENDBRANCH  18  21
BRANCH  16  11
ATOM      7  N   UNL     1      -4.948   1.623  24.961  0.00  0.00    -0.285 NA
ATOM     11  C   UNL     1      -4.084   2.593  24.259  0.00  0.00    +0.149 C 
ATOM     12  C   UNL     1      -4.493   3.966  24.822  0.00  0.00    +0.061 C 
ATOM     13  C   UNL     1      -5.624   3.671  25.799  0.00  0.00    +0.130 C 
ATOM     14  C   UNL     1      -6.171   2.341  25.315  0.00  0.00    +0.116 C 
BRANCH  13   4
ATOM      4  O   UNL     1      -6.605   4.689  25.754  0.00  0.00    -0.390 OA
ATOM     30  H   UNL     1      -7.417   4.295  25.390  0.00  0.00    +0.210 HD
ENDBRANCH  13   4
BRANCH   7  15
ATOM     15  C   UNL     1      -5.222   0.426  24.178  0.00  0.00    +0.120 C 
BRANCH  15  17
ATOM     10  N   UNL     1      -2.628  -2.830  25.259  0.00  0.00    -0.263 NA
ATOM     17  C   UNL     1      -4.314  -0.713  24.556  0.00  0.00    -0.030 A 
ATOM     19  C   UNL     1      -3.494  -0.610  25.674  0.00  0.00    +0.024 A 
ATOM     20  C   UNL     1      -4.293  -1.874  23.790  0.00  0.00    +0.024 A 
ATOM     22  C   UNL     1      -2.677  -1.687  25.980  0.00  0.00    +0.111 A 
ATOM     23  C   UNL     1      -3.440  -2.893  24.180  0.00  0.00    +0.111 A 
ENDBRANCH  15  17
ENDBRANCH   7  15
ENDBRANCH  16  11
TORSDOF 7
ENDMDL
MODEL 2
REMARK VINA RESULT:      -1.4      1.879      3.805
REMARK  Name = 26743734
REMARK  7 active torsions:
REMARK  status: ('A' for Active; 'I' for Inactive)
REMARK    1  A    between atoms: O_4  and  C_13
REMARK    2  A    between atoms: O_6  and  C_28
REMARK    3  A    between atoms: O_6  and  C_29
REMARK    4  A    between atoms: N_7  and  C_15
REMARK    5  A    between atoms: C_11  and  C_16
REMARK    6  A    between atoms: C_15  and  C_17
REMARK    7  A    between atoms: C_18  and  C_21
REMARK                            x       y       z     vdW  Elec       q    Type
REMARK                         _______ _______ _______ _____ _____    ______ ____
ROOT
ATOM      5  O   UNL     1      -3.072  -0.588  24.054  0.00  0.00    -0.336 OA
ATOM      8  N   UNL     1      -1.718   1.119  24.576  0.00  0.00    -0.190 NA
ATOM      9  N   UNL     1      -1.827  -0.890  23.486  0.00  0.00    -0.056 NA
ATOM     16  C   UNL     1      -2.920   0.611  24.676  0.00  0.00    +0.245 A 
ATOM     18  C   UNL     1      -1.083   0.163  23.837  0.00  0.00    +0.202 A 
ENDROOT
BRANCH  18  21
ATOM     21  C   UNL     1       0.296   0.291  23.465  0.00  0.00    +0.023 A 
ATOM     24  C   UNL     1       1.050   1.366  23.938  0.00  0.00    +0.015 A 
ATOM     25  C   UNL     1       0.883  -0.658  22.629  0.00  0.00    +0.015 A 
ATOM     26  C   UNL     1       2.391   1.491  23.575  0.00  0.00    +0.046 A 
ATOM     27  C   UNL     1       2.225  -0.533  22.265  0.00  0.00    +0.046 A 
ATOM     28  C   UNL     1       2.978   0.541  22.738  0.00  0.00    +0.130 A 
BRANCH  28   6
ATOM      6  O   UNL     1       4.287   0.662  22.384  0.00  0.00    -0.406 OA
BRANCH   6  29
ATOM      1  F   UNL     1       4.806  -1.053  23.755  0.00  0.00    -0.133 F 
ATOM      2  F   UNL     1       6.414  -0.157  22.577  0.00  0.00    -0.133 F 
ATOM      3  F   UNL     1       5.532   0.939  24.282  0.00  0.00    -0.133 F 
ATOM     29  C   UNL     1       5.273   0.111  23.249  0.00  0.00    +0.575 C 
ENDBRANCH   6  29
ENDBRANCH  28   6
ENDBRANCH  18  21
BRANCH  16  11
ATOM      7  N   UNL     1      -4.233   2.637  25.285  0.00  0.00    -0.285 NA
ATOM     11  C   UNL     1      -4.142   1.166  25.379  0.00  0.00    +0.149 C 
ATOM     12  C   UNL     1      -5.461   0.649  24.776  0.00  0.00    +0.061 C 
ATOM     13  C   UNL     1      -6.247   1.903  24.414  0.00  0.00    +0.130 C 
ATOM     14  C   UNL     1      -5.656   2.966  25.322  0.00  0.00    +0.116 C 
BRANCH  13   4
ATOM      4  O   UNL     1      -7.628   1.717  24.654  0.00  0.00    -0.390 OA
ATOM     30  H   UNL     1      -7.746   0.812  24.990  0.00  0.00    +0.210 HD
ENDBRANCH  13   4
BRANCH   7  15
ATOM     15  C   UNL     1      -3.483   3.326  26.326  0.00  0.00    +0.120 C 
BRANCH  15  17
ATOM     10  N   UNL     1      -0.066   5.398  24.734  0.00  0.00    -0.263 NA
ATOM     17  C   UNL     1      -2.287   4.051  25.770  0.00  0.00    -0.030 A 
ATOM     19  C   UNL     1      -1.032   3.454  25.801  0.00  0.00    +0.024 A 
ATOM     20  C   UNL     1      -2.433   5.321  25.221  0.00  0.00    +0.024 A 
ATOM     22  C   UNL     1       0.037   4.162  25.275  0.00  0.00    +0.111 A 
ATOM     23  C   UNL     1      -1.302   5.946  24.722  0.00  0.00    +0.111 A 
ENDBRANCH  15  17
ENDBRANCH   7  15
ENDBRANCH  16  11
TORSDOF 7
ENDMDL
