MODEL 1
REMARK VINA RESULT:      -5.1      0.000      0.000
REMARK  Name = 26743860
REMARK  7 active torsions:
REMARK  status: ('A' for Active; 'I' for Inactive)
REMARK    1  A    between atoms: O_1  and  C_9
REMARK    2  A    between atoms: O_3  and  C_14
REMARK    3  A    between atoms: N_4  and  C_11
REMARK    4  A    between atoms: C_7  and  C_12
REMARK    5  A    between atoms: C_11  and  C_13
REMARK    6  A    between atoms: C_16  and  C_17
REMARK    7  A    between atoms: C_23  and  C_26
REMARK                            x       y       z     vdW  Elec       q    Type
REMARK                         _______ _______ _______ _____ _____    ______ ____
ROOT
ATOM      4  N   UNL     1      -4.469   1.473  25.361  0.00  0.00    -0.284 NA
ATOM      7  C   UNL     1      -3.865   2.243  24.255  0.00  0.00    +0.149 C 
ATOM      8  C   UNL     1      -4.263   3.705  24.529  0.00  0.00    +0.061 C 
ATOM      9  C   UNL     1      -5.126   3.651  25.783  0.00  0.00    +0.130 C 
ATOM     10  C   UNL     1      -5.646   2.225  25.795  0.00  0.00    +0.116 C 
ENDROOT
BRANCH   7  12
ATOM      2  O   UNL     1      -1.608   2.776  25.027  0.00  0.00    -0.336 OA
ATOM      5  N   UNL     1      -1.675   1.281  23.360  0.00  0.00    -0.190 NA
ATOM      6  N   UNL     1      -0.277   2.437  24.755  0.00  0.00    -0.056 NA
ATOM     12  C   UNL     1      -2.365   2.051  24.163  0.00  0.00    +0.245 A 
ATOM     16  C   UNL     1      -0.399   1.551  23.762  0.00  0.00    +0.202 A 
BRANCH  16  17
ATOM     17  C   UNL     1       0.733   0.918  23.149  0.00  0.00    +0.023 A 
ATOM     21  C   UNL     1       2.026   1.305  23.503  0.00  0.00    +0.015 A 
ATOM     22  C   UNL     1       0.541  -0.087  22.201  0.00  0.00    +0.012 A 
ATOM     23  C   UNL     1       3.127   0.689  22.908  0.00  0.00    -0.050 A 
ATOM     24  C   UNL     1       1.642  -0.704  21.606  0.00  0.00    +0.001 A 
ATOM     25  C   UNL     1       2.935  -0.317  21.960  0.00  0.00    +0.003 A 
ATOM     26  C   UNL     1       4.508   1.102  23.286  0.00  0.00    +0.044 C 
ENDBRANCH  16  17
ENDBRANCH   7  12
BRANCH   9   1
ATOM      1  O   UNL     1      -6.179   4.593  25.709  0.00  0.00    -0.390 OA
ATOM     27  H   UNL     1      -6.639   4.585  26.565  0.00  0.00    +0.210 HD
ENDBRANCH   9   1
BRANCH   4  11
ATOM     11  C   UNL     1      -4.800   0.103  24.995  0.00  0.00    +0.124 C 
BRANCH  11  13
ATOM     13  C   UNL     1      -3.592  -0.796  25.036  0.00  0.00    +0.008 A 
ATOM     14  C   UNL     1      -3.526  -1.939  24.240  0.00  0.00    +0.121 A 
ATOM     15  C   UNL     1      -2.533  -0.476  25.886  0.00  0.00    +0.008 A 
ATOM     18  C   UNL     1      -2.402  -2.763  24.292  0.00  0.00    +0.046 A 
ATOM     19  C   UNL     1      -1.407  -1.299  25.938  0.00  0.00    +0.001 A 
ATOM     20  C   UNL     1      -1.342  -2.442  25.142  0.00  0.00    +0.004 A 
BRANCH  14   3
ATOM      3  O   UNL     1      -4.553  -2.268  23.407  0.00  0.00    -0.506 OA
ATOM     28  H   UNL     1      -5.223  -2.763  23.908  0.00  0.00    +0.292 HD
ENDBRANCH  14   3
ENDBRANCH  11  13
ENDBRANCH   4  11
TORSDOF 6
ENDMDL
MODEL 2
REMARK VINA RESULT:      -4.0      2.169      6.219
REMARK  Name = 26743860
REMARK  7 active torsions:
REMARK  status: ('A' for Active; 'I' for Inactive)
REMARK    1  A    between atoms: O_1  and  C_9
REMARK    2  A    between atoms: O_3  and  C_14
REMARK    3  A    between atoms: N_4  and  C_11
REMARK    4  A    between atoms: C_7  and  C_12
REMARK    5  A    between atoms: C_11  and  C_13
REMARK    6  A    between atoms: C_16  and  C_17
REMARK    7  A    between atoms: C_23  and  C_26
REMARK                            x       y       z     vdW  Elec       q    Type
REMARK                         _______ _______ _______ _____ _____    ______ ____
ROOT
ATOM      4  N   UNL     1       0.590  -0.507  23.597  0.00  0.00    -0.284 NA
ATOM      7  C   UNL     1       1.130   0.741  24.171  0.00  0.00    +0.149 C 
ATOM      8  C   UNL     1       2.031   1.325  23.067  0.00  0.00    +0.061 C 
ATOM      9  C   UNL     1       1.968   0.313  21.930  0.00  0.00    +0.130 C 
ATOM     10  C   UNL     1       1.576  -0.977  22.626  0.00  0.00    +0.116 C 
ENDROOT
BRANCH   7  12
ATOM      2  O   UNL     1       0.454   2.882  25.140  0.00  0.00    -0.336 OA
ATOM      5  N   UNL     1      -1.258   1.562  24.553  0.00  0.00    -0.190 NA
ATOM      6  N   UNL     1      -0.710   3.588  25.464  0.00  0.00    -0.056 NA
ATOM     12  C   UNL     1       0.043   1.701  24.608  0.00  0.00    +0.245 A 
ATOM     16  C   UNL     1      -1.677   2.745  25.088  0.00  0.00    +0.202 A 
BRANCH  16  17
ATOM     17  C   UNL     1      -3.070   3.055  25.234  0.00  0.00    +0.023 A 
ATOM     21  C   UNL     1      -4.034   2.093  24.930  0.00  0.00    +0.015 A 
ATOM     22  C   UNL     1      -3.460   4.317  25.681  0.00  0.00    +0.012 A 
ATOM     23  C   UNL     1      -5.388   2.394  25.073  0.00  0.00    -0.050 A 
ATOM     24  C   UNL     1      -4.814   4.618  25.824  0.00  0.00    +0.001 A 
ATOM     25  C   UNL     1      -5.779   3.656  25.520  0.00  0.00    +0.003 A 
ATOM     26  C   UNL     1      -6.419   1.366  24.749  0.00  0.00    +0.044 C 
ENDBRANCH  16  17
ENDBRANCH   7  12
BRANCH   9   1
ATOM      1  O   UNL     1       3.224   0.202  21.287  0.00  0.00    -0.390 OA
ATOM     27  H   UNL     1       3.734   0.999  21.506  0.00  0.00    +0.210 HD
ENDBRANCH   9   1
BRANCH   4  11
ATOM     11  C   UNL     1       0.286  -1.517  24.602  0.00  0.00    +0.124 C 
BRANCH  11  13
ATOM     13  C   UNL     1      -1.197  -1.659  24.824  0.00  0.00    +0.008 A 
ATOM     14  C   UNL     1      -1.810  -1.074  25.932  0.00  0.00    +0.121 A 
ATOM     15  C   UNL     1      -1.958  -2.386  23.910  0.00  0.00    +0.008 A 
ATOM     18  C   UNL     1      -3.184  -1.216  26.126  0.00  0.00    +0.046 A 
ATOM     19  C   UNL     1      -3.332  -2.528  24.103  0.00  0.00    +0.001 A 
ATOM     20  C   UNL     1      -3.945  -1.943  25.211  0.00  0.00    +0.004 A 
BRANCH  14   3
ATOM      3  O   UNL     1      -1.081  -0.362  26.837  0.00  0.00    -0.506 OA
ATOM     28  H   UNL     1      -0.707   0.421  26.398  0.00  0.00    +0.292 HD
ENDBRANCH  14   3
ENDBRANCH  11  13
ENDBRANCH   4  11
TORSDOF 6
ENDMDL
MODEL 3
REMARK VINA RESULT:      -3.5      3.159      4.185
REMARK  Name = 26743860
REMARK  7 active torsions:
REMARK  status: ('A' for Active; 'I' for Inactive)
REMARK    1  A    between atoms: O_1  and  C_9
REMARK    2  A    between atoms: O_3  and  C_14
REMARK    3  A    between atoms: N_4  and  C_11
REMARK    4  A    between atoms: C_7  and  C_12
REMARK    5  A    between atoms: C_11  and  C_13
REMARK    6  A    between atoms: C_16  and  C_17
REMARK    7  A    between atoms: C_23  and  C_26
REMARK                            x       y       z     vdW  Elec       q    Type
REMARK                         _______ _______ _______ _____ _____    ______ ____
ROOT
ATOM      4  N   UNL     1      -3.811   1.761  24.698  0.00  0.00    -0.284 NA
ATOM      7  C   UNL     1      -3.050   3.027  24.689  0.00  0.00    +0.149 C 
ATOM      8  C   UNL     1      -3.939   4.025  25.454  0.00  0.00    +0.061 C 
ATOM      9  C   UNL     1      -5.195   3.241  25.813  0.00  0.00    +0.130 C 
ATOM     10  C   UNL     1      -5.224   2.126  24.784  0.00  0.00    +0.116 C 
ENDROOT
BRANCH   7  12
ATOM      2  O   UNL     1      -0.647   2.659  24.437  0.00  0.00    -0.336 OA
ATOM      5  N   UNL     1      -1.311   2.942  26.557  0.00  0.00    -0.190 NA
ATOM      6  N   UNL     1       0.508   2.562  25.222  0.00  0.00    -0.056 NA
ATOM     12  C   UNL     1      -1.672   2.883  25.300  0.00  0.00    +0.245 A 
ATOM     16  C   UNL     1       0.035   2.740  26.459  0.00  0.00    +0.202 A 
BRANCH  16  17
ATOM     17  C   UNL     1       0.880   2.722  27.618  0.00  0.00    +0.023 A 
ATOM     21  C   UNL     1       0.327   2.512  28.882  0.00  0.00    +0.015 A 
ATOM     22  C   UNL     1       2.256   2.912  27.481  0.00  0.00    +0.012 A 
ATOM     23  C   UNL     1       1.150   2.493  30.008  0.00  0.00    -0.050 A 
ATOM     24  C   UNL     1       3.077   2.893  28.607  0.00  0.00    +0.001 A 
ATOM     25  C   UNL     1       2.525   2.683  29.872  0.00  0.00    +0.003 A 
ATOM     26  C   UNL     1       0.560   2.268  31.359  0.00  0.00    +0.044 C 
ENDBRANCH  16  17
ENDBRANCH   7  12
BRANCH   9   1
ATOM      1  O   UNL     1      -6.343   4.065  25.726  0.00  0.00    -0.390 OA
ATOM     27  H   UNL     1      -6.615   4.281  26.634  0.00  0.00    +0.210 HD
ENDBRANCH   9   1
BRANCH   4  11
ATOM     11  C   UNL     1      -3.533   0.915  23.545  0.00  0.00    +0.124 C 
BRANCH  11  13
ATOM     13  C   UNL     1      -3.264  -0.511  23.947  0.00  0.00    +0.008 A 
ATOM     14  C   UNL     1      -1.989  -0.909  24.351  0.00  0.00    +0.121 A 
ATOM     15  C   UNL     1      -4.305  -1.439  23.910  0.00  0.00    +0.008 A 
ATOM     18  C   UNL     1      -1.755  -2.234  24.717  0.00  0.00    +0.046 A 
ATOM     19  C   UNL     1      -4.071  -2.764  24.277  0.00  0.00    +0.001 A 
ATOM     20  C   UNL     1      -2.797  -3.162  24.681  0.00  0.00    +0.004 A 
BRANCH  14   3
ATOM      3  O   UNL     1      -0.960  -0.017  24.390  0.00  0.00    -0.506 OA
ATOM     28  H   UNL     1      -0.527  -0.070  25.259  0.00  0.00    +0.292 HD
ENDBRANCH  14   3
ENDBRANCH  11  13
ENDBRANCH   4  11
TORSDOF 6
ENDMDL
MODEL 4
REMARK VINA RESULT:      -2.6      1.769      2.652
REMARK  Name = 26743860
REMARK  7 active torsions:
REMARK  status: ('A' for Active; 'I' for Inactive)
REMARK    1  A    between atoms: O_1  and  C_9
REMARK    2  A    between atoms: O_3  and  C_14
REMARK    3  A    between atoms: N_4  and  C_11
REMARK    4  A    between atoms: C_7  and  C_12
REMARK    5  A    between atoms: C_11  and  C_13
REMARK    6  A    between atoms: C_16  and  C_17
REMARK    7  A    between atoms: C_23  and  C_26
REMARK                            x       y       z     vdW  Elec       q    Type
REMARK                         _______ _______ _______ _____ _____    ______ ____
ROOT
ATOM      4  N   UNL     1      -2.929   1.844  24.856  0.00  0.00    -0.284 NA
ATOM      7  C   UNL     1      -1.959   2.499  23.955  0.00  0.00    +0.149 C 
ATOM      8  C   UNL     1      -1.543   3.786  24.692  0.00  0.00    +0.061 C 
ATOM      9  C   UNL     1      -2.364   3.789  25.975  0.00  0.00    +0.130 C 
ATOM     10  C   UNL     1      -3.554   2.911  25.637  0.00  0.00    +0.116 C 
ENDROOT
BRANCH   7  12
ATOM      2  O   UNL     1      -1.072   0.391  23.092  0.00  0.00    -0.336 OA
ATOM      5  N   UNL     1       0.500   1.838  23.765  0.00  0.00    -0.190 NA
ATOM      6  N   UNL     1       0.158  -0.240  22.870  0.00  0.00    -0.056 NA
ATOM     12  C   UNL     1      -0.781   1.609  23.619  0.00  0.00    +0.245 A 
ATOM     16  C   UNL     1       1.036   0.675  23.291  0.00  0.00    +0.202 A 
BRANCH  16  17
ATOM     17  C   UNL     1       2.453   0.460  23.252  0.00  0.00    +0.023 A 
ATOM     21  C   UNL     1       2.981  -0.780  23.613  0.00  0.00    +0.015 A 
ATOM     22  C   UNL     1       3.304   1.490  22.849  0.00  0.00    +0.012 A 
ATOM     23  C   UNL     1       4.360  -0.989  23.574  0.00  0.00    -0.050 A 
ATOM     24  C   UNL     1       4.682   1.281  22.810  0.00  0.00    +0.001 A 
ATOM     25  C   UNL     1       5.211   0.041  23.172  0.00  0.00    +0.003 A 
ATOM     26  C   UNL     1       4.925  -2.314  23.960  0.00  0.00    +0.044 C 
ENDBRANCH  16  17
ENDBRANCH   7  12
BRANCH   9   1
ATOM      1  O   UNL     1      -2.760   5.104  26.314  0.00  0.00    -0.390 OA
ATOM     27  H   UNL     1      -3.722   5.159  26.187  0.00  0.00    +0.210 HD
ENDBRANCH   9   1
BRANCH   4  11
ATOM     11  C   UNL     1      -3.912   1.033  24.152  0.00  0.00    +0.124 C 
BRANCH  11  13
ATOM     13  C   UNL     1      -3.701  -0.439  24.393  0.00  0.00    +0.008 A 
ATOM     14  C   UNL     1      -2.767  -0.881  25.329  0.00  0.00    +0.121 A 
ATOM     15  C   UNL     1      -4.450  -1.363  23.665  0.00  0.00    +0.008 A 
ATOM     18  C   UNL     1      -2.581  -2.247  25.539  0.00  0.00    +0.046 A 
ATOM     19  C   UNL     1      -4.266  -2.730  23.875  0.00  0.00    +0.001 A 
ATOM     20  C   UNL     1      -3.331  -3.172  24.812  0.00  0.00    +0.004 A 
BRANCH  14   3
ATOM      3  O   UNL     1      -2.025   0.009  26.047  0.00  0.00    -0.506 OA
ATOM     28  H   UNL     1      -1.251  -0.449  26.417  0.00  0.00    +0.292 HD
ENDBRANCH  14   3
ENDBRANCH  11  13
ENDBRANCH   4  11
TORSDOF 6
ENDMDL
MODEL 5
REMARK VINA RESULT:      -2.0     14.318     16.995
REMARK  Name = 26743860
REMARK  7 active torsions:
REMARK  status: ('A' for Active; 'I' for Inactive)
REMARK    1  A    between atoms: O_1  and  C_9
REMARK    2  A    between atoms: O_3  and  C_14
REMARK    3  A    between atoms: N_4  and  C_11
REMARK    4  A    between atoms: C_7  and  C_12
REMARK    5  A    between atoms: C_11  and  C_13
REMARK    6  A    between atoms: C_16  and  C_17
REMARK    7  A    between atoms: C_23  and  C_26
REMARK                            x       y       z     vdW  Elec       q    Type
REMARK                         _______ _______ _______ _____ _____    ______ ____
ROOT
ATOM      4  N   UNL     1      -3.620 -10.109  14.607  0.00  0.00    -0.284 NA
ATOM      7  C   UNL     1      -4.850 -10.766  14.120  0.00  0.00    +0.149 C 
ATOM      8  C   UNL     1      -5.911 -10.458  15.192  0.00  0.00    +0.061 C 
ATOM      9  C   UNL     1      -5.173  -9.662  16.261  0.00  0.00    +0.130 C 
ATOM     10  C   UNL     1      -3.723 -10.063  16.064  0.00  0.00    +0.116 C 
ENDROOT
BRANCH   7  12
ATOM      2  O   UNL     1      -4.467 -10.688  11.707  0.00  0.00    -0.336 OA
ATOM      5  N   UNL     1      -6.273  -9.549  12.385  0.00  0.00    -0.190 NA
ATOM      6  N   UNL     1      -5.034 -10.136  10.552  0.00  0.00    -0.056 NA
ATOM     12  C   UNL     1      -5.257 -10.294  12.740  0.00  0.00    +0.245 A 
ATOM     16  C   UNL     1      -6.095  -9.480  11.033  0.00  0.00    +0.202 A 
BRANCH  16  17
ATOM     17  C   UNL     1      -6.995  -8.747  10.191  0.00  0.00    +0.023 A 
ATOM     21  C   UNL     1      -8.372  -8.936  10.310  0.00  0.00    +0.015 A 
ATOM     22  C   UNL     1      -6.493  -7.843   9.254  0.00  0.00    +0.012 A 
ATOM     23  C   UNL     1      -9.248  -8.221   9.492  0.00  0.00    -0.050 A 
ATOM     24  C   UNL     1      -7.368  -7.129   8.436  0.00  0.00    +0.001 A 
ATOM     25  C   UNL     1      -8.746  -7.317   8.555  0.00  0.00    +0.003 A 
ATOM     26  C   UNL     1     -10.720  -8.422   9.619  0.00  0.00    +0.044 C 
ENDBRANCH  16  17
ENDBRANCH   7  12
BRANCH   9   1
ATOM      1  O   UNL     1      -5.641 -10.002  17.553  0.00  0.00    -0.390 OA
ATOM     27  H   UNL     1      -5.474 -10.950  17.683  0.00  0.00    +0.210 HD
ENDBRANCH   9   1
BRANCH   4  11
ATOM     11  C   UNL     1      -2.401 -10.773  14.165  0.00  0.00    +0.124 C 
BRANCH  11  13
ATOM     13  C   UNL     1      -1.579  -9.892  13.261  0.00  0.00    +0.008 A 
ATOM     14  C   UNL     1      -0.774  -8.882  13.789  0.00  0.00    +0.121 A 
ATOM     15  C   UNL     1      -1.631 -10.092  11.881  0.00  0.00    +0.008 A 
ATOM     18  C   UNL     1      -0.021  -8.073  12.939  0.00  0.00    +0.046 A 
ATOM     19  C   UNL     1      -0.877  -9.283  11.030  0.00  0.00    +0.001 A 
ATOM     20  C   UNL     1      -0.073  -8.274  11.559  0.00  0.00    +0.004 A 
BRANCH  14   3
ATOM      3  O   UNL     1      -0.713  -8.671  15.134  0.00  0.00    -0.506 OA
ATOM     28  H   UNL     1      -1.612  -8.518  15.472  0.00  0.00    +0.292 HD
ENDBRANCH  14   3
ENDBRANCH  11  13
ENDBRANCH   4  11
TORSDOF 6
ENDMDL
MODEL 6
REMARK VINA RESULT:      -1.9      1.855      4.274
REMARK  Name = 26743860
REMARK  7 active torsions:
REMARK  status: ('A' for Active; 'I' for Inactive)
REMARK    1  A    between atoms: O_1  and  C_9
REMARK    2  A    between atoms: O_3  and  C_14
REMARK    3  A    between atoms: N_4  and  C_11
REMARK    4  A    between atoms: C_7  and  C_12
REMARK    5  A    between atoms: C_11  and  C_13
REMARK    6  A    between atoms: C_16  and  C_17
REMARK    7  A    between atoms: C_23  and  C_26
REMARK                            x       y       z     vdW  Elec       q    Type
REMARK                         _______ _______ _______ _____ _____    ______ ____
ROOT
ATOM      4  N   UNL     1      -3.210  -0.192  24.694  0.00  0.00    -0.284 NA
ATOM      7  C   UNL     1      -2.051  -1.106  24.735  0.00  0.00    +0.149 C 
ATOM      8  C   UNL     1      -2.531  -2.382  24.017  0.00  0.00    +0.061 C 
ATOM      9  C   UNL     1      -3.984  -2.106  23.650  0.00  0.00    +0.130 C 
ATOM     10  C   UNL     1      -4.402  -1.036  24.641  0.00  0.00    +0.116 C 
ENDROOT
BRANCH   7  12
ATOM      2  O   UNL     1      -1.015   0.489  23.200  0.00  0.00    -0.336 OA
ATOM      5  N   UNL     1       0.446  -0.813  24.290  0.00  0.00    -0.190 NA
ATOM      6  N   UNL     1       0.256   0.875  22.756  0.00  0.00    -0.056 NA
ATOM     12  C   UNL     1      -0.813  -0.508  24.100  0.00  0.00    +0.245 A 
ATOM     16  C   UNL     1       1.064   0.062  23.444  0.00  0.00    +0.202 A 
BRANCH  16  17
ATOM     17  C   UNL     1       2.491   0.100  23.310  0.00  0.00    +0.023 A 
ATOM     21  C   UNL     1       3.261  -0.982  23.738  0.00  0.00    +0.015 A 
ATOM     22  C   UNL     1       3.110   1.217  22.749  0.00  0.00    +0.012 A 
ATOM     23  C   UNL     1       4.649  -0.946  23.606  0.00  0.00    -0.050 A 
ATOM     24  C   UNL     1       4.498   1.253  22.617  0.00  0.00    +0.001 A 
ATOM     25  C   UNL     1       5.268   0.171  23.045  0.00  0.00    +0.003 A 
ATOM     26  C   UNL     1       5.473  -2.102  24.063  0.00  0.00    +0.044 C 
ENDBRANCH  16  17
ENDBRANCH   7  12
BRANCH   9   1
ATOM      1  O   UNL     1      -4.766  -3.277  23.781  0.00  0.00    -0.390 OA
ATOM     27  H   UNL     1      -5.148  -3.275  24.674  0.00  0.00    +0.210 HD
ENDBRANCH   9   1
BRANCH   4  11
ATOM     11  C   UNL     1      -3.247   0.739  25.814  0.00  0.00    +0.124 C 
BRANCH  11  13
ATOM     13  C   UNL     1      -2.853   2.132  25.399  0.00  0.00    +0.008 A 
ATOM     14  C   UNL     1      -3.733   2.934  24.672  0.00  0.00    +0.121 A 
ATOM     15  C   UNL     1      -1.592   2.617  25.746  0.00  0.00    +0.008 A 
ATOM     18  C   UNL     1      -3.352   4.221  24.293  0.00  0.00    +0.046 A 
ATOM     19  C   UNL     1      -1.212   3.905  25.367  0.00  0.00    +0.001 A 
ATOM     20  C   UNL     1      -2.091   4.707  24.641  0.00  0.00    +0.004 A 
BRANCH  14   3
ATOM      3  O   UNL     1      -4.967   2.476  24.322  0.00  0.00    -0.506 OA
ATOM     28  H   UNL     1      -5.177   1.690  24.855  0.00  0.00    +0.292 HD
ENDBRANCH  14   3
ENDBRANCH  11  13
ENDBRANCH   4  11
TORSDOF 6
ENDMDL
MODEL 7
REMARK VINA RESULT:      -1.2      2.075      2.976
REMARK  Name = 26743860
REMARK  7 active torsions:
REMARK  status: ('A' for Active; 'I' for Inactive)
REMARK    1  A    between atoms: O_1  and  C_9
REMARK    2  A    between atoms: O_3  and  C_14
REMARK    3  A    between atoms: N_4  and  C_11
REMARK    4  A    between atoms: C_7  and  C_12
REMARK    5  A    between atoms: C_11  and  C_13
REMARK    6  A    between atoms: C_16  and  C_17
REMARK    7  A    between atoms: C_23  and  C_26
REMARK                            x       y       z     vdW  Elec       q    Type
REMARK                         _______ _______ _______ _____ _____    ______ ____
ROOT
ATOM      4  N   UNL     1      -1.987   2.310  25.088  0.00  0.00    -0.284 NA
ATOM      7  C   UNL     1      -1.347   2.559  23.780  0.00  0.00    +0.149 C 
ATOM      8  C   UNL     1      -0.815   4.001  23.871  0.00  0.00    +0.061 C 
ATOM      9  C   UNL     1      -1.242   4.494  25.248  0.00  0.00    +0.130 C 
ATOM     10  C   UNL     1      -2.428   3.610  25.589  0.00  0.00    +0.116 C 
ENDROOT
BRANCH   7  12
ATOM      2  O   UNL     1      -0.587   0.567  22.584  0.00  0.00    -0.336 OA
ATOM      5  N   UNL     1       0.967   1.487  23.910  0.00  0.00    -0.190 NA
ATOM      6  N   UNL     1       0.557  -0.227  22.450  0.00  0.00    -0.056 NA
ATOM     12  C   UNL     1      -0.261   1.553  23.460  0.00  0.00    +0.245 A 
ATOM     16  C   UNL     1       1.430   0.379  23.261  0.00  0.00    +0.202 A 
BRANCH  16  17
ATOM     17  C   UNL     1       2.770  -0.097  23.445  0.00  0.00    +0.023 A 
ATOM     21  C   UNL     1       3.832   0.807  23.480  0.00  0.00    +0.015 A 
ATOM     22  C   UNL     1       3.012  -1.463  23.592  0.00  0.00    +0.012 A 
ATOM     23  C   UNL     1       5.136   0.345  23.661  0.00  0.00    -0.050 A 
ATOM     24  C   UNL     1       4.315  -1.925  23.772  0.00  0.00    +0.001 A 
ATOM     25  C   UNL     1       5.378  -1.022  23.807  0.00  0.00    +0.003 A 
ATOM     26  C   UNL     1       6.272   1.310  23.699  0.00  0.00    +0.044 C 
ENDBRANCH  16  17
ENDBRANCH   7  12
BRANCH   9   1
ATOM      1  O   UNL     1      -1.603   5.861  25.202  0.00  0.00    -0.390 OA
ATOM     27  H   UNL     1      -0.817   6.360  24.922  0.00  0.00    +0.210 HD
ENDBRANCH   9   1
BRANCH   4  11
ATOM     11  C   UNL     1      -3.080   1.350  25.019  0.00  0.00    +0.124 C 
BRANCH  11  13
ATOM     13  C   UNL     1      -2.578  -0.070  24.979  0.00  0.00    +0.008 A 
ATOM     14  C   UNL     1      -1.411  -0.433  25.650  0.00  0.00    +0.121 A 
ATOM     15  C   UNL     1      -3.293  -1.026  24.257  0.00  0.00    +0.008 A 
ATOM     18  C   UNL     1      -0.958  -1.751  25.601  0.00  0.00    +0.046 A 
ATOM     19  C   UNL     1      -2.841  -2.345  24.208  0.00  0.00    +0.001 A 
ATOM     20  C   UNL     1      -1.673  -2.707  24.879  0.00  0.00    +0.004 A 
BRANCH  14   3
ATOM      3  O   UNL     1      -0.699   0.489  26.358  0.00  0.00    -0.506 OA
ATOM     28  H   UNL     1      -1.108   0.603  27.232  0.00  0.00    +0.292 HD
ENDBRANCH  14   3
ENDBRANCH  11  13
ENDBRANCH   4  11
TORSDOF 6
ENDMDL
MODEL 8
REMARK VINA RESULT:      -1.1     14.989     17.759
REMARK  Name = 26743860
REMARK  7 active torsions:
REMARK  status: ('A' for Active; 'I' for Inactive)
REMARK    1  A    between atoms: O_1  and  C_9
REMARK    2  A    between atoms: O_3  and  C_14
REMARK    3  A    between atoms: N_4  and  C_11
REMARK    4  A    between atoms: C_7  and  C_12
REMARK    5  A    between atoms: C_11  and  C_13
REMARK    6  A    between atoms: C_16  and  C_17
REMARK    7  A    between atoms: C_23  and  C_26
REMARK                            x       y       z     vdW  Elec       q    Type
REMARK                         _______ _______ _______ _____ _____    ______ ____
ROOT
ATOM      4  N   UNL     1      -2.056  -9.566  12.419  0.00  0.00    -0.284 NA
ATOM      7  C   UNL     1      -3.151 -10.476  12.028  0.00  0.00    +0.149 C 
ATOM      8  C   UNL     1      -3.897 -10.781  13.340  0.00  0.00    +0.061 C 
ATOM      9  C   UNL     1      -3.121 -10.034  14.418  0.00  0.00    +0.130 C 
ATOM     10  C   UNL     1      -1.740  -9.873  13.813  0.00  0.00    +0.116 C 
ENDROOT
BRANCH   7  12
ATOM      2  O   UNL     1      -3.438  -9.328   9.889  0.00  0.00    -0.336 OA
ATOM      5  N   UNL     1      -5.360  -9.817  10.929  0.00  0.00    -0.190 NA
ATOM      6  N   UNL     1      -4.460  -8.852   9.059  0.00  0.00    -0.056 NA
ATOM     12  C   UNL     1      -4.053  -9.882  10.966  0.00  0.00    +0.245 A 
ATOM     16  C   UNL     1      -5.563  -9.178   9.740  0.00  0.00    +0.202 A 
BRANCH  16  17
ATOM     17  C   UNL     1      -6.881  -8.880   9.261  0.00  0.00    +0.023 A 
ATOM     21  C   UNL     1      -7.249  -7.558   9.006  0.00  0.00    +0.015 A 
ATOM     22  C   UNL     1      -7.796  -9.912   9.047  0.00  0.00    +0.012 A 
ATOM     23  C   UNL     1      -8.531  -7.268   8.539  0.00  0.00    -0.050 A 
ATOM     24  C   UNL     1      -9.077  -9.622   8.580  0.00  0.00    +0.001 A 
ATOM     25  C   UNL     1      -9.446  -8.300   8.326  0.00  0.00    +0.003 A 
ATOM     26  C   UNL     1      -8.925  -5.856   8.267  0.00  0.00    +0.044 C 
ENDBRANCH  16  17
ENDBRANCH   7  12
BRANCH   9   1
ATOM      1  O   UNL     1      -3.085 -10.781  15.619  0.00  0.00    -0.390 OA
ATOM     27  H   UNL     1      -3.748 -10.402  16.218  0.00  0.00    +0.210 HD
ENDBRANCH   9   1
BRANCH   4  11
ATOM     11  C   UNL     1      -0.887  -9.670  11.556  0.00  0.00    +0.124 C 
BRANCH  11  13
ATOM     13  C   UNL     1       0.076  -8.533  11.777  0.00  0.00    +0.008 A 
ATOM     14  C   UNL     1       1.318  -8.518  11.143  0.00  0.00    +0.121 A 
ATOM     15  C   UNL     1      -0.285  -7.489  12.629  0.00  0.00    +0.008 A 
ATOM     18  C   UNL     1       2.200  -7.459  11.360  0.00  0.00    +0.046 A 
ATOM     19  C   UNL     1       0.597  -6.429  12.846  0.00  0.00    +0.001 A 
ATOM     20  C   UNL     1       1.839  -6.414  12.212  0.00  0.00    +0.004 A 
BRANCH  14   3
ATOM      3  O   UNL     1       1.688  -9.531  10.310  0.00  0.00    -0.506 OA
ATOM     28  H   UNL     1       0.950  -9.734   9.711  0.00  0.00    +0.292 HD
ENDBRANCH  14   3
ENDBRANCH  11  13
ENDBRANCH   4  11
TORSDOF 6
ENDMDL
