MODEL 1
REMARK VINA RESULT:       2.8      0.000      0.000
REMARK  Name = 7673731
REMARK  7 active torsions:
REMARK  status: ('A' for Active; 'I' for Inactive)
REMARK    1  A    between atoms: N_8  and  C_19
REMARK    2  A    between atoms: C_11  and  C_14
REMARK    3  A    between atoms: C_14  and  C_19
REMARK    4  A    between atoms: C_18  and  C_27
REMARK    5  A    between atoms: C_19  and  C_30
REMARK    6  A    between atoms: C_20  and  C_23
REMARK    7  A    between atoms: C_31  and  C_32
REMARK                            x       y       z     vdW  Elec       q    Type
REMARK                         _______ _______ _______ _____ _____    ______ ____
ROOT
ATOM      2  O   UNL     1      -2.442   4.213  25.309  0.00  0.00    -0.275 OA
ATOM      5  O   UNL     1       0.947  -0.841  21.507  0.00  0.00    -0.270 OA
ATOM      6  N   UNL     1      -1.713   2.440  23.988  0.00  0.00    -0.287 N 
ATOM      7  N   UNL     1       0.382   1.187  22.524  0.00  0.00    -0.294 N 
ATOM     18  C   UNL     1      -0.330   2.544  24.474  0.00  0.00    +0.179 C 
ATOM     21  C   UNL     1       0.716   2.333  23.379  0.00  0.00    +0.140 C 
ATOM     22  C   UNL     1      -2.004   1.327  23.070  0.00  0.00    +0.127 C 
ATOM     23  C   UNL     1      -2.688   3.280  24.538  0.00  0.00    +0.219 C 
ATOM     26  C   UNL     1      -0.964   1.227  21.961  0.00  0.00    +0.127 C 
ATOM     31  C   UNL     1       1.227   0.117  22.226  0.00  0.00    +0.247 C 
ENDROOT
BRANCH  31  32
ATOM      1  F   UNL     1       4.912  -2.196  24.363  0.00  0.00    -0.205 F 
ATOM     32  C   UNL     1       2.574   0.117  22.809  0.00  0.00    +0.040 A 
ATOM     33  C   UNL     1       3.114  -1.063  23.319  0.00  0.00    +0.051 A 
ATOM     34  C   UNL     1       3.315   1.299  22.854  0.00  0.00    +0.013 A 
ATOM     35  C   UNL     1       4.394  -1.063  23.873  0.00  0.00    +0.124 A 
ATOM     36  C   UNL     1       4.595   1.300  23.408  0.00  0.00    +0.004 A 
ATOM     37  C   UNL     1       5.135   0.119  23.918  0.00  0.00    +0.038 A 
ENDBRANCH  31  32
BRANCH  23  20
ATOM      9  N   UNL     1      -5.956   4.191  26.098  0.00  0.00    -0.316 NA
ATOM     20  C   UNL     1      -4.113   3.007  24.147  0.00  0.00    +0.078 C 
ATOM     24  C   UNL     1      -4.864   4.313  23.881  0.00  0.00    +0.028 C 
ATOM     25  C   UNL     1      -4.823   2.176  25.217  0.00  0.00    +0.028 C 
ATOM     28  C   UNL     1      -5.219   5.051  25.173  0.00  0.00    +0.081 C 
ATOM     29  C   UNL     1      -5.179   3.004  26.453  0.00  0.00    +0.081 C 
ATOM     39  H   UNL     1      -6.177   4.715  26.944  0.00  0.00    +0.122 HD
ENDBRANCH  23  20
BRANCH  18  27
ATOM      3  O   UNL     1       0.335   1.813  26.649  0.00  0.00    -0.274 OA
ATOM      8  N   UNL     1      -0.691   0.293  25.216  0.00  0.00    -0.302 N 
ATOM     27  C   UNL     1      -0.190   1.533  25.575  0.00  0.00    +0.236 C 
ATOM     38  H   UNL     1      -1.034   0.148  24.270  0.00  0.00    +0.150 HD
BRANCH   8  19
ATOM     19  C   UNL     1      -0.656  -0.857  26.089  0.00  0.00    +0.159 C 
BRANCH  19  30
ATOM      4  O   UNL     1       0.272  -3.074  25.733  0.00  0.00    -0.274 OA
ATOM     10  N   UNL     1      -0.611  -1.955  23.933  0.00  0.00    -0.328 N 
ATOM     30  C   UNL     1      -0.285  -2.083  25.267  0.00  0.00    +0.231 C 
ATOM     40  H   UNL     1      -0.409  -2.699  23.274  0.00  0.00    +0.145 HD
ATOM     41  H   UNL     1      -1.055  -1.123  23.557  0.00  0.00    +0.145 HD
ENDBRANCH  19  30
BRANCH  19  14
ATOM     14  C   UNL     1      -1.966  -1.036  26.864  0.00  0.00    +0.035 C 
BRANCH  14  11
ATOM     11  C   UNL     1      -3.140  -1.507  26.009  0.00  0.00    -0.009 C 
ATOM     12  C   UNL     1      -2.819  -2.852  25.343  0.00  0.00    +0.003 C 
ATOM     13  C   UNL     1      -3.506  -0.451  24.959  0.00  0.00    +0.003 C 
ATOM     15  C   UNL     1      -3.958  -3.320  24.439  0.00  0.00    +0.000 C 
ATOM     16  C   UNL     1      -4.644  -0.922  24.056  0.00  0.00    +0.000 C 
ATOM     17  C   UNL     1      -4.325  -2.263  23.402  0.00  0.00    +0.000 C 
ENDBRANCH  14  11
ENDBRANCH  19  14
ENDBRANCH   8  19
ENDBRANCH  18  27
TORSDOF 7
ENDMDL
MODEL 2
REMARK VINA RESULT:       6.6      2.357      4.697
REMARK  Name = 7673731
REMARK  7 active torsions:
REMARK  status: ('A' for Active; 'I' for Inactive)
REMARK    1  A    between atoms: N_8  and  C_19
REMARK    2  A    between atoms: C_11  and  C_14
REMARK    3  A    between atoms: C_14  and  C_19
REMARK    4  A    between atoms: C_18  and  C_27
REMARK    5  A    between atoms: C_19  and  C_30
REMARK    6  A    between atoms: C_20  and  C_23
REMARK    7  A    between atoms: C_31  and  C_32
REMARK                            x       y       z     vdW  Elec       q    Type
REMARK                         _______ _______ _______ _____ _____    ______ ____
ROOT
ATOM      2  O   UNL     1      -3.942   1.533  22.975  0.00  0.00    -0.275 OA
ATOM      5  O   UNL     1       1.709  -2.344  25.099  0.00  0.00    -0.270 OA
ATOM      6  N   UNL     1      -2.351   0.149  23.961  0.00  0.00    -0.287 N 
ATOM      7  N   UNL     1       0.132  -1.232  23.780  0.00  0.00    -0.294 N 
ATOM     18  C   UNL     1      -1.244   0.749  23.202  0.00  0.00    +0.179 C 
ATOM     21  C   UNL     1      -0.213  -0.273  22.722  0.00  0.00    +0.140 C 
ATOM     22  C   UNL     1      -1.985  -0.867  24.961  0.00  0.00    +0.127 C 
ATOM     23  C   UNL     1      -3.637   0.681  23.814  0.00  0.00    +0.219 C 
ATOM     26  C   UNL     1      -1.017  -1.894  24.390  0.00  0.00    +0.127 C 
ATOM     31  C   UNL     1       1.422  -1.539  24.215  0.00  0.00    +0.247 C 
ENDROOT
BRANCH  31  32
ATOM      1  F   UNL     1       6.179  -0.719  23.772  0.00  0.00    -0.205 F 
ATOM     32  C   UNL     1       2.549  -0.853  23.572  0.00  0.00    +0.040 A 
ATOM     33  C   UNL     1       3.854  -1.117  23.986  0.00  0.00    +0.051 A 
ATOM     34  C   UNL     1       2.315   0.063  22.546  0.00  0.00    +0.013 A 
ATOM     35  C   UNL     1       4.925  -0.466  23.375  0.00  0.00    +0.124 A 
ATOM     36  C   UNL     1       3.386   0.715  21.934  0.00  0.00    +0.004 A 
ATOM     37  C   UNL     1       4.692   0.451  22.349  0.00  0.00    +0.038 A 
ENDBRANCH  31  32
BRANCH  23  20
ATOM      9  N   UNL     1      -6.311   2.369  25.799  0.00  0.00    -0.316 NA
ATOM     20  C   UNL     1      -4.693   0.160  24.749  0.00  0.00    +0.078 C 
ATOM     24  C   UNL     1      -6.093   0.478  24.220  0.00  0.00    +0.028 C 
ATOM     25  C   UNL     1      -4.500   0.723  26.158  0.00  0.00    +0.028 C 
ATOM     28  C   UNL     1      -6.462   1.950  24.407  0.00  0.00    +0.081 C 
ATOM     29  C   UNL     1      -4.936   2.186  26.263  0.00  0.00    +0.081 C 
ATOM     39  H   UNL     1      -6.568   3.352  25.887  0.00  0.00    +0.122 HD
ENDBRANCH  23  20
BRANCH  18  27
ATOM      3  O   UNL     1       0.460   2.296  23.840  0.00  0.00    -0.274 OA
ATOM      8  N   UNL     1      -1.402   2.043  25.213  0.00  0.00    -0.302 N 
ATOM     27  C   UNL     1      -0.625   1.782  24.097  0.00  0.00    +0.236 C 
ATOM     38  H   UNL     1      -2.248   1.503  25.370  0.00  0.00    +0.150 HD
BRANCH   8  19
ATOM     19  C   UNL     1      -1.018   2.982  26.242  0.00  0.00    +0.159 C 
BRANCH  19  30
ATOM      4  O   UNL     1      -2.772   4.649  26.467  0.00  0.00    -0.274 OA
ATOM     10  N   UNL     1      -1.010   5.097  25.064  0.00  0.00    -0.328 N 
ATOM     30  C   UNL     1      -1.702   4.315  25.965  0.00  0.00    +0.231 C 
ATOM     40  H   UNL     1      -1.362   6.007  24.787  0.00  0.00    +0.145 HD
ATOM     41  H   UNL     1      -0.136   4.800  24.642  0.00  0.00    +0.145 HD
ENDBRANCH  19  30
BRANCH  19  14
ATOM     14  C   UNL     1       0.503   3.111  26.371  0.00  0.00    +0.035 C 
BRANCH  14  11
ATOM     11  C   UNL     1       1.002   3.223  27.810  0.00  0.00    -0.009 C 
ATOM     12  C   UNL     1       2.495   2.877  27.894  0.00  0.00    +0.003 C 
ATOM     13  C   UNL     1       0.180   2.322  28.741  0.00  0.00    +0.003 C 
ATOM     15  C   UNL     1       3.006   2.929  29.332  0.00  0.00    +0.000 C 
ATOM     16  C   UNL     1       0.695   2.375  30.178  0.00  0.00    +0.000 C 
ATOM     17  C   UNL     1       2.181   2.040  30.256  0.00  0.00    +0.000 C 
ENDBRANCH  14  11
ENDBRANCH  19  14
ENDBRANCH   8  19
ENDBRANCH  18  27
TORSDOF 7
ENDMDL
