MODEL 1
REMARK VINA RESULT:      18.4      0.000      0.000
REMARK  Name = 7135055
REMARK  15 active torsions:
REMARK  status: ('A' for Active; 'I' for Inactive)
REMARK    1  A    between atoms: O_2  and  C_14
REMARK    2  A    between atoms: O_3  and  C_19
REMARK    3  A    between atoms: N_7  and  C_25
REMARK    4  A    between atoms: C_9  and  C_17
REMARK    5  A    between atoms: C_11  and  C_19
REMARK    6  A    between atoms: C_11  and  C_20
REMARK    7  A    between atoms: C_12  and  C_22
REMARK    8  A    between atoms: C_22  and  C_23
REMARK    9  A    between atoms: C_25  and  C_27
REMARK   10  A    between atoms: C_25  and  C_28
REMARK   11  A    between atoms: C_26  and  C_29
REMARK   12  A    between atoms: C_32  and  C_35
REMARK   13  A    between atoms: C_35  and  C_36
REMARK   14  A    between atoms: C_35  and  C_37
REMARK   15  A    between atoms: C_35  and  C_38
REMARK                            x       y       z     vdW  Elec       q    Type
REMARK                         _______ _______ _______ _____ _____    ______ ____
ROOT
ATOM      1  S   UNL     1       0.536   2.324  25.780  0.00  0.00    -0.057 S 
ATOM      5  O   UNL     1       2.174   0.166  21.995  0.00  0.00    -0.270 OA
ATOM      6  N   UNL     1      -0.106   1.320  23.485  0.00  0.00    -0.229 NA
ATOM      8  N   UNL     1       2.217   1.193  24.116  0.00  0.00    -0.261 N 
ATOM      9  C   UNL     1      -3.799   1.992  24.369  0.00  0.00    -0.019 C 
ATOM     10  C   UNL     1      -3.437   3.268  25.251  0.00  0.00    +0.011 C 
ATOM     11  C   UNL     1      -4.622   3.957  26.031  0.00  0.00    +0.021 C 
ATOM     12  C   UNL     1      -2.591   1.735  23.354  0.00  0.00    +0.054 C 
ATOM     13  C   UNL     1      -5.078   2.282  23.542  0.00  0.00    +0.010 C 
ATOM     14  C   UNL     1      -5.833   4.130  25.071  0.00  0.00    +0.123 C 
ATOM     15  C   UNL     1      -2.174   3.015  26.125  0.00  0.00    +0.049 C 
ATOM     16  C   UNL     1      -6.231   2.839  24.366  0.00  0.00    +0.032 C 
ATOM     17  C   UNL     1      -4.034   0.719  25.220  0.00  0.00    +0.012 C 
ATOM     18  C   UNL     1      -1.262   1.809  24.063  0.00  0.00    +0.058 A 
ATOM     20  C   UNL     1      -4.176   5.379  26.474  0.00  0.00    +0.016 C 
ATOM     21  C   UNL     1      -1.095   2.403  25.297  0.00  0.00    +0.015 A 
ATOM     24  C   UNL     1       0.903   1.530  24.303  0.00  0.00    +0.165 A 
ATOM     26  C   UNL     1       2.768   0.544  22.998  0.00  0.00    +0.250 C 
ATOM     42  H   UNL     1       2.825   1.497  24.871  0.00  0.00    +0.157 HD
ENDROOT
BRANCH  26  29
ATOM     29  C   UNL     1       4.238   0.329  23.048  0.00  0.00    +0.037 A 
ATOM     30  C   UNL     1       4.895  -0.260  21.967  0.00  0.00    +0.013 A 
ATOM     31  C   UNL     1       4.962   0.717  24.176  0.00  0.00    +0.013 A 
ATOM     32  C   UNL     1       6.998  -0.072  23.142  0.00  0.00    -0.042 A 
ATOM     33  C   UNL     1       6.274  -0.460  22.014  0.00  0.00    +0.005 A 
ATOM     34  C   UNL     1       6.341   0.516  24.224  0.00  0.00    +0.005 A 
BRANCH  32  35
ATOM     35  C   UNL     1       8.472  -0.288  23.193  0.00  0.00    -0.013 C 
ATOM     36  C   UNL     1       8.902  -1.481  22.284  0.00  0.00    +0.015 C 
ATOM     37  C   UNL     1       8.946  -0.607  24.644  0.00  0.00    +0.015 C 
ATOM     38  C   UNL     1       9.345   0.926  22.727  0.00  0.00    +0.015 C 
ENDBRANCH  32  35
ENDBRANCH  26  29
BRANCH  14   2
ATOM      2  O   UNL     1      -6.966   4.634  25.779  0.00  0.00    -0.391 OA
ATOM     39  H   UNL     1      -6.915   4.302  26.692  0.00  0.00    +0.210 HD
ENDBRANCH  14   2
BRANCH  11  19
ATOM     19  C   UNL     1      -5.045   3.232  27.326  0.00  0.00    +0.165 C 
BRANCH  19   3
ATOM      3  O   UNL     1      -6.147   2.407  27.020  0.00  0.00    -0.394 OA
ATOM     40  H   UNL     1      -6.226   1.752  27.734  0.00  0.00    +0.209 HD
ENDBRANCH  19   3
ENDBRANCH  11  19
BRANCH  12  22
ATOM     22  C   UNL     1      -2.716   0.449  22.526  0.00  0.00    +0.106 C 
BRANCH  22  23
ATOM      4  O   UNL     1      -3.956  -1.364  23.541  0.00  0.00    -0.276 OA
ATOM      7  N   UNL     1      -1.691  -1.123  24.004  0.00  0.00    -0.313 N 
ATOM     23  C   UNL     1      -2.888  -0.773  23.398  0.00  0.00    +0.214 C 
ATOM     41  H   UNL     1      -0.850  -0.600  23.770  0.00  0.00    +0.149 HD
BRANCH   7  25
ATOM     25  C   UNL     1      -1.557  -2.251  24.897  0.00  0.00    +0.067 C 
ATOM     27  C   UNL     1      -2.768  -2.345  25.817  0.00  0.00    +0.027 C 
ATOM     28  C   UNL     1      -0.264  -2.151  25.696  0.00  0.00    +0.027 C 
ENDBRANCH   7  25
ENDBRANCH  22  23
ENDBRANCH  12  22
TORSDOF 8
ENDMDL
MODEL 2
REMARK VINA RESULT:      21.3      1.720      2.419
REMARK  Name = 7135055
REMARK  15 active torsions:
REMARK  status: ('A' for Active; 'I' for Inactive)
REMARK    1  A    between atoms: O_2  and  C_14
REMARK    2  A    between atoms: O_3  and  C_19
REMARK    3  A    between atoms: N_7  and  C_25
REMARK    4  A    between atoms: C_9  and  C_17
REMARK    5  A    between atoms: C_11  and  C_19
REMARK    6  A    between atoms: C_11  and  C_20
REMARK    7  A    between atoms: C_12  and  C_22
REMARK    8  A    between atoms: C_22  and  C_23
REMARK    9  A    between atoms: C_25  and  C_27
REMARK   10  A    between atoms: C_25  and  C_28
REMARK   11  A    between atoms: C_26  and  C_29
REMARK   12  A    between atoms: C_32  and  C_35
REMARK   13  A    between atoms: C_35  and  C_36
REMARK   14  A    between atoms: C_35  and  C_37
REMARK   15  A    between atoms: C_35  and  C_38
REMARK                            x       y       z     vdW  Elec       q    Type
REMARK                         _______ _______ _______ _____ _____    ______ ____
ROOT
ATOM      1  S   UNL     1       1.059   2.468  24.379  0.00  0.00    -0.057 S 
ATOM      5  O   UNL     1       3.275  -1.541  23.545  0.00  0.00    -0.270 OA
ATOM      6  N   UNL     1       0.751  -0.076  24.028  0.00  0.00    -0.229 NA
ATOM      8  N   UNL     1       3.005   0.770  23.924  0.00  0.00    -0.261 N 
ATOM      9  C   UNL     1      -2.979   0.388  24.889  0.00  0.00    -0.019 C 
ATOM     10  C   UNL     1      -3.013   1.865  24.294  0.00  0.00    +0.011 C 
ATOM     11  C   UNL     1      -4.352   2.679  24.477  0.00  0.00    +0.021 C 
ATOM     12  C   UNL     1      -1.745  -0.382  24.227  0.00  0.00    +0.054 C 
ATOM     13  C   UNL     1      -4.284  -0.354  24.502  0.00  0.00    +0.010 C 
ATOM     14  C   UNL     1      -5.557   1.775  24.091  0.00  0.00    +0.123 C 
ATOM     15  C   UNL     1      -1.735   2.664  24.683  0.00  0.00    +0.049 C 
ATOM     16  C   UNL     1      -5.553   0.429  24.806  0.00  0.00    +0.032 C 
ATOM     17  C   UNL     1      -2.832   0.364  26.431  0.00  0.00    +0.012 C 
ATOM     18  C   UNL     1      -0.501   0.468  24.248  0.00  0.00    +0.058 A 
ATOM     20  C   UNL     1      -4.347   3.887  23.499  0.00  0.00    +0.016 C 
ATOM     21  C   UNL     1      -0.521   1.835  24.437  0.00  0.00    +0.015 A 
ATOM     24  C   UNL     1       1.649   0.882  24.081  0.00  0.00    +0.165 A 
ATOM     26  C   UNL     1       3.727  -0.408  23.671  0.00  0.00    +0.250 C 
ATOM     42  H   UNL     1       3.493   1.659  23.965  0.00  0.00    +0.157 HD
ENDROOT
BRANCH  26  29
ATOM     29  C   UNL     1       5.195  -0.233  23.514  0.00  0.00    +0.037 A 
ATOM     30  C   UNL     1       5.826   0.887  24.055  0.00  0.00    +0.013 A 
ATOM     31  C   UNL     1       5.942  -1.190  22.828  0.00  0.00    +0.013 A 
ATOM     32  C   UNL     1       7.951   0.094  23.222  0.00  0.00    -0.042 A 
ATOM     33  C   UNL     1       7.204   1.051  23.908  0.00  0.00    +0.005 A 
ATOM     34  C   UNL     1       7.320  -1.027  22.680  0.00  0.00    +0.005 A 
BRANCH  32  35
ATOM     35  C   UNL     1       9.423   0.268  23.063  0.00  0.00    -0.013 C 
ATOM     36  C   UNL     1      10.055  -0.930  22.288  0.00  0.00    +0.015 C 
ATOM     37  C   UNL     1      10.134   0.360  24.449  0.00  0.00    +0.015 C 
ATOM     38  C   UNL     1       9.867   1.549  22.282  0.00  0.00    +0.015 C 
ENDBRANCH  32  35
ENDBRANCH  26  29
BRANCH  14   2
ATOM      2  O   UNL     1      -6.791   2.438  24.367  0.00  0.00    -0.391 OA
ATOM     39  H   UNL     1      -7.262   1.916  25.039  0.00  0.00    +0.210 HD
ENDBRANCH  14   2
BRANCH  11  19
ATOM     19  C   UNL     1      -4.547   3.284  25.884  0.00  0.00    +0.165 C 
BRANCH  19   3
ATOM      3  O   UNL     1      -5.527   4.293  25.788  0.00  0.00    -0.394 OA
ATOM     40  H   UNL     1      -5.970   4.351  26.652  0.00  0.00    +0.209 HD
ENDBRANCH  19   3
ENDBRANCH  11  19
BRANCH  12  22
ATOM     22  C   UNL     1      -1.482  -1.780  24.802  0.00  0.00    +0.106 C 
BRANCH  22  23
ATOM      4  O   UNL     1      -3.338  -2.868  25.910  0.00  0.00    -0.276 OA
ATOM      7  N   UNL     1      -3.118  -3.043  23.603  0.00  0.00    -0.313 N 
ATOM     23  C   UNL     1      -2.742  -2.613  24.866  0.00  0.00    +0.214 C 
ATOM     41  H   UNL     1      -2.586  -2.724  22.797  0.00  0.00    +0.149 HD
BRANCH   7  25
ATOM     25  C   UNL     1      -4.284  -3.860  23.361  0.00  0.00    +0.067 C 
ATOM     27  C   UNL     1      -4.071  -4.739  22.135  0.00  0.00    +0.027 C 
ATOM     28  C   UNL     1      -5.525  -2.990  23.207  0.00  0.00    +0.027 C 
ENDBRANCH   7  25
ENDBRANCH  22  23
ENDBRANCH  12  22
TORSDOF 8
ENDMDL
