MODEL 1
REMARK VINA RESULT:      12.0      0.000      0.000
REMARK  Name = 11887294
REMARK  8 active torsions:
REMARK  status: ('A' for Active; 'I' for Inactive)
REMARK    1  A    between atoms: O_4  and  C_24
REMARK    2  A    between atoms: O_4  and  C_32
REMARK    3  A    between atoms: O_5  and  C_31
REMARK    4  A    between atoms: O_5  and  C_33
REMARK    5  A    between atoms: N_6  and  C_14
REMARK    6  A    between atoms: N_7  and  C_15
REMARK    7  A    between atoms: N_11  and  C_23
REMARK    8  A    between atoms: C_18  and  C_20
REMARK                            x       y       z     vdW  Elec       q    Type
REMARK                         _______ _______ _______ _____ _____    ______ ____
ROOT
ATOM      1  O   UNL     1      -4.558  -0.918  23.966  0.00  0.00    -0.370 OA
ATOM      2  O   UNL     1      -2.092  -0.828  25.917  0.00  0.00    -0.370 OA
ATOM     12  C   UNL     1      -2.772   0.160  25.121  0.00  0.00    +0.176 C 
ATOM     13  C   UNL     1      -3.187  -0.515  23.828  0.00  0.00    +0.171 C 
ATOM     14  C   UNL     1      -4.078   0.550  25.787  0.00  0.00    +0.168 C 
ATOM     15  C   UNL     1      -2.290  -1.729  23.736  0.00  0.00    +0.131 C 
ATOM     16  C   UNL     1      -5.066  -0.470  25.231  0.00  0.00    +0.190 C 
ATOM     17  C   UNL     1      -2.052  -2.067  25.197  0.00  0.00    +0.185 C 
ENDROOT
BRANCH  15   7
ATOM      3  O   UNL     1       0.159  -0.887  24.962  0.00  0.00    -0.252 OA
ATOM      7  N   UNL     1      -1.052  -1.416  23.064  0.00  0.00    -0.292 N 
ATOM     11  N   UNL     1       1.142  -0.779  22.832  0.00  0.00    -0.269 N 
ATOM     19  C   UNL     1       0.105  -1.011  23.740  0.00  0.00    +0.304 C 
ATOM     39  H   UNL     1      -0.998  -1.560  22.060  0.00  0.00    +0.151 HD
ATOM     40  H   UNL     1       0.930  -0.927  21.848  0.00  0.00    +0.156 HD
BRANCH  11  23
ATOM     23  C   UNL     1       2.464  -0.358  23.113  0.00  0.00    +0.035 A 
ATOM     27  C   UNL     1       2.889   0.911  22.721  0.00  0.00    +0.027 A 
ATOM     28  C   UNL     1       3.340  -1.212  23.782  0.00  0.00    +0.027 A 
ATOM     29  C   UNL     1       4.192   1.327  22.998  0.00  0.00    +0.048 A 
ATOM     30  C   UNL     1       4.643  -0.797  24.059  0.00  0.00    +0.048 A 
ATOM     31  C   UNL     1       5.068   0.472  23.667  0.00  0.00    +0.129 A 
BRANCH  31   5
ATOM      5  O   UNL     1       6.339   0.877  23.936  0.00  0.00    -0.456 OA
BRANCH   5  33
ATOM     33  C   UNL     1       7.377   0.155  23.371  0.00  0.00    +0.128 A 
ATOM     34  C   UNL     1       7.103  -0.982  22.611  0.00  0.00    +0.046 A 
ATOM     35  C   UNL     1       8.697   0.564  23.562  0.00  0.00    +0.046 A 
ATOM     36  C   UNL     1       8.148  -1.710  22.042  0.00  0.00    +0.004 A 
ATOM     37  C   UNL     1       9.743  -0.164  22.993  0.00  0.00    +0.004 A 
ATOM     38  C   UNL     1       9.468  -1.300  22.232  0.00  0.00    +0.000 A 
ENDBRANCH   5  33
ENDBRANCH  31   5
ENDBRANCH  11  23
ENDBRANCH  15   7
BRANCH  14   6
ATOM      6  N   UNL     1      -4.433   1.952  25.549  0.00  0.00    -0.217 N 
ATOM      8  N   UNL     1      -5.699   2.371  25.689  0.00  0.00    -0.043 NA
ATOM      9  N   UNL     1      -4.386   4.069  25.081  0.00  0.00    -0.108 NA
ATOM     10  N   UNL     1      -5.663   3.667  25.402  0.00  0.00    -0.023 NA
ATOM     18  C   UNL     1      -3.642   2.991  25.179  0.00  0.00    +0.182 A 
BRANCH  18  20
ATOM     20  C   UNL     1      -2.224   2.894  24.940  0.00  0.00    +0.024 A 
ATOM     21  C   UNL     1      -1.336   2.859  26.016  0.00  0.00    +0.057 A 
ATOM     22  C   UNL     1      -1.740   2.833  23.633  0.00  0.00    +0.012 A 
ATOM     24  C   UNL     1       0.035   2.764  25.784  0.00  0.00    +0.121 A 
ATOM     25  C   UNL     1      -0.368   2.737  23.403  0.00  0.00    +0.004 A 
ATOM     26  C   UNL     1       0.520   2.703  24.478  0.00  0.00    +0.045 A 
BRANCH  24   4
ATOM      4  O   UNL     1       0.902   2.729  26.834  0.00  0.00    -0.495 OA
ATOM     32  C   UNL     1       0.370   2.351  28.103  0.00  0.00    +0.277 C 
ENDBRANCH  24   4
ENDBRANCH  18  20
ENDBRANCH  14   6
TORSDOF 7
ENDMDL
MODEL 2
REMARK VINA RESULT:      12.4      1.540      2.344
REMARK  Name = 11887294
REMARK  8 active torsions:
REMARK  status: ('A' for Active; 'I' for Inactive)
REMARK    1  A    between atoms: O_4  and  C_24
REMARK    2  A    between atoms: O_4  and  C_32
REMARK    3  A    between atoms: O_5  and  C_31
REMARK    4  A    between atoms: O_5  and  C_33
REMARK    5  A    between atoms: N_6  and  C_14
REMARK    6  A    between atoms: N_7  and  C_15
REMARK    7  A    between atoms: N_11  and  C_23
REMARK    8  A    between atoms: C_18  and  C_20
REMARK                            x       y       z     vdW  Elec       q    Type
REMARK                         _______ _______ _______ _____ _____    ______ ____
ROOT
ATOM      1  O   UNL     1      -6.412   0.441  24.776  0.00  0.00    -0.370 OA
ATOM      2  O   UNL     1      -3.637   0.308  26.253  0.00  0.00    -0.370 OA
ATOM     12  C   UNL     1      -4.270   1.282  25.404  0.00  0.00    +0.176 C 
ATOM     13  C   UNL     1      -5.044   0.520  24.346  0.00  0.00    +0.171 C 
ATOM     14  C   UNL     1      -5.330   2.037  26.185  0.00  0.00    +0.168 C 
ATOM     15  C   UNL     1      -4.415  -0.855  24.342  0.00  0.00    +0.131 C 
ATOM     16  C   UNL     1      -6.574   1.175  25.998  0.00  0.00    +0.190 C 
ATOM     17  C   UNL     1      -3.962  -1.008  25.783  0.00  0.00    +0.185 C 
ENDROOT
BRANCH  15   7
ATOM      3  O   UNL     1      -1.772   0.148  24.808  0.00  0.00    -0.252 OA
ATOM      7  N   UNL     1      -3.296  -0.917  23.433  0.00  0.00    -0.292 N 
ATOM     11  N   UNL     1      -1.152  -0.606  22.672  0.00  0.00    -0.269 N 
ATOM     19  C   UNL     1      -2.031  -0.401  23.739  0.00  0.00    +0.304 C 
ATOM     39  H   UNL     1      -3.413  -1.417  22.557  0.00  0.00    +0.151 HD
ATOM     40  H   UNL     1      -1.528  -1.078  21.854  0.00  0.00    +0.156 HD
BRANCH  11  23
ATOM     23  C   UNL     1       0.211  -0.232  22.586  0.00  0.00    +0.035 A 
ATOM     27  C   UNL     1       0.967  -0.608  21.477  0.00  0.00    +0.027 A 
ATOM     28  C   UNL     1       0.796   0.512  23.611  0.00  0.00    +0.027 A 
ATOM     29  C   UNL     1       2.310  -0.239  21.391  0.00  0.00    +0.048 A 
ATOM     30  C   UNL     1       2.138   0.880  23.526  0.00  0.00    +0.048 A 
ATOM     31  C   UNL     1       2.895   0.505  22.416  0.00  0.00    +0.129 A 
BRANCH  31   5
ATOM      5  O   UNL     1       4.206   0.863  22.333  0.00  0.00    -0.456 OA
BRANCH   5  33
ATOM     33  C   UNL     1       5.121   0.125  23.064  0.00  0.00    +0.128 A 
ATOM     34  C   UNL     1       6.469   0.484  23.059  0.00  0.00    +0.046 A 
ATOM     35  C   UNL     1       4.697  -0.979  23.803  0.00  0.00    +0.046 A 
ATOM     36  C   UNL     1       7.392  -0.261  23.794  0.00  0.00    +0.004 A 
ATOM     37  C   UNL     1       5.620  -1.724  24.539  0.00  0.00    +0.004 A 
ATOM     38  C   UNL     1       6.967  -1.363  24.534  0.00  0.00    +0.000 A 
ENDBRANCH   5  33
ENDBRANCH  31   5
ENDBRANCH  11  23
ENDBRANCH  15   7
BRANCH  14   6
ATOM      6  N   UNL     1      -5.467   3.428  25.746  0.00  0.00    -0.217 N 
ATOM      8  N   UNL     1      -6.591   4.116  25.991  0.00  0.00    -0.043 NA
ATOM      9  N   UNL     1      -5.129   5.393  24.893  0.00  0.00    -0.108 NA
ATOM     10  N   UNL     1      -6.378   5.317  25.468  0.00  0.00    -0.023 NA
ATOM     18  C   UNL     1      -4.583   4.213  25.078  0.00  0.00    +0.182 A 
BRANCH  18  20
ATOM     20  C   UNL     1      -3.272   3.790  24.656  0.00  0.00    +0.024 A 
ATOM     21  C   UNL     1      -2.203   3.834  25.550  0.00  0.00    +0.057 A 
ATOM     22  C   UNL     1      -3.073   3.334  23.352  0.00  0.00    +0.012 A 
ATOM     24  C   UNL     1      -0.935   3.423  25.141  0.00  0.00    +0.121 A 
ATOM     25  C   UNL     1      -1.804   2.924  22.944  0.00  0.00    +0.004 A 
ATOM     26  C   UNL     1      -0.735   2.968  23.838  0.00  0.00    +0.045 A 
BRANCH  24   4
ATOM      4  O   UNL     1       0.109   3.465  26.014  0.00  0.00    -0.495 OA
ATOM     32  C   UNL     1       0.295   2.331  26.860  0.00  0.00    +0.277 C 
ENDBRANCH  24   4
ENDBRANCH  18  20
ENDBRANCH  14   6
TORSDOF 7
ENDMDL
MODEL 3
REMARK VINA RESULT:      13.4      1.872      3.583
REMARK  Name = 11887294
REMARK  8 active torsions:
REMARK  status: ('A' for Active; 'I' for Inactive)
REMARK    1  A    between atoms: O_4  and  C_24
REMARK    2  A    between atoms: O_4  and  C_32
REMARK    3  A    between atoms: O_5  and  C_31
REMARK    4  A    between atoms: O_5  and  C_33
REMARK    5  A    between atoms: N_6  and  C_14
REMARK    6  A    between atoms: N_7  and  C_15
REMARK    7  A    between atoms: N_11  and  C_23
REMARK    8  A    between atoms: C_18  and  C_20
REMARK                            x       y       z     vdW  Elec       q    Type
REMARK                         _______ _______ _______ _____ _____    ______ ____
ROOT
ATOM      1  O   UNL     1      -2.706   4.094  26.928  0.00  0.00    -0.370 OA
ATOM      2  O   UNL     1      -3.294   4.904  23.945  0.00  0.00    -0.370 OA
ATOM     12  C   UNL     1      -3.512   3.709  24.716  0.00  0.00    +0.176 C 
ATOM     13  C   UNL     1      -2.327   3.557  25.651  0.00  0.00    +0.171 C 
ATOM     14  C   UNL     1      -4.704   3.897  25.635  0.00  0.00    +0.168 C 
ATOM     15  C   UNL     1      -1.245   4.407  25.024  0.00  0.00    +0.131 C 
ATOM     16  C   UNL     1      -4.081   4.503  26.888  0.00  0.00    +0.190 C 
ATOM     17  C   UNL     1      -2.047   5.496  24.336  0.00  0.00    +0.185 C 
ENDROOT
BRANCH  15   7
ATOM      3  O   UNL     1       0.913   2.615  25.611  0.00  0.00    -0.252 OA
ATOM      7  N   UNL     1      -0.470   3.649  24.072  0.00  0.00    -0.292 N 
ATOM     11  N   UNL     1       1.137   2.195  23.312  0.00  0.00    -0.269 N 
ATOM     19  C   UNL     1       0.573   2.791  24.443  0.00  0.00    +0.304 C 
ATOM     39  H   UNL     1      -0.736   3.688  23.092  0.00  0.00    +0.151 HD
ATOM     40  H   UNL     1       0.737   2.451  22.412  0.00  0.00    +0.156 HD
BRANCH  11  23
ATOM     23  C   UNL     1       2.209   1.271  23.261  0.00  0.00    +0.035 A 
ATOM     27  C   UNL     1       3.502   1.719  22.994  0.00  0.00    +0.027 A 
ATOM     28  C   UNL     1       1.970  -0.086  23.477  0.00  0.00    +0.027 A 
ATOM     29  C   UNL     1       4.559   0.809  22.945  0.00  0.00    +0.048 A 
ATOM     30  C   UNL     1       3.026  -0.995  23.428  0.00  0.00    +0.048 A 
ATOM     31  C   UNL     1       4.321  -0.548  23.161  0.00  0.00    +0.129 A 
BRANCH  31   5
ATOM      5  O   UNL     1       5.351  -1.436  23.111  0.00  0.00    -0.456 OA
BRANCH   5  33
ATOM     33  C   UNL     1       6.639  -0.928  23.116  0.00  0.00    +0.128 A 
ATOM     34  C   UNL     1       7.631  -1.534  22.345  0.00  0.00    +0.046 A 
ATOM     35  C   UNL     1       6.945   0.190  23.892  0.00  0.00    +0.046 A 
ATOM     36  C   UNL     1       8.929  -1.023  22.351  0.00  0.00    +0.004 A 
ATOM     37  C   UNL     1       8.243   0.702  23.897  0.00  0.00    +0.004 A 
ATOM     38  C   UNL     1       9.234   0.096  23.126  0.00  0.00    +0.000 A 
ENDBRANCH   5  33
ENDBRANCH  31   5
ENDBRANCH  11  23
ENDBRANCH  15   7
BRANCH  14   6
ATOM      6  N   UNL     1      -5.449   2.653  25.851  0.00  0.00    -0.217 N 
ATOM      8  N   UNL     1      -6.606   2.656  26.526  0.00  0.00    -0.043 NA
ATOM      9  N   UNL     1      -6.101   0.586  25.871  0.00  0.00    -0.108 NA
ATOM     10  N   UNL     1      -7.001   1.389  26.535  0.00  0.00    -0.023 NA
ATOM     18  C   UNL     1      -5.149   1.389  25.456  0.00  0.00    +0.182 A 
BRANCH  18  20
ATOM     20  C   UNL     1      -3.973   1.025  24.708  0.00  0.00    +0.024 A 
ATOM     21  C   UNL     1      -2.993   0.224  25.295  0.00  0.00    +0.057 A 
ATOM     22  C   UNL     1      -3.815   1.471  23.396  0.00  0.00    +0.012 A 
ATOM     24  C   UNL     1      -1.855  -0.129  24.570  0.00  0.00    +0.121 A 
ATOM     25  C   UNL     1      -2.677   1.117  22.672  0.00  0.00    +0.004 A 
ATOM     26  C   UNL     1      -1.697   0.317  23.259  0.00  0.00    +0.045 A 
BRANCH  24   4
ATOM      4  O   UNL     1      -0.899  -0.911  25.143  0.00  0.00    -0.495 OA
ATOM     32  C   UNL     1      -0.954  -2.310  24.869  0.00  0.00    +0.277 C 
ENDBRANCH  24   4
ENDBRANCH  18  20
ENDBRANCH  14   6
TORSDOF 7
ENDMDL
MODEL 4
REMARK VINA RESULT:      13.6      1.662      3.494
REMARK  Name = 11887294
REMARK  8 active torsions:
REMARK  status: ('A' for Active; 'I' for Inactive)
REMARK    1  A    between atoms: O_4  and  C_24
REMARK    2  A    between atoms: O_4  and  C_32
REMARK    3  A    between atoms: O_5  and  C_31
REMARK    4  A    between atoms: O_5  and  C_33
REMARK    5  A    between atoms: N_6  and  C_14
REMARK    6  A    between atoms: N_7  and  C_15
REMARK    7  A    between atoms: N_11  and  C_23
REMARK    8  A    between atoms: C_18  and  C_20
REMARK                            x       y       z     vdW  Elec       q    Type
REMARK                         _______ _______ _______ _____ _____    ______ ____
ROOT
ATOM      1  O   UNL     1      -2.859   3.965  25.494  0.00  0.00    -0.370 OA
ATOM      2  O   UNL     1      -3.488   2.588  22.736  0.00  0.00    -0.370 OA
ATOM     12  C   UNL     1      -3.683   2.206  24.109  0.00  0.00    +0.176 C 
ATOM     13  C   UNL     1      -2.487   2.716  24.890  0.00  0.00    +0.171 C 
ATOM     14  C   UNL     1      -4.868   2.954  24.690  0.00  0.00    +0.168 C 
ATOM     15  C   UNL     1      -1.422   2.938  23.840  0.00  0.00    +0.131 C 
ATOM     16  C   UNL     1      -4.239   4.241  25.215  0.00  0.00    +0.190 C 
ATOM     17  C   UNL     1      -2.245   3.294  22.615  0.00  0.00    +0.185 C 
ENDROOT
BRANCH  15   7
ATOM      3  O   UNL     1       1.435   2.722  23.836  0.00  0.00    -0.252 OA
ATOM      7  N   UNL     1      -0.647   1.741  23.619  0.00  0.00    -0.292 N 
ATOM     11  N   UNL     1       1.223   0.427  23.392  0.00  0.00    -0.269 N 
ATOM     19  C   UNL     1       0.752   1.720  23.634  0.00  0.00    +0.304 C 
ATOM     39  H   UNL     1      -1.141   0.859  23.513  0.00  0.00    +0.151 HD
ATOM     40  H   UNL     1       0.520  -0.294  23.242  0.00  0.00    +0.156 HD
BRANCH  11  23
ATOM     23  C   UNL     1       2.567  -0.010  23.325  0.00  0.00    +0.035 A 
ATOM     27  C   UNL     1       3.532   0.794  22.720  0.00  0.00    +0.027 A 
ATOM     28  C   UNL     1       2.926  -1.245  23.866  0.00  0.00    +0.027 A 
ATOM     29  C   UNL     1       4.858   0.364  22.655  0.00  0.00    +0.048 A 
ATOM     30  C   UNL     1       4.251  -1.675  23.801  0.00  0.00    +0.048 A 
ATOM     31  C   UNL     1       5.217  -0.870  23.196  0.00  0.00    +0.129 A 
BRANCH  31   5
ATOM      5  O   UNL     1       6.510  -1.291  23.131  0.00  0.00    -0.456 OA
BRANCH   5  33
ATOM     33  C   UNL     1       7.504  -0.345  23.317  0.00  0.00    +0.128 A 
ATOM     34  C   UNL     1       7.212   0.856  23.964  0.00  0.00    +0.046 A 
ATOM     35  C   UNL     1       8.797  -0.592  22.857  0.00  0.00    +0.046 A 
ATOM     36  C   UNL     1       8.213   1.810  24.151  0.00  0.00    +0.004 A 
ATOM     37  C   UNL     1       9.799   0.361  23.044  0.00  0.00    +0.004 A 
ATOM     38  C   UNL     1       9.506   1.562  23.691  0.00  0.00    +0.000 A 
ENDBRANCH   5  33
ENDBRANCH  31   5
ENDBRANCH  11  23
ENDBRANCH  15   7
BRANCH  14   6
ATOM      6  N   UNL     1      -5.595   2.166  25.690  0.00  0.00    -0.217 N 
ATOM      8  N   UNL     1      -6.550   2.729  26.443  0.00  0.00    -0.043 NA
ATOM      9  N   UNL     1      -6.319   0.575  26.971  0.00  0.00    -0.108 NA
ATOM     10  N   UNL     1      -6.990   1.750  27.224  0.00  0.00    -0.023 NA
ATOM     18  C   UNL     1      -5.461   0.855  26.018  0.00  0.00    +0.182 A 
BRANCH  18  20
ATOM     20  C   UNL     1      -4.524  -0.049  25.403  0.00  0.00    +0.024 A 
ATOM     21  C   UNL     1      -3.225  -0.153  25.902  0.00  0.00    +0.057 A 
ATOM     22  C   UNL     1      -4.915  -0.821  24.309  0.00  0.00    +0.012 A 
ATOM     24  C   UNL     1      -2.318  -1.030  25.307  0.00  0.00    +0.121 A 
ATOM     25  C   UNL     1      -4.007  -1.697  23.714  0.00  0.00    +0.004 A 
ATOM     26  C   UNL     1      -2.708  -1.801  24.213  0.00  0.00    +0.045 A 
BRANCH  24   4
ATOM      4  O   UNL     1      -1.051  -1.132  25.794  0.00  0.00    -0.495 OA
ATOM     32  C   UNL     1      -0.258  -2.219  25.318  0.00  0.00    +0.277 C 
ENDBRANCH  24   4
ENDBRANCH  18  20
ENDBRANCH  14   6
TORSDOF 7
ENDMDL
MODEL 5
REMARK VINA RESULT:      14.7      0.832      1.632
REMARK  Name = 11887294
REMARK  8 active torsions:
REMARK  status: ('A' for Active; 'I' for Inactive)
REMARK    1  A    between atoms: O_4  and  C_24
REMARK    2  A    between atoms: O_4  and  C_32
REMARK    3  A    between atoms: O_5  and  C_31
REMARK    4  A    between atoms: O_5  and  C_33
REMARK    5  A    between atoms: N_6  and  C_14
REMARK    6  A    between atoms: N_7  and  C_15
REMARK    7  A    between atoms: N_11  and  C_23
REMARK    8  A    between atoms: C_18  and  C_20
REMARK                            x       y       z     vdW  Elec       q    Type
REMARK                         _______ _______ _______ _____ _____    ______ ____
ROOT
ATOM      1  O   UNL     1      -4.593  -0.934  23.932  0.00  0.00    -0.370 OA
ATOM      2  O   UNL     1      -2.132  -0.761  25.884  0.00  0.00    -0.370 OA
ATOM     12  C   UNL     1      -2.853   0.206  25.100  0.00  0.00    +0.176 C 
ATOM     13  C   UNL     1      -3.240  -0.471  23.799  0.00  0.00    +0.171 C 
ATOM     14  C   UNL     1      -4.174   0.533  25.770  0.00  0.00    +0.168 C 
ATOM     15  C   UNL     1      -2.292  -1.645  23.693  0.00  0.00    +0.131 C 
ATOM     16  C   UNL     1      -5.118  -0.521  25.202  0.00  0.00    +0.190 C 
ATOM     17  C   UNL     1      -2.040  -1.989  25.150  0.00  0.00    +0.185 C 
ENDROOT
BRANCH  15   7
ATOM      3  O   UNL     1       0.188  -0.925  24.934  0.00  0.00    -0.252 OA
ATOM      7  N   UNL     1      -1.069  -1.272  23.025  0.00  0.00    -0.292 N 
ATOM     11  N   UNL     1       1.121  -0.619  22.802  0.00  0.00    -0.269 N 
ATOM     19  C   UNL     1       0.105  -0.933  23.708  0.00  0.00    +0.304 C 
ATOM     39  H   UNL     1      -1.039  -1.321  22.010  0.00  0.00    +0.151 HD
ATOM     40  H   UNL     1       0.886  -0.674  21.814  0.00  0.00    +0.156 HD
BRANCH  11  23
ATOM     23  C   UNL     1       2.451  -0.228  23.089  0.00  0.00    +0.035 A 
ATOM     27  C   UNL     1       3.336  -1.140  23.664  0.00  0.00    +0.027 A 
ATOM     28  C   UNL     1       2.875   1.068  22.798  0.00  0.00    +0.027 A 
ATOM     29  C   UNL     1       4.647  -0.755  23.946  0.00  0.00    +0.048 A 
ATOM     30  C   UNL     1       4.185   1.453  23.081  0.00  0.00    +0.048 A 
ATOM     31  C   UNL     1       5.071   0.541  23.655  0.00  0.00    +0.129 A 
BRANCH  31   5
ATOM      5  O   UNL     1       6.350   0.917  23.932  0.00  0.00    -0.456 OA
BRANCH   5  33
ATOM     33  C   UNL     1       7.375   0.172  23.374  0.00  0.00    +0.128 A 
ATOM     34  C   UNL     1       7.081  -0.975  22.636  0.00  0.00    +0.046 A 
ATOM     35  C   UNL     1       8.701   0.567  23.551  0.00  0.00    +0.046 A 
ATOM     36  C   UNL     1       8.114  -1.726  22.074  0.00  0.00    +0.004 A 
ATOM     37  C   UNL     1       9.734  -0.184  22.988  0.00  0.00    +0.004 A 
ATOM     38  C   UNL     1       9.439  -1.330  22.250  0.00  0.00    +0.000 A 
ENDBRANCH   5  33
ENDBRANCH  31   5
ENDBRANCH  11  23
ENDBRANCH  15   7
BRANCH  14   6
ATOM      6  N   UNL     1      -4.589   1.921  25.547  0.00  0.00    -0.217 N 
ATOM      8  N   UNL     1      -5.887   2.245  25.476  0.00  0.00    -0.043 NA
ATOM      9  N   UNL     1      -4.623   4.063  25.213  0.00  0.00    -0.108 NA
ATOM     10  N   UNL     1      -5.902   3.557  25.272  0.00  0.00    -0.023 NA
ATOM     18  C   UNL     1      -3.826   3.034  25.387  0.00  0.00    +0.182 A 
BRANCH  18  20
ATOM     20  C   UNL     1      -2.386   3.047  25.407  0.00  0.00    +0.024 A 
ATOM     21  C   UNL     1      -1.675   3.459  24.280  0.00  0.00    +0.057 A 
ATOM     22  C   UNL     1      -1.702   2.648  26.556  0.00  0.00    +0.012 A 
ATOM     24  C   UNL     1      -0.281   3.473  24.302  0.00  0.00    +0.121 A 
ATOM     25  C   UNL     1      -0.307   2.662  26.576  0.00  0.00    +0.004 A 
ATOM     26  C   UNL     1       0.403   3.074  25.449  0.00  0.00    +0.045 A 
BRANCH  24   4
ATOM      4  O   UNL     1       0.412   3.876  23.201  0.00  0.00    -0.495 OA
ATOM     32  C   UNL     1       0.289   5.246  22.821  0.00  0.00    +0.277 C 
ENDBRANCH  24   4
ENDBRANCH  18  20
ENDBRANCH  14   6
TORSDOF 7
ENDMDL
MODEL 6
REMARK VINA RESULT:      15.1      2.567      4.419
REMARK  Name = 11887294
REMARK  8 active torsions:
REMARK  status: ('A' for Active; 'I' for Inactive)
REMARK    1  A    between atoms: O_4  and  C_24
REMARK    2  A    between atoms: O_4  and  C_32
REMARK    3  A    between atoms: O_5  and  C_31
REMARK    4  A    between atoms: O_5  and  C_33
REMARK    5  A    between atoms: N_6  and  C_14
REMARK    6  A    between atoms: N_7  and  C_15
REMARK    7  A    between atoms: N_11  and  C_23
REMARK    8  A    between atoms: C_18  and  C_20
REMARK                            x       y       z     vdW  Elec       q    Type
REMARK                         _______ _______ _______ _____ _____    ______ ____
ROOT
ATOM      1  O   UNL     1      -0.456   1.135  22.183  0.00  0.00    -0.370 OA
ATOM      2  O   UNL     1      -0.488  -0.437  24.907  0.00  0.00    -0.370 OA
ATOM     12  C   UNL     1      -0.180   0.920  24.542  0.00  0.00    +0.176 C 
ATOM     13  C   UNL     1       0.524   0.874  23.199  0.00  0.00    +0.171 C 
ATOM     14  C   UNL     1      -1.462   1.687  24.277  0.00  0.00    +0.168 C 
ATOM     15  C   UNL     1       1.027  -0.547  23.091  0.00  0.00    +0.131 C 
ATOM     16  C   UNL     1      -1.720   1.425  22.797  0.00  0.00    +0.190 C 
ATOM     17  C   UNL     1      -0.012  -1.320  23.882  0.00  0.00    +0.185 C 
ENDROOT
BRANCH  15   7
ATOM      3  O   UNL     1       3.498   0.408  22.001  0.00  0.00    -0.252 OA
ATOM      7  N   UNL     1       2.339  -0.685  23.676  0.00  0.00    -0.292 N 
ATOM     11  N   UNL     1       4.617  -0.466  23.870  0.00  0.00    -0.269 N 
ATOM     19  C   UNL     1       3.501  -0.186  23.076  0.00  0.00    +0.304 C 
ATOM     39  H   UNL     1       2.414  -1.105  24.598  0.00  0.00    +0.151 HD
ATOM     40  H   UNL     1       4.446  -0.972  24.737  0.00  0.00    +0.156 HD
BRANCH  11  23
ATOM     23  C   UNL     1       5.969  -0.133  23.617  0.00  0.00    +0.035 A 
ATOM     27  C   UNL     1       6.502   1.050  24.128  0.00  0.00    +0.027 A 
ATOM     28  C   UNL     1       6.767  -0.988  22.858  0.00  0.00    +0.027 A 
ATOM     29  C   UNL     1       7.835   1.378  23.880  0.00  0.00    +0.048 A 
ATOM     30  C   UNL     1       8.100  -0.661  22.610  0.00  0.00    +0.048 A 
ATOM     31  C   UNL     1       8.634   0.523  23.120  0.00  0.00    +0.129 A 
BRANCH  31   5
ATOM      5  O   UNL     1       9.933   0.843  22.876  0.00  0.00    -0.456 OA
BRANCH   5  33
ATOM     33  C   UNL     1      10.192   2.058  22.264  0.00  0.00    +0.128 A 
ATOM     34  C   UNL     1      10.150   3.237  23.009  0.00  0.00    +0.046 A 
ATOM     35  C   UNL     1      10.493   2.103  20.903  0.00  0.00    +0.046 A 
ATOM     36  C   UNL     1      10.410   4.461  22.392  0.00  0.00    +0.004 A 
ATOM     37  C   UNL     1      10.754   3.328  20.286  0.00  0.00    +0.004 A 
ATOM     38  C   UNL     1      10.712   4.506  21.031  0.00  0.00    +0.000 A 
ENDBRANCH   5  33
ENDBRANCH  31   5
ENDBRANCH  11  23
ENDBRANCH  15   7
BRANCH  14   6
ATOM      6  N   UNL     1      -1.358   3.101  24.648  0.00  0.00    -0.217 N 
ATOM      8  N   UNL     1      -0.180   3.738  24.595  0.00  0.00    -0.043 NA
ATOM      9  N   UNL     1      -1.779   5.129  25.291  0.00  0.00    -0.108 NA
ATOM     10  N   UNL     1      -0.444   4.978  24.989  0.00  0.00    -0.023 NA
ATOM     18  C   UNL     1      -2.325   3.955  25.072  0.00  0.00    +0.182 A 
BRANCH  18  20
ATOM     20  C   UNL     1      -3.711   3.599  25.244  0.00  0.00    +0.024 A 
ATOM     21  C   UNL     1      -4.121   2.279  25.055  0.00  0.00    +0.057 A 
ATOM     22  C   UNL     1      -4.642   4.575  25.601  0.00  0.00    +0.012 A 
ATOM     24  C   UNL     1      -5.462   1.936  25.223  0.00  0.00    +0.121 A 
ATOM     25  C   UNL     1      -5.983   4.230  25.768  0.00  0.00    +0.004 A 
ATOM     26  C   UNL     1      -6.393   2.910  25.579  0.00  0.00    +0.045 A 
BRANCH  24   4
ATOM      4  O   UNL     1      -5.862   0.647  25.039  0.00  0.00    -0.495 OA
ATOM     32  C   UNL     1      -4.862  -0.295  24.652  0.00  0.00    +0.277 C 
ENDBRANCH  24   4
ENDBRANCH  18  20
ENDBRANCH  14   6
TORSDOF 7
ENDMDL
