MODEL 1
REMARK VINA RESULT:      -5.6      0.000      0.000
REMARK  Name = 45360622
REMARK  11 active torsions:
REMARK  status: ('A' for Active; 'I' for Inactive)
REMARK    1  A    between atoms: O_4  and  C_27
REMARK    2  A    between atoms: N_7  and  C_10
REMARK    3  A    between atoms: N_7  and  C_18
REMARK    4  A    between atoms: N_8  and  C_22
REMARK    5  A    between atoms: C_11  and  C_16
REMARK    6  A    between atoms: C_16  and  C_17
REMARK    7  A    between atoms: C_17  and  C_19
REMARK    8  A    between atoms: C_18  and  C_20
REMARK    9  A    between atoms: C_22  and  C_25
REMARK   10  A    between atoms: C_22  and  C_26
REMARK   11  A    between atoms: C_23  and  C_27
REMARK                            x       y       z     vdW  Elec       q    Type
REMARK                         _______ _______ _______ _____ _____    ______ ____
ROOT
ATOM      1  O   UNL     1      -1.193   5.715  25.143  0.00  0.00    -0.274 OA
ATOM      5  N   UNL     1      -2.997   2.571  25.574  0.00  0.00    -0.286 NA
ATOM      6  N   UNL     1      -3.017   4.921  24.040  0.00  0.00    -0.313 N 
ATOM      9  C   UNL     1      -2.113   3.667  25.992  0.00  0.00    +0.145 C 
ATOM     10  C   UNL     1      -0.946   1.554  25.733  0.00  0.00    +0.070 C 
ATOM     11  C   UNL     1      -4.246   3.008  24.960  0.00  0.00    +0.075 C 
ATOM     12  C   UNL     1      -0.731   3.012  26.140  0.00  0.00    +0.048 C 
ATOM     13  C   UNL     1      -2.176   1.612  24.839  0.00  0.00    +0.104 C 
ATOM     14  C   UNL     1      -3.976   3.882  23.746  0.00  0.00    +0.123 C 
ATOM     15  C   UNL     1      -2.052   4.837  25.014  0.00  0.00    +0.230 C 
ATOM     28  H   UNL     1      -2.978   5.716  23.409  0.00  0.00    +0.149 HD
ENDROOT
BRANCH  10   7
ATOM      7  N   UNL     1       0.215   0.964  25.086  0.00  0.00    -0.305 NA
ATOM     29  H   UNL     1       1.032   1.548  25.267  0.00  0.00    +0.123 HD
BRANCH   7  18
ATOM     18  C   UNL     1       0.018   0.868  23.645  0.00  0.00    +0.156 C 
BRANCH  18  20
ATOM      2  O   UNL     1       2.448   0.889  23.506  0.00  0.00    -0.461 OA
ATOM     20  C   UNL     1       1.286   0.484  22.930  0.00  0.00    +0.119 A 
ATOM     21  C   UNL     1       1.538  -0.216  21.773  0.00  0.00    +0.046 A 
ATOM     23  C   UNL     1       3.454   0.442  22.708  0.00  0.00    +0.131 A 
ATOM     24  C   UNL     1       2.946  -0.244  21.630  0.00  0.00    +0.047 A 
BRANCH  23  27
ATOM     27  C   UNL     1       4.820   0.766  23.141  0.00  0.00    +0.230 C 
BRANCH  27   4
ATOM      4  O   UNL     1       5.031   0.325  24.485  0.00  0.00    -0.387 OA
ATOM     31  H   UNL     1       4.157   0.108  24.852  0.00  0.00    +0.210 HD
ENDBRANCH  27   4
ENDBRANCH  23  27
ENDBRANCH  18  20
ENDBRANCH   7  18
ENDBRANCH  10   7
BRANCH  11  16
ATOM     16  C   UNL     1      -5.172   1.843  24.605  0.00  0.00    +0.029 C 
BRANCH  16  17
ATOM     17  C   UNL     1      -4.918   0.643  25.507  0.00  0.00    +0.097 C 
BRANCH  17  19
ATOM      3  O   UNL     1      -4.310  -0.627  23.538  0.00  0.00    -0.276 OA
ATOM      8  N   UNL     1      -3.638  -1.388  25.626  0.00  0.00    -0.313 N 
ATOM     19  C   UNL     1      -4.269  -0.507  24.760  0.00  0.00    +0.213 C 
ATOM     30  H   UNL     1      -3.608  -1.173  26.618  0.00  0.00    +0.149 HD
BRANCH   8  22
ATOM     22  C   UNL     1      -2.947  -2.567  25.158  0.00  0.00    +0.067 C 
ATOM     25  C   UNL     1      -3.753  -3.261  24.066  0.00  0.00    +0.027 C 
ATOM     26  C   UNL     1      -1.552  -2.202  24.666  0.00  0.00    +0.027 C 
ENDBRANCH   8  22
ENDBRANCH  17  19
ENDBRANCH  16  17
ENDBRANCH  11  16
TORSDOF 9
ENDMDL
MODEL 2
REMARK VINA RESULT:      -5.2      1.811      2.397
REMARK  Name = 45360622
REMARK  11 active torsions:
REMARK  status: ('A' for Active; 'I' for Inactive)
REMARK    1  A    between atoms: O_4  and  C_27
REMARK    2  A    between atoms: N_7  and  C_10
REMARK    3  A    between atoms: N_7  and  C_18
REMARK    4  A    between atoms: N_8  and  C_22
REMARK    5  A    between atoms: C_11  and  C_16
REMARK    6  A    between atoms: C_16  and  C_17
REMARK    7  A    between atoms: C_17  and  C_19
REMARK    8  A    between atoms: C_18  and  C_20
REMARK    9  A    between atoms: C_22  and  C_25
REMARK   10  A    between atoms: C_22  and  C_26
REMARK   11  A    between atoms: C_23  and  C_27
REMARK                            x       y       z     vdW  Elec       q    Type
REMARK                         _______ _______ _______ _____ _____    ______ ____
ROOT
ATOM      1  O   UNL     1       0.911   2.719  26.601  0.00  0.00    -0.274 OA
ATOM      5  N   UNL     1      -2.107   1.866  24.733  0.00  0.00    -0.286 NA
ATOM      6  N   UNL     1      -0.753   4.065  25.832  0.00  0.00    -0.313 N 
ATOM      9  C   UNL     1      -0.970   1.593  25.621  0.00  0.00    +0.145 C 
ATOM     10  C   UNL     1      -0.792   0.466  23.478  0.00  0.00    +0.070 C 
ATOM     11  C   UNL     1      -2.863   3.066  25.077  0.00  0.00    +0.075 C 
ATOM     12  C   UNL     1      -0.080   0.629  24.821  0.00  0.00    +0.048 C 
ATOM     13  C   UNL     1      -1.625   1.735  23.361  0.00  0.00    +0.104 C 
ATOM     14  C   UNL     1      -1.963   4.291  25.075  0.00  0.00    +0.123 C 
ATOM     15  C   UNL     1      -0.182   2.832  26.037  0.00  0.00    +0.230 C 
ATOM     28  H   UNL     1      -0.228   4.880  26.133  0.00  0.00    +0.149 HD
ENDROOT
BRANCH  10   7
ATOM      7  N   UNL     1       0.124   0.269  22.366  0.00  0.00    -0.305 NA
ATOM     29  H   UNL     1      -0.389  -0.120  21.573  0.00  0.00    +0.123 HD
BRANCH   7  18
ATOM     18  C   UNL     1       1.196  -0.650  22.726  0.00  0.00    +0.156 C 
BRANCH  18  20
ATOM      2  O   UNL     1       3.577  -0.712  23.220  0.00  0.00    -0.461 OA
ATOM     20  C   UNL     1       2.531   0.042  22.793  0.00  0.00    +0.119 A 
ATOM     21  C   UNL     1       2.942   1.322  22.505  0.00  0.00    +0.046 A 
ATOM     23  C   UNL     1       4.670   0.097  23.204  0.00  0.00    +0.131 A 
ATOM     24  C   UNL     1       4.331   1.358  22.772  0.00  0.00    +0.047 A 
BRANCH  23  27
ATOM     27  C   UNL     1       5.937  -0.513  23.632  0.00  0.00    +0.230 C 
BRANCH  27   4
ATOM      4  O   UNL     1       5.806  -1.050  24.951  0.00  0.00    -0.387 OA
ATOM     31  H   UNL     1       6.642  -1.503  25.156  0.00  0.00    +0.210 HD
ENDBRANCH  27   4
ENDBRANCH  23  27
ENDBRANCH  18  20
ENDBRANCH   7  18
ENDBRANCH  10   7
BRANCH  11  16
ATOM     16  C   UNL     1      -4.082   3.278  24.177  0.00  0.00    +0.029 C 
BRANCH  16  17
ATOM     17  C   UNL     1      -5.376   2.986  24.924  0.00  0.00    +0.097 C 
BRANCH  17  19
ATOM      3  O   UNL     1      -6.130   1.195  26.368  0.00  0.00    -0.276 OA
ATOM      8  N   UNL     1      -4.635   0.715  24.658  0.00  0.00    -0.313 N 
ATOM     19  C   UNL     1      -5.442   1.552  25.415  0.00  0.00    +0.213 C 
ATOM     30  H   UNL     1      -4.149   1.092  23.849  0.00  0.00    +0.149 HD
BRANCH   8  22
ATOM     22  C   UNL     1      -4.524  -0.699  24.927  0.00  0.00    +0.067 C 
ATOM     25  C   UNL     1      -4.207  -1.464  23.647  0.00  0.00    +0.027 C 
ATOM     26  C   UNL     1      -3.470  -0.953  25.997  0.00  0.00    +0.027 C 
ENDBRANCH   8  22
ENDBRANCH  17  19
ENDBRANCH  16  17
ENDBRANCH  11  16
TORSDOF 9
ENDMDL
MODEL 3
REMARK VINA RESULT:      -5.0      1.952      6.622
REMARK  Name = 45360622
REMARK  11 active torsions:
REMARK  status: ('A' for Active; 'I' for Inactive)
REMARK    1  A    between atoms: O_4  and  C_27
REMARK    2  A    between atoms: N_7  and  C_10
REMARK    3  A    between atoms: N_7  and  C_18
REMARK    4  A    between atoms: N_8  and  C_22
REMARK    5  A    between atoms: C_11  and  C_16
REMARK    6  A    between atoms: C_16  and  C_17
REMARK    7  A    between atoms: C_17  and  C_19
REMARK    8  A    between atoms: C_18  and  C_20
REMARK    9  A    between atoms: C_22  and  C_25
REMARK   10  A    between atoms: C_22  and  C_26
REMARK   11  A    between atoms: C_23  and  C_27
REMARK                            x       y       z     vdW  Elec       q    Type
REMARK                         _______ _______ _______ _____ _____    ______ ____
ROOT
ATOM      1  O   UNL     1      -3.662  -3.264  25.068  0.00  0.00    -0.274 OA
ATOM      5  N   UNL     1      -1.827  -0.111  25.202  0.00  0.00    -0.286 NA
ATOM      6  N   UNL     1      -1.728  -2.660  24.034  0.00  0.00    -0.313 N 
ATOM      9  C   UNL     1      -2.772  -1.123  25.692  0.00  0.00    +0.145 C 
ATOM     10  C   UNL     1      -3.858   0.942  25.023  0.00  0.00    +0.070 C 
ATOM     11  C   UNL     1      -0.539  -0.647  24.775  0.00  0.00    +0.075 C 
ATOM     12  C   UNL     1      -4.145  -0.438  25.615  0.00  0.00    +0.048 C 
ATOM     13  C   UNL     1      -2.556   0.740  24.263  0.00  0.00    +0.104 C 
ATOM     14  C   UNL     1      -0.721  -1.686  23.681  0.00  0.00    +0.123 C 
ATOM     15  C   UNL     1      -2.774  -2.423  24.893  0.00  0.00    +0.230 C 
ATOM     28  H   UNL     1      -1.731  -3.538  23.523  0.00  0.00    +0.149 HD
ENDROOT
BRANCH  10   7
ATOM      7  N   UNL     1      -4.942   1.443  24.193  0.00  0.00    -0.305 NA
ATOM     29  H   UNL     1      -4.656   1.412  23.214  0.00  0.00    +0.123 HD
BRANCH   7  18
ATOM     18  C   UNL     1      -5.275   2.819  24.541  0.00  0.00    +0.156 C 
BRANCH  18  20
ATOM      2  O   UNL     1      -3.080   3.867  24.493  0.00  0.00    -0.461 OA
ATOM     20  C   UNL     1      -4.144   3.507  25.256  0.00  0.00    +0.119 A 
ATOM     21  C   UNL     1      -3.943   3.868  26.568  0.00  0.00    +0.046 A 
ATOM     23  C   UNL     1      -2.188   4.465  25.326  0.00  0.00    +0.131 A 
ATOM     24  C   UNL     1      -2.672   4.490  26.613  0.00  0.00    +0.047 A 
BRANCH  23  27
ATOM     27  C   UNL     1      -0.942   4.943  24.711  0.00  0.00    +0.230 C 
BRANCH  27   4
ATOM      4  O   UNL     1      -0.196   3.842  24.186  0.00  0.00    -0.387 OA
ATOM     31  H   UNL     1       0.739   4.112  24.178  0.00  0.00    +0.210 HD
ENDBRANCH  27   4
ENDBRANCH  23  27
ENDBRANCH  18  20
ENDBRANCH   7  18
ENDBRANCH  10   7
BRANCH  11  16
ATOM     16  C   UNL     1       0.443   0.443  24.341  0.00  0.00    +0.029 C 
BRANCH  16  17
ATOM     17  C   UNL     1       0.563   0.503  22.824  0.00  0.00    +0.097 C 
BRANCH  17  19
ATOM      3  O   UNL     1       2.128  -0.376  21.200  0.00  0.00    -0.276 OA
ATOM      8  N   UNL     1       2.879   0.117  23.340  0.00  0.00    -0.313 N 
ATOM     19  C   UNL     1       1.922   0.031  22.340  0.00  0.00    +0.213 C 
ATOM     30  H   UNL     1       2.626   0.523  24.237  0.00  0.00    +0.149 HD
BRANCH   8  22
ATOM     22  C   UNL     1       4.253  -0.275  23.129  0.00  0.00    +0.067 C 
ATOM     25  C   UNL     1       5.200   0.823  23.597  0.00  0.00    +0.027 C 
ATOM     26  C   UNL     1       4.542  -1.593  23.836  0.00  0.00    +0.027 C 
ENDBRANCH   8  22
ENDBRANCH  17  19
ENDBRANCH  16  17
ENDBRANCH  11  16
TORSDOF 9
ENDMDL
MODEL 4
REMARK VINA RESULT:      -3.6      1.848      6.858
REMARK  Name = 45360622
REMARK  11 active torsions:
REMARK  status: ('A' for Active; 'I' for Inactive)
REMARK    1  A    between atoms: O_4  and  C_27
REMARK    2  A    between atoms: N_7  and  C_10
REMARK    3  A    between atoms: N_7  and  C_18
REMARK    4  A    between atoms: N_8  and  C_22
REMARK    5  A    between atoms: C_11  and  C_16
REMARK    6  A    between atoms: C_16  and  C_17
REMARK    7  A    between atoms: C_17  and  C_19
REMARK    8  A    between atoms: C_18  and  C_20
REMARK    9  A    between atoms: C_22  and  C_25
REMARK   10  A    between atoms: C_22  and  C_26
REMARK   11  A    between atoms: C_23  and  C_27
REMARK                            x       y       z     vdW  Elec       q    Type
REMARK                         _______ _______ _______ _____ _____    ______ ____
ROOT
ATOM      1  O   UNL     1      -1.936  -0.556  26.833  0.00  0.00    -0.274 OA
ATOM      5  N   UNL     1       0.028   1.332  24.403  0.00  0.00    -0.286 NA
ATOM      6  N   UNL     1      -1.113  -1.199  24.812  0.00  0.00    -0.313 N 
ATOM      9  C   UNL     1      -0.507   1.032  25.738  0.00  0.00    +0.145 C 
ATOM     10  C   UNL     1      -1.388   3.093  24.804  0.00  0.00    +0.070 C 
ATOM     11  C   UNL     1       0.590   0.179  23.708  0.00  0.00    +0.075 C 
ATOM     12  C   UNL     1      -1.439   2.212  26.053  0.00  0.00    +0.048 C 
ATOM     13  C   UNL     1      -0.979   2.125  23.703  0.00  0.00    +0.104 C 
ATOM     14  C   UNL     1      -0.448  -0.922  23.560  0.00  0.00    +0.123 C 
ATOM     15  C   UNL     1      -1.263  -0.291  25.832  0.00  0.00    +0.230 C 
ATOM     28  H   UNL     1      -1.604  -2.084  24.897  0.00  0.00    +0.149 HD
ENDROOT
BRANCH  10   7
ATOM      7  N   UNL     1      -2.642   3.779  24.538  0.00  0.00    -0.305 NA
ATOM     29  H   UNL     1      -3.168   3.864  25.408  0.00  0.00    +0.123 HD
BRANCH   7  18
ATOM     18  C   UNL     1      -3.448   3.042  23.573  0.00  0.00    +0.156 C 
BRANCH  18  20
ATOM      2  O   UNL     1      -3.765   0.631  23.663  0.00  0.00    -0.461 OA
ATOM     20  C   UNL     1      -4.102   1.836  24.192  0.00  0.00    +0.119 A 
ATOM     21  C   UNL     1      -5.003   1.679  25.219  0.00  0.00    +0.046 A 
ATOM     23  C   UNL     1      -4.459  -0.307  24.361  0.00  0.00    +0.131 A 
ATOM     24  C   UNL     1      -5.235   0.286  25.328  0.00  0.00    +0.047 A 
BRANCH  23  27
ATOM     27  C   UNL     1      -4.248  -1.705  23.958  0.00  0.00    +0.230 C 
BRANCH  27   4
ATOM      4  O   UNL     1      -3.708  -2.458  25.047  0.00  0.00    -0.387 OA
ATOM     31  H   UNL     1      -2.740  -2.421  24.964  0.00  0.00    +0.210 HD
ENDBRANCH  27   4
ENDBRANCH  23  27
ENDBRANCH  18  20
ENDBRANCH   7  18
ENDBRANCH  10   7
BRANCH  11  16
ATOM     16  C   UNL     1       1.203   0.543  22.354  0.00  0.00    +0.029 C 
BRANCH  16  17
ATOM     17  C   UNL     1       2.359  -0.384  22.006  0.00  0.00    +0.097 C 
BRANCH  17  19
ATOM      3  O   UNL     1       4.151   1.213  22.320  0.00  0.00    -0.276 OA
ATOM      8  N   UNL     1       4.264  -0.838  23.401  0.00  0.00    -0.313 N 
ATOM     19  C   UNL     1       3.677   0.109  22.574  0.00  0.00    +0.213 C 
ATOM     30  H   UNL     1       3.765  -1.701  23.599  0.00  0.00    +0.149 HD
BRANCH   8  22
ATOM     22  C   UNL     1       5.526  -0.608  24.063  0.00  0.00    +0.067 C 
ATOM     25  C   UNL     1       6.667  -0.609  23.052  0.00  0.00    +0.027 C 
ATOM     26  C   UNL     1       5.483   0.699  24.845  0.00  0.00    +0.027 C 
ENDBRANCH   8  22
ENDBRANCH  17  19
ENDBRANCH  16  17
ENDBRANCH  11  16
TORSDOF 9
ENDMDL
MODEL 5
REMARK VINA RESULT:      -2.7      1.785      5.674
REMARK  Name = 45360622
REMARK  11 active torsions:
REMARK  status: ('A' for Active; 'I' for Inactive)
REMARK    1  A    between atoms: O_4  and  C_27
REMARK    2  A    between atoms: N_7  and  C_10
REMARK    3  A    between atoms: N_7  and  C_18
REMARK    4  A    between atoms: N_8  and  C_22
REMARK    5  A    between atoms: C_11  and  C_16
REMARK    6  A    between atoms: C_16  and  C_17
REMARK    7  A    between atoms: C_17  and  C_19
REMARK    8  A    between atoms: C_18  and  C_20
REMARK    9  A    between atoms: C_22  and  C_25
REMARK   10  A    between atoms: C_22  and  C_26
REMARK   11  A    between atoms: C_23  and  C_27
REMARK                            x       y       z     vdW  Elec       q    Type
REMARK                         _______ _______ _______ _____ _____    ______ ____
ROOT
ATOM      1  O   UNL     1      -2.797   5.618  25.629  0.00  0.00    -0.274 OA
ATOM      5  N   UNL     1      -1.733   2.555  23.954  0.00  0.00    -0.286 NA
ATOM      6  N   UNL     1      -0.858   4.446  25.833  0.00  0.00    -0.313 N 
ATOM      9  C   UNL     1      -2.527   3.781  24.108  0.00  0.00    +0.145 C 
ATOM     10  C   UNL     1      -3.855   1.760  24.318  0.00  0.00    +0.070 C 
ATOM     11  C   UNL     1      -0.301   2.734  24.166  0.00  0.00    +0.075 C 
ATOM     12  C   UNL     1      -3.965   3.285  24.323  0.00  0.00    +0.048 C 
ATOM     13  C   UNL     1      -2.408   1.506  24.715  0.00  0.00    +0.104 C 
ATOM     14  C   UNL     1      -0.026   3.299  25.551  0.00  0.00    +0.123 C 
ATOM     15  C   UNL     1      -2.088   4.675  25.264  0.00  0.00    +0.230 C 
ATOM     28  H   UNL     1      -0.569   5.062  26.587  0.00  0.00    +0.149 HD
ENDROOT
BRANCH  10   7
ATOM      7  N   UNL     1      -4.819   1.115  25.195  0.00  0.00    -0.305 NA
ATOM     29  H   UNL     1      -4.380   0.931  26.098  0.00  0.00    +0.123 HD
BRANCH   7  18
ATOM     18  C   UNL     1      -5.279  -0.147  24.631  0.00  0.00    +0.156 C 
BRANCH  18  20
ATOM      2  O   UNL     1      -3.027  -0.863  25.209  0.00  0.00    -0.461 OA
ATOM     20  C   UNL     1      -4.167  -1.156  24.531  0.00  0.00    +0.119 A 
ATOM     21  C   UNL     1      -4.045  -2.360  23.877  0.00  0.00    +0.046 A 
ATOM     23  C   UNL     1      -2.167  -1.892  24.987  0.00  0.00    +0.131 A 
ATOM     24  C   UNL     1      -2.745  -2.838  24.173  0.00  0.00    +0.047 A 
BRANCH  23  27
ATOM     27  C   UNL     1      -0.850  -1.791  25.631  0.00  0.00    +0.230 C 
BRANCH  27   4
ATOM      4  O   UNL     1       0.149  -1.452  24.666  0.00  0.00    -0.387 OA
ATOM     31  H   UNL     1      -0.061  -0.558  24.344  0.00  0.00    +0.210 HD
ENDBRANCH  27   4
ENDBRANCH  23  27
ENDBRANCH  18  20
ENDBRANCH   7  18
ENDBRANCH  10   7
BRANCH  11  16
ATOM     16  C   UNL     1       0.500   1.453  23.926  0.00  0.00    +0.029 C 
BRANCH  16  17
ATOM     17  C   UNL     1       1.715   1.720  23.049  0.00  0.00    +0.097 C 
BRANCH  17  19
ATOM      3  O   UNL     1       2.172  -0.580  22.448  0.00  0.00    -0.276 OA
ATOM      8  N   UNL     1       3.889   0.726  23.305  0.00  0.00    -0.313 N 
ATOM     19  C   UNL     1       2.587   0.488  22.890  0.00  0.00    +0.213 C 
ATOM     30  H   UNL     1       4.153   1.662  23.600  0.00  0.00    +0.149 HD
BRANCH   8  22
ATOM     22  C   UNL     1       4.912  -0.291  23.254  0.00  0.00    +0.067 C 
ATOM     25  C   UNL     1       6.211   0.226  23.862  0.00  0.00    +0.027 C 
ATOM     26  C   UNL     1       4.437  -1.555  23.961  0.00  0.00    +0.027 C 
ENDBRANCH   8  22
ENDBRANCH  17  19
ENDBRANCH  16  17
ENDBRANCH  11  16
TORSDOF 9
ENDMDL
MODEL 6
REMARK VINA RESULT:      -2.5      1.865      6.022
REMARK  Name = 45360622
REMARK  11 active torsions:
REMARK  status: ('A' for Active; 'I' for Inactive)
REMARK    1  A    between atoms: O_4  and  C_27
REMARK    2  A    between atoms: N_7  and  C_10
REMARK    3  A    between atoms: N_7  and  C_18
REMARK    4  A    between atoms: N_8  and  C_22
REMARK    5  A    between atoms: C_11  and  C_16
REMARK    6  A    between atoms: C_16  and  C_17
REMARK    7  A    between atoms: C_17  and  C_19
REMARK    8  A    between atoms: C_18  and  C_20
REMARK    9  A    between atoms: C_22  and  C_25
REMARK   10  A    between atoms: C_22  and  C_26
REMARK   11  A    between atoms: C_23  and  C_27
REMARK                            x       y       z     vdW  Elec       q    Type
REMARK                         _______ _______ _______ _____ _____    ______ ____
ROOT
ATOM      1  O   UNL     1       2.056   0.282  22.720  0.00  0.00    -0.274 OA
ATOM      5  N   UNL     1      -1.069  -0.251  24.529  0.00  0.00    -0.286 NA
ATOM      6  N   UNL     1       1.411  -1.464  24.028  0.00  0.00    -0.313 N 
ATOM      9  C   UNL     1      -0.217   0.342  23.491  0.00  0.00    +0.145 C 
ATOM     10  C   UNL     1      -0.945   1.953  25.156  0.00  0.00    +0.070 C 
ATOM     11  C   UNL     1      -0.950  -1.700  24.648  0.00  0.00    +0.075 C 
ATOM     12  C   UNL     1      -0.137   1.831  23.863  0.00  0.00    +0.048 C 
ATOM     13  C   UNL     1      -0.895   0.548  25.739  0.00  0.00    +0.104 C 
ATOM     14  C   UNL     1       0.487  -2.104  24.935  0.00  0.00    +0.123 C 
ATOM     15  C   UNL     1       1.180  -0.264  23.398  0.00  0.00    +0.230 C 
ATOM     28  H   UNL     1       2.339  -1.868  23.941  0.00  0.00    +0.149 HD
ENDROOT
BRANCH  10   7
ATOM      7  N   UNL     1      -0.431   2.973  26.056  0.00  0.00    -0.305 NA
ATOM     29  H   UNL     1      -0.788   2.800  26.997  0.00  0.00    +0.123 HD
BRANCH   7  18
ATOM     18  C   UNL     1      -0.850   4.303  25.633  0.00  0.00    +0.156 C 
BRANCH  18  20
ATOM      2  O   UNL     1      -3.245   4.043  25.975  0.00  0.00    -0.461 OA
ATOM     20  C   UNL     1      -2.252   4.304  25.085  0.00  0.00    +0.119 A 
ATOM     21  C   UNL     1      -2.771   4.520  23.830  0.00  0.00    +0.046 A 
ATOM     23  C   UNL     1      -4.412   4.093  25.280  0.00  0.00    +0.131 A 
ATOM     24  C   UNL     1      -4.175   4.382  23.957  0.00  0.00    +0.047 A 
BRANCH  23  27
ATOM     27  C   UNL     1      -5.638   3.838  26.049  0.00  0.00    +0.230 C 
BRANCH  27   4
ATOM      4  O   UNL     1      -6.595   4.875  25.813  0.00  0.00    -0.387 OA
ATOM     31  H   UNL     1      -6.144   5.562  25.292  0.00  0.00    +0.210 HD
ENDBRANCH  27   4
ENDBRANCH  23  27
ENDBRANCH  18  20
ENDBRANCH   7  18
ENDBRANCH  10   7
BRANCH  11  16
ATOM     16  C   UNL     1      -1.905  -2.291  25.687  0.00  0.00    +0.029 C 
BRANCH  16  17
ATOM     17  C   UNL     1      -3.042  -3.054  25.020  0.00  0.00    +0.097 C 
BRANCH  17  19
ATOM      3  O   UNL     1      -4.676  -2.497  23.324  0.00  0.00    -0.276 OA
ATOM      8  N   UNL     1      -3.970  -0.848  24.797  0.00  0.00    -0.313 N 
ATOM     19  C   UNL     1      -3.988  -2.132  24.274  0.00  0.00    +0.213 C 
ATOM     30  H   UNL     1      -3.411  -0.657  25.624  0.00  0.00    +0.149 HD
BRANCH   8  22
ATOM     22  C   UNL     1      -4.784   0.216  24.258  0.00  0.00    +0.067 C 
ATOM     25  C   UNL     1      -5.515   0.949  25.376  0.00  0.00    +0.027 C 
ATOM     26  C   UNL     1      -3.928   1.173  23.438  0.00  0.00    +0.027 C 
ENDBRANCH   8  22
ENDBRANCH  17  19
ENDBRANCH  16  17
ENDBRANCH  11  16
TORSDOF 9
ENDMDL
MODEL 7
REMARK VINA RESULT:      -2.0      2.040      7.013
REMARK  Name = 45360622
REMARK  11 active torsions:
REMARK  status: ('A' for Active; 'I' for Inactive)
REMARK    1  A    between atoms: O_4  and  C_27
REMARK    2  A    between atoms: N_7  and  C_10
REMARK    3  A    between atoms: N_7  and  C_18
REMARK    4  A    between atoms: N_8  and  C_22
REMARK    5  A    between atoms: C_11  and  C_16
REMARK    6  A    between atoms: C_16  and  C_17
REMARK    7  A    between atoms: C_17  and  C_19
REMARK    8  A    between atoms: C_18  and  C_20
REMARK    9  A    between atoms: C_22  and  C_25
REMARK   10  A    between atoms: C_22  and  C_26
REMARK   11  A    between atoms: C_23  and  C_27
REMARK                            x       y       z     vdW  Elec       q    Type
REMARK                         _______ _______ _______ _____ _____    ______ ____
ROOT
ATOM      1  O   UNL     1      -2.964  -0.398  26.289  0.00  0.00    -0.274 OA
ATOM      5  N   UNL     1       0.062   0.862  24.682  0.00  0.00    -0.286 NA
ATOM      6  N   UNL     1      -2.209  -0.703  24.165  0.00  0.00    -0.313 N 
ATOM      9  C   UNL     1      -0.778   0.480  25.825  0.00  0.00    +0.145 C 
ATOM     10  C   UNL     1      -0.375   2.871  25.702  0.00  0.00    +0.070 C 
ATOM     11  C   UNL     1       0.112  -0.130  23.615  0.00  0.00    +0.075 C 
ATOM     12  C   UNL     1      -1.066   1.803  26.551  0.00  0.00    +0.048 C 
ATOM     13  C   UNL     1      -0.296   2.232  24.323  0.00  0.00    +0.104 C 
ATOM     14  C   UNL     1      -1.282  -0.431  23.090  0.00  0.00    +0.123 C 
ATOM     15  C   UNL     1      -2.080  -0.219  25.445  0.00  0.00    +0.230 C 
ATOM     28  H   UNL     1      -3.072  -1.184  23.931  0.00  0.00    +0.149 HD
ENDROOT
BRANCH  10   7
ATOM      7  N   UNL     1      -1.074   4.146  25.711  0.00  0.00    -0.305 NA
ATOM     29  H   UNL     1      -1.708   4.175  26.510  0.00  0.00    +0.123 HD
BRANCH   7  18
ATOM     18  C   UNL     1      -1.849   4.328  24.490  0.00  0.00    +0.156 C 
BRANCH  18  20
ATOM      2  O   UNL     1      -3.807   3.432  25.623  0.00  0.00    -0.461 OA
ATOM     20  C   UNL     1      -3.083   3.466  24.475  0.00  0.00    +0.119 A 
ATOM     21  C   UNL     1      -3.663   2.671  23.513  0.00  0.00    +0.046 A 
ATOM     23  C   UNL     1      -4.863   2.607  25.393  0.00  0.00    +0.131 A 
ATOM     24  C   UNL     1      -4.819   2.113  24.110  0.00  0.00    +0.047 A 
BRANCH  23  27
ATOM     27  C   UNL     1      -5.796   2.417  26.512  0.00  0.00    +0.230 C 
BRANCH  27   4
ATOM      4  O   UNL     1      -6.889   1.588  26.110  0.00  0.00    -0.387 OA
ATOM     31  H   UNL     1      -7.600   2.181  25.813  0.00  0.00    +0.210 HD
ENDBRANCH  27   4
ENDBRANCH  23  27
ENDBRANCH  18  20
ENDBRANCH   7  18
ENDBRANCH  10   7
BRANCH  11  16
ATOM     16  C   UNL     1       1.053   0.269  22.476  0.00  0.00    +0.029 C 
BRANCH  16  17
ATOM     17  C   UNL     1       2.224  -0.698  22.364  0.00  0.00    +0.097 C 
BRANCH  17  19
ATOM      3  O   UNL     1       3.839   1.094  22.565  0.00  0.00    -0.276 OA
ATOM      8  N   UNL     1       4.314  -0.967  23.521  0.00  0.00    -0.313 N 
ATOM     19  C   UNL     1       3.530  -0.069  22.812  0.00  0.00    +0.213 C 
ATOM     30  H   UNL     1       3.947  -1.892  23.726  0.00  0.00    +0.149 HD
BRANCH   8  22
ATOM     22  C   UNL     1       5.607  -0.609  24.053  0.00  0.00    +0.067 C 
ATOM     25  C   UNL     1       6.632  -0.483  22.931  0.00  0.00    +0.027 C 
ATOM     26  C   UNL     1       5.510   0.681  24.858  0.00  0.00    +0.027 C 
ENDBRANCH   8  22
ENDBRANCH  17  19
ENDBRANCH  16  17
ENDBRANCH  11  16
TORSDOF 9
ENDMDL
