MODEL 1
REMARK VINA RESULT:      -6.1      0.000      0.000
REMARK  Name = 75536695
REMARK  9 active torsions:
REMARK  status: ('A' for Active; 'I' for Inactive)
REMARK    1  A    between atoms: S_1  and  N_7
REMARK    2  A    between atoms: S_1  and  C_15
REMARK    3  A    between atoms: O_3  and  C_9
REMARK    4  A    between atoms: N_6  and  C_8
REMARK    5  A    between atoms: N_6  and  C_13
REMARK    6  A    between atoms: N_6  and  C_14
REMARK    7  A    between atoms: N_7  and  C_12
REMARK    8  A    between atoms: C_10  and  C_12
REMARK    9  A    between atoms: C_20  and  C_21
REMARK                            x       y       z     vdW  Elec       q    Type
REMARK                         _______ _______ _______ _____ _____    ______ ____
ROOT
ATOM      7  N   UNL     1      -3.062   3.883  25.924  0.00  0.00    -0.187 NA
ATOM     22  H   UNL     1      -2.969   3.313  26.774  0.00  0.00    +0.148 HD
ENDROOT
BRANCH   7   1
ATOM      1  S   UNL     1      -4.324   3.524  24.842  0.00  0.00    +0.058 S 
ATOM      4  O   UNL     1      -4.059   4.160  23.565  0.00  0.00    -0.153 OA
ATOM      5  O   UNL     1      -5.594   3.736  25.512  0.00  0.00    -0.153 OA
BRANCH   1  15
ATOM     15  C   UNL     1      -4.136   1.779  24.632  0.00  0.00    +0.105 A 
ATOM     16  C   UNL     1      -3.581   1.274  23.456  0.00  0.00    +0.029 A 
ATOM     17  C   UNL     1      -4.546   0.907  25.641  0.00  0.00    +0.029 A 
ATOM     18  C   UNL     1      -3.435  -0.103  23.290  0.00  0.00    +0.005 A 
ATOM     19  C   UNL     1      -4.400  -0.470  25.474  0.00  0.00    +0.005 A 
ATOM     20  C   UNL     1      -3.844  -0.976  24.299  0.00  0.00    -0.050 A 
ATOM     21  C   UNL     1      -3.689  -2.447  24.120  0.00  0.00    +0.044 C 
ENDBRANCH   1  15
ENDBRANCH   7   1
BRANCH   7  12
ATOM     12  C   UNL     1      -1.817   4.502  25.429  0.00  0.00    +0.140 C 
BRANCH  12  10
ATOM      2  O   UNL     1      -1.006   2.449  26.415  0.00  0.00    -0.371 OA
ATOM      8  C   UNL     1       0.187   1.491  24.597  0.00  0.00    +0.113 C 
ATOM      9  C   UNL     1      -0.457   2.787  24.139  0.00  0.00    +0.164 C 
ATOM     10  C   UNL     1      -0.689   3.486  25.471  0.00  0.00    +0.164 C 
ATOM     11  C   UNL     1      -0.615   1.184  25.852  0.00  0.00    +0.181 C 
BRANCH   8   6
ATOM      6  N   UNL     1       0.122   0.426  23.610  0.00  0.00    -0.301 NA
ATOM     13  C   UNL     1      -0.249  -0.845  24.238  0.00  0.00    +0.105 C 
ATOM     14  C   UNL     1       1.402   0.287  22.910  0.00  0.00    +0.105 C 
ENDBRANCH   8   6
BRANCH   9   3
ATOM      3  O   UNL     1       0.381   3.542  23.286  0.00  0.00    -0.388 OA
ATOM     23  H   UNL     1       0.893   2.923  22.737  0.00  0.00    +0.210 HD
ENDBRANCH   9   3
ENDBRANCH  12  10
ENDBRANCH   7  12
TORSDOF 6
ENDMDL
MODEL 2
REMARK VINA RESULT:      -5.8      1.483      1.935
REMARK  Name = 75536695
REMARK  9 active torsions:
REMARK  status: ('A' for Active; 'I' for Inactive)
REMARK    1  A    between atoms: S_1  and  N_7
REMARK    2  A    between atoms: S_1  and  C_15
REMARK    3  A    between atoms: O_3  and  C_9
REMARK    4  A    between atoms: N_6  and  C_8
REMARK    5  A    between atoms: N_6  and  C_13
REMARK    6  A    between atoms: N_6  and  C_14
REMARK    7  A    between atoms: N_7  and  C_12
REMARK    8  A    between atoms: C_10  and  C_12
REMARK    9  A    between atoms: C_20  and  C_21
REMARK                            x       y       z     vdW  Elec       q    Type
REMARK                         _______ _______ _______ _____ _____    ______ ____
ROOT
ATOM      7  N   UNL     1      -4.355   3.074  24.563  0.00  0.00    -0.187 NA
ATOM     22  H   UNL     1      -4.642   3.668  23.775  0.00  0.00    +0.148 HD
ENDROOT
BRANCH   7   1
ATOM      1  S   UNL     1      -5.509   2.033  25.254  0.00  0.00    +0.058 S 
ATOM      4  O   UNL     1      -6.703   2.023  24.430  0.00  0.00    -0.153 OA
ATOM      5  O   UNL     1      -5.605   2.311  26.675  0.00  0.00    -0.153 OA
BRANCH   1  15
ATOM     15  C   UNL     1      -4.721   0.459  25.090  0.00  0.00    +0.105 A 
ATOM     16  C   UNL     1      -4.023  -0.088  26.167  0.00  0.00    +0.029 A 
ATOM     17  C   UNL     1      -4.793  -0.235  23.882  0.00  0.00    +0.029 A 
ATOM     18  C   UNL     1      -3.399  -1.328  26.036  0.00  0.00    +0.005 A 
ATOM     19  C   UNL     1      -4.169  -1.475  23.751  0.00  0.00    +0.005 A 
ATOM     20  C   UNL     1      -3.472  -2.022  24.829  0.00  0.00    -0.050 A 
ATOM     21  C   UNL     1      -2.804  -3.348  24.689  0.00  0.00    +0.044 C 
ENDBRANCH   1  15
ENDBRANCH   7   1
BRANCH   7  12
ATOM     12  C   UNL     1      -3.240   3.589  25.381  0.00  0.00    +0.140 C 
BRANCH  12  10
ATOM      2  O   UNL     1      -0.888   3.118  25.680  0.00  0.00    -0.371 OA
ATOM      8  C   UNL     1      -0.471   1.630  23.876  0.00  0.00    +0.113 C 
ATOM      9  C   UNL     1      -1.944   1.997  23.886  0.00  0.00    +0.164 C 
ATOM     10  C   UNL     1      -1.920   3.286  24.695  0.00  0.00    +0.164 C 
ATOM     11  C   UNL     1      -0.057   2.010  25.288  0.00  0.00    +0.181 C 
BRANCH   8   6
ATOM      6  N   UNL     1      -0.219   0.232  23.570  0.00  0.00    -0.301 NA
ATOM     13  C   UNL     1      -0.271  -0.586  24.786  0.00  0.00    +0.105 C 
ATOM     14  C   UNL     1       1.079   0.069  22.909  0.00  0.00    +0.105 C 
ENDBRANCH   8   6
BRANCH   9   3
ATOM      3  O   UNL     1      -2.465   2.198  22.587  0.00  0.00    -0.388 OA
ATOM     23  H   UNL     1      -3.354   2.585  22.671  0.00  0.00    +0.210 HD
ENDBRANCH   9   3
ENDBRANCH  12  10
ENDBRANCH   7  12
TORSDOF 6
ENDMDL
MODEL 3
REMARK VINA RESULT:      -5.1      2.074      4.562
REMARK  Name = 75536695
REMARK  9 active torsions:
REMARK  status: ('A' for Active; 'I' for Inactive)
REMARK    1  A    between atoms: S_1  and  N_7
REMARK    2  A    between atoms: S_1  and  C_15
REMARK    3  A    between atoms: O_3  and  C_9
REMARK    4  A    between atoms: N_6  and  C_8
REMARK    5  A    between atoms: N_6  and  C_13
REMARK    6  A    between atoms: N_6  and  C_14
REMARK    7  A    between atoms: N_7  and  C_12
REMARK    8  A    between atoms: C_10  and  C_12
REMARK    9  A    between atoms: C_20  and  C_21
REMARK                            x       y       z     vdW  Elec       q    Type
REMARK                         _______ _______ _______ _____ _____    ______ ____
ROOT
ATOM      7  N   UNL     1      -0.770   3.169  24.118  0.00  0.00    -0.187 NA
ATOM     22  H   UNL     1      -1.409   2.934  23.349  0.00  0.00    +0.148 HD
ENDROOT
BRANCH   7   1
ATOM      1  S   UNL     1       0.154   1.921  24.812  0.00  0.00    +0.058 S 
ATOM      4  O   UNL     1       0.376   2.210  26.216  0.00  0.00    -0.153 OA
ATOM      5  O   UNL     1       1.278   1.626  23.942  0.00  0.00    -0.153 OA
BRANCH   1  15
ATOM     15  C   UNL     1      -0.953   0.548  24.707  0.00  0.00    +0.105 A 
ATOM     16  C   UNL     1      -0.512  -0.733  25.042  0.00  0.00    +0.029 A 
ATOM     17  C   UNL     1      -2.269   0.744  24.285  0.00  0.00    +0.029 A 
ATOM     18  C   UNL     1      -1.385  -1.816  24.955  0.00  0.00    +0.005 A 
ATOM     19  C   UNL     1      -3.143  -0.340  24.200  0.00  0.00    +0.005 A 
ATOM     20  C   UNL     1      -2.701  -1.621  24.535  0.00  0.00    -0.050 A 
ATOM     21  C   UNL     1      -3.635  -2.779  24.443  0.00  0.00    +0.044 C 
ENDBRANCH   1  15
ENDBRANCH   7   1
BRANCH   7  12
ATOM     12  C   UNL     1      -1.143   4.348  24.923  0.00  0.00    +0.140 C 
BRANCH  12  10
ATOM      2  O   UNL     1      -3.225   4.221  23.701  0.00  0.00    -0.371 OA
ATOM      8  C   UNL     1      -4.687   3.336  25.351  0.00  0.00    +0.113 C 
ATOM      9  C   UNL     1      -3.287   3.433  25.930  0.00  0.00    +0.164 C 
ATOM     10  C   UNL     1      -2.655   4.458  24.999  0.00  0.00    +0.164 C 
ATOM     11  C   UNL     1      -4.401   3.408  23.860  0.00  0.00    +0.181 C 
BRANCH   8   6
ATOM      6  N   UNL     1      -5.394   2.125  25.733  0.00  0.00    -0.301 NA
ATOM     13  C   UNL     1      -6.136   1.573  24.596  0.00  0.00    +0.105 C 
ATOM     14  C   UNL     1      -6.307   2.386  26.850  0.00  0.00    +0.105 C 
ENDBRANCH   8   6
BRANCH   9   3
ATOM      3  O   UNL     1      -3.282   3.867  27.276  0.00  0.00    -0.388 OA
ATOM     23  H   UNL     1      -4.204   3.941  27.576  0.00  0.00    +0.210 HD
ENDBRANCH   9   3
ENDBRANCH  12  10
ENDBRANCH   7  12
TORSDOF 6
ENDMDL
MODEL 4
REMARK VINA RESULT:      -4.9      2.488      4.240
REMARK  Name = 75536695
REMARK  9 active torsions:
REMARK  status: ('A' for Active; 'I' for Inactive)
REMARK    1  A    between atoms: S_1  and  N_7
REMARK    2  A    between atoms: S_1  and  C_15
REMARK    3  A    between atoms: O_3  and  C_9
REMARK    4  A    between atoms: N_6  and  C_8
REMARK    5  A    between atoms: N_6  and  C_13
REMARK    6  A    between atoms: N_6  and  C_14
REMARK    7  A    between atoms: N_7  and  C_12
REMARK    8  A    between atoms: C_10  and  C_12
REMARK    9  A    between atoms: C_20  and  C_21
REMARK                            x       y       z     vdW  Elec       q    Type
REMARK                         _______ _______ _______ _____ _____    ______ ____
ROOT
ATOM      7  N   UNL     1      -2.020  -0.742  24.225  0.00  0.00    -0.187 NA
ATOM     22  H   UNL     1      -1.856  -0.304  23.310  0.00  0.00    +0.148 HD
ENDROOT
BRANCH   7   1
ATOM      1  S   UNL     1      -3.619  -1.114  24.669  0.00  0.00    +0.058 S 
ATOM      4  O   UNL     1      -3.619  -1.771  25.962  0.00  0.00    -0.153 OA
ATOM      5  O   UNL     1      -4.292  -1.728  23.539  0.00  0.00    -0.153 OA
BRANCH   1  15
ATOM     15  C   UNL     1      -4.321   0.495  24.875  0.00  0.00    +0.105 A 
ATOM     16  C   UNL     1      -3.925   1.541  24.041  0.00  0.00    +0.029 A 
ATOM     17  C   UNL     1      -5.269   0.720  25.874  0.00  0.00    +0.029 A 
ATOM     18  C   UNL     1      -4.476   2.811  24.206  0.00  0.00    +0.005 A 
ATOM     19  C   UNL     1      -5.821   1.990  26.038  0.00  0.00    +0.005 A 
ATOM     20  C   UNL     1      -5.424   3.036  25.204  0.00  0.00    -0.050 A 
ATOM     21  C   UNL     1      -6.014   4.394  25.380  0.00  0.00    +0.044 C 
ENDBRANCH   1  15
ENDBRANCH   7   1
BRANCH   7  12
ATOM     12  C   UNL     1      -1.012  -0.454  25.263  0.00  0.00    +0.140 C 
BRANCH  12  10
ATOM      2  O   UNL     1      -0.675   1.281  23.613  0.00  0.00    -0.371 OA
ATOM      8  C   UNL     1      -0.256   3.169  24.991  0.00  0.00    +0.113 C 
ATOM      9  C   UNL     1      -0.555   1.969  25.872  0.00  0.00    +0.164 C 
ATOM     10  C   UNL     1      -0.268   0.823  24.913  0.00  0.00    +0.164 C 
ATOM     11  C   UNL     1      -0.822   2.711  23.657  0.00  0.00    +0.181 C 
BRANCH   8   6
ATOM      6  N   UNL     1      -0.855   4.405  25.465  0.00  0.00    -0.301 NA
ATOM     13  C   UNL     1      -2.216   4.171  25.956  0.00  0.00    +0.105 C 
ATOM     14  C   UNL     1      -0.870   5.417  24.404  0.00  0.00    +0.105 C 
ENDBRANCH   8   6
BRANCH   9   3
ATOM      3  O   UNL     1       0.269   1.916  27.020  0.00  0.00    -0.388 OA
ATOM     23  H   UNL     1       0.964   1.254  26.866  0.00  0.00    +0.210 HD
ENDBRANCH   9   3
ENDBRANCH  12  10
ENDBRANCH   7  12
TORSDOF 6
ENDMDL
MODEL 5
REMARK VINA RESULT:      -4.4      2.498      4.724
REMARK  Name = 75536695
REMARK  9 active torsions:
REMARK  status: ('A' for Active; 'I' for Inactive)
REMARK    1  A    between atoms: S_1  and  N_7
REMARK    2  A    between atoms: S_1  and  C_15
REMARK    3  A    between atoms: O_3  and  C_9
REMARK    4  A    between atoms: N_6  and  C_8
REMARK    5  A    between atoms: N_6  and  C_13
REMARK    6  A    between atoms: N_6  and  C_14
REMARK    7  A    between atoms: N_7  and  C_12
REMARK    8  A    between atoms: C_10  and  C_12
REMARK    9  A    between atoms: C_20  and  C_21
REMARK                            x       y       z     vdW  Elec       q    Type
REMARK                         _______ _______ _______ _____ _____    ______ ____
ROOT
ATOM      7  N   UNL     1      -0.320   0.972  23.713  0.00  0.00    -0.187 NA
ATOM     22  H   UNL     1      -0.525   0.954  22.706  0.00  0.00    +0.148 HD
ENDROOT
BRANCH   7   1
ATOM      1  S   UNL     1      -0.156   2.483  24.478  0.00  0.00    +0.058 S 
ATOM      4  O   UNL     1       0.375   3.446  23.533  0.00  0.00    -0.153 OA
ATOM      5  O   UNL     1       0.488   2.292  25.764  0.00  0.00    -0.153 OA
BRANCH   1  15
ATOM     15  C   UNL     1      -1.840   2.909  24.803  0.00  0.00    +0.105 A 
ATOM     16  C   UNL     1      -2.159   3.703  25.905  0.00  0.00    +0.029 A 
ATOM     17  C   UNL     1      -2.852   2.448  23.960  0.00  0.00    +0.029 A 
ATOM     18  C   UNL     1      -3.488   4.036  26.163  0.00  0.00    +0.005 A 
ATOM     19  C   UNL     1      -4.181   2.782  24.218  0.00  0.00    +0.005 A 
ATOM     20  C   UNL     1      -4.500   3.577  25.320  0.00  0.00    -0.050 A 
ATOM     21  C   UNL     1      -5.920   3.933  25.596  0.00  0.00    +0.044 C 
ENDBRANCH   1  15
ENDBRANCH   7   1
BRANCH   7  12
ATOM     12  C   UNL     1       0.392  -0.206  24.243  0.00  0.00    +0.140 C 
BRANCH  12  10
ATOM      2  O   UNL     1      -1.223  -0.254  26.042  0.00  0.00    -0.371 OA
ATOM      8  C   UNL     1      -2.755  -1.892  25.259  0.00  0.00    +0.113 C 
ATOM      9  C   UNL     1      -1.678  -1.679  24.210  0.00  0.00    +0.164 C 
ATOM     10  C   UNL     1      -0.569  -1.062  25.050  0.00  0.00    +0.164 C 
ATOM     11  C   UNL     1      -2.609  -0.634  26.098  0.00  0.00    +0.181 C 
BRANCH   8   6
ATOM      6  N   UNL     1      -4.088  -2.050  24.702  0.00  0.00    -0.301 NA
ATOM     13  C   UNL     1      -4.140  -3.196  23.791  0.00  0.00    +0.105 C 
ATOM     14  C   UNL     1      -4.509  -0.832  24.004  0.00  0.00    +0.105 C 
ENDBRANCH   8   6
BRANCH   9   3
ATOM      3  O   UNL     1      -1.267  -2.885  23.596  0.00  0.00    -0.388 OA
ATOM     23  H   UNL     1      -1.139  -3.553  24.291  0.00  0.00    +0.210 HD
ENDBRANCH   9   3
ENDBRANCH  12  10
ENDBRANCH   7  12
TORSDOF 6
ENDMDL
MODEL 6
REMARK VINA RESULT:      -4.3      0.787      1.502
REMARK  Name = 75536695
REMARK  9 active torsions:
REMARK  status: ('A' for Active; 'I' for Inactive)
REMARK    1  A    between atoms: S_1  and  N_7
REMARK    2  A    between atoms: S_1  and  C_15
REMARK    3  A    between atoms: O_3  and  C_9
REMARK    4  A    between atoms: N_6  and  C_8
REMARK    5  A    between atoms: N_6  and  C_13
REMARK    6  A    between atoms: N_6  and  C_14
REMARK    7  A    between atoms: N_7  and  C_12
REMARK    8  A    between atoms: C_10  and  C_12
REMARK    9  A    between atoms: C_20  and  C_21
REMARK                            x       y       z     vdW  Elec       q    Type
REMARK                         _______ _______ _______ _____ _____    ______ ____
ROOT
ATOM      7  N   UNL     1      -2.548   3.966  25.550  0.00  0.00    -0.187 NA
ATOM     22  H   UNL     1      -2.536   3.689  26.539  0.00  0.00    +0.148 HD
ENDROOT
BRANCH   7   1
ATOM      1  S   UNL     1      -3.992   3.768  24.672  0.00  0.00    +0.058 S 
ATOM      4  O   UNL     1      -3.850   4.383  23.366  0.00  0.00    -0.153 OA
ATOM      5  O   UNL     1      -5.114   4.118  25.524  0.00  0.00    -0.153 OA
BRANCH   1  15
ATOM     15  C   UNL     1      -4.042   2.015  24.448  0.00  0.00    +0.105 A 
ATOM     16  C   UNL     1      -4.708   1.212  25.374  0.00  0.00    +0.029 A 
ATOM     17  C   UNL     1      -3.413   1.435  23.346  0.00  0.00    +0.029 A 
ATOM     18  C   UNL     1      -4.745  -0.171  25.199  0.00  0.00    +0.005 A 
ATOM     19  C   UNL     1      -3.451   0.052  23.171  0.00  0.00    +0.005 A 
ATOM     20  C   UNL     1      -4.117  -0.752  24.097  0.00  0.00    -0.050 A 
ATOM     21  C   UNL     1      -4.156  -2.230  23.909  0.00  0.00    +0.044 C 
ENDBRANCH   1  15
ENDBRANCH   7   1
BRANCH   7  12
ATOM     12  C   UNL     1      -1.248   3.916  24.854  0.00  0.00    +0.140 C 
BRANCH  12  10
ATOM      2  O   UNL     1      -1.286   1.875  26.150  0.00  0.00    -0.371 OA
ATOM      8  C   UNL     1       0.253   0.524  24.947  0.00  0.00    +0.113 C 
ATOM      9  C   UNL     1       0.098   1.854  24.232  0.00  0.00    +0.164 C 
ATOM     10  C   UNL     1      -0.446   2.727  25.353  0.00  0.00    +0.164 C 
ATOM     11  C   UNL     1      -0.989   0.507  25.822  0.00  0.00    +0.181 C 
BRANCH   8   6
ATOM      6  N   UNL     1       0.328  -0.616  24.049  0.00  0.00    -0.301 NA
ATOM     13  C   UNL     1       0.138  -0.197  22.657  0.00  0.00    +0.105 C 
ATOM     14  C   UNL     1      -0.668  -1.630  24.410  0.00  0.00    +0.105 C 
ENDBRANCH   8   6
BRANCH   9   3
ATOM      3  O   UNL     1       1.323   2.347  23.725  0.00  0.00    -0.388 OA
ATOM     23  H   UNL     1       1.283   3.319  23.725  0.00  0.00    +0.210 HD
ENDBRANCH   9   3
ENDBRANCH  12  10
ENDBRANCH   7  12
TORSDOF 6
ENDMDL
MODEL 7
REMARK VINA RESULT:      -4.3      2.225      3.779
REMARK  Name = 75536695
REMARK  9 active torsions:
REMARK  status: ('A' for Active; 'I' for Inactive)
REMARK    1  A    between atoms: S_1  and  N_7
REMARK    2  A    between atoms: S_1  and  C_15
REMARK    3  A    between atoms: O_3  and  C_9
REMARK    4  A    between atoms: N_6  and  C_8
REMARK    5  A    between atoms: N_6  and  C_13
REMARK    6  A    between atoms: N_6  and  C_14
REMARK    7  A    between atoms: N_7  and  C_12
REMARK    8  A    between atoms: C_10  and  C_12
REMARK    9  A    between atoms: C_20  and  C_21
REMARK                            x       y       z     vdW  Elec       q    Type
REMARK                         _______ _______ _______ _____ _____    ______ ____
ROOT
ATOM      7  N   UNL     1      -0.129   2.915  25.366  0.00  0.00    -0.187 NA
ATOM     22  H   UNL     1      -0.267   2.776  26.374  0.00  0.00    +0.148 HD
ENDROOT
BRANCH   7   1
ATOM      1  S   UNL     1      -1.028   4.131  24.586  0.00  0.00    +0.058 S 
ATOM      4  O   UNL     1      -0.667   4.170  23.181  0.00  0.00    -0.153 OA
ATOM      5  O   UNL     1      -0.979   5.340  25.386  0.00  0.00    -0.153 OA
BRANCH   1  15
ATOM     15  C   UNL     1      -2.674   3.499  24.708  0.00  0.00    +0.105 A 
ATOM     16  C   UNL     1      -3.437   3.753  25.849  0.00  0.00    +0.029 A 
ATOM     17  C   UNL     1      -3.210   2.742  23.666  0.00  0.00    +0.029 A 
ATOM     18  C   UNL     1      -4.734   3.252  25.946  0.00  0.00    +0.005 A 
ATOM     19  C   UNL     1      -4.508   2.241  23.764  0.00  0.00    +0.005 A 
ATOM     20  C   UNL     1      -5.271   2.496  24.904  0.00  0.00    -0.050 A 
ATOM     21  C   UNL     1      -6.658   1.960  25.009  0.00  0.00    +0.044 C 
ENDBRANCH   1  15
ENDBRANCH   7   1
BRANCH   7  12
ATOM     12  C   UNL     1       0.321   1.730  24.611  0.00  0.00    +0.140 C 
BRANCH  12  10
ATOM      2  O   UNL     1      -1.409   0.846  26.050  0.00  0.00    -0.371 OA
ATOM      8  C   UNL     1      -1.942  -1.191  24.952  0.00  0.00    +0.113 C 
ATOM      9  C   UNL     1      -0.892  -0.452  24.143  0.00  0.00    +0.164 C 
ATOM     10  C   UNL     1      -0.312   0.480  25.197  0.00  0.00    +0.164 C 
ATOM     11  C   UNL     1      -2.491  -0.074  25.823  0.00  0.00    +0.181 C 
BRANCH   8   6
ATOM      6  N   UNL     1      -2.964  -1.828  24.139  0.00  0.00    -0.301 NA
ATOM     13  C   UNL     1      -4.201  -1.041  24.144  0.00  0.00    +0.105 C 
ATOM     14  C   UNL     1      -3.232  -3.190  24.611  0.00  0.00    +0.105 C 
ENDBRANCH   8   6
BRANCH   9   3
ATOM      3  O   UNL     1       0.090  -1.316  23.604  0.00  0.00    -0.388 OA
ATOM     23  H   UNL     1      -0.236  -1.656  22.754  0.00  0.00    +0.210 HD
ENDBRANCH   9   3
ENDBRANCH  12  10
ENDBRANCH   7  12
TORSDOF 6
ENDMDL
MODEL 8
REMARK VINA RESULT:      -4.2      2.476      4.537
REMARK  Name = 75536695
REMARK  9 active torsions:
REMARK  status: ('A' for Active; 'I' for Inactive)
REMARK    1  A    between atoms: S_1  and  N_7
REMARK    2  A    between atoms: S_1  and  C_15
REMARK    3  A    between atoms: O_3  and  C_9
REMARK    4  A    between atoms: N_6  and  C_8
REMARK    5  A    between atoms: N_6  and  C_13
REMARK    6  A    between atoms: N_6  and  C_14
REMARK    7  A    between atoms: N_7  and  C_12
REMARK    8  A    between atoms: C_10  and  C_12
REMARK    9  A    between atoms: C_20  and  C_21
REMARK                            x       y       z     vdW  Elec       q    Type
REMARK                         _______ _______ _______ _____ _____    ______ ____
ROOT
ATOM      7  N   UNL     1      -4.292   0.314  25.565  0.00  0.00    -0.187 NA
ATOM     22  H   UNL     1      -3.648   0.845  26.164  0.00  0.00    +0.148 HD
ENDROOT
BRANCH   7   1
ATOM      1  S   UNL     1      -3.760  -1.167  24.919  0.00  0.00    +0.058 S 
ATOM      4  O   UNL     1      -4.545  -1.488  23.742  0.00  0.00    -0.153 OA
ATOM      5  O   UNL     1      -3.631  -2.132  25.994  0.00  0.00    -0.153 OA
BRANCH   1  15
ATOM     15  C   UNL     1      -2.123  -0.764  24.389  0.00  0.00    +0.105 A 
ATOM     16  C   UNL     1      -1.880   0.443  23.732  0.00  0.00    +0.029 A 
ATOM     17  C   UNL     1      -1.074  -1.653  24.624  0.00  0.00    +0.029 A 
ATOM     18  C   UNL     1      -0.589   0.760  23.311  0.00  0.00    +0.005 A 
ATOM     19  C   UNL     1       0.217  -1.335  24.204  0.00  0.00    +0.005 A 
ATOM     20  C   UNL     1       0.460  -0.128  23.547  0.00  0.00    -0.050 A 
ATOM     21  C   UNL     1       1.840   0.211  23.097  0.00  0.00    +0.044 C 
ENDBRANCH   1  15
ENDBRANCH   7   1
BRANCH   7  12
ATOM     12  C   UNL     1      -5.308   1.110  24.850  0.00  0.00    +0.140 C 
BRANCH  12  10
ATOM      2  O   UNL     1      -4.748   3.063  26.161  0.00  0.00    -0.371 OA
ATOM      8  C   UNL     1      -3.097   4.091  24.796  0.00  0.00    +0.113 C 
ATOM      9  C   UNL     1      -3.535   2.789  24.149  0.00  0.00    +0.164 C 
ATOM     10  C   UNL     1      -4.884   2.568  24.819  0.00  0.00    +0.164 C 
ATOM     11  C   UNL     1      -3.573   3.890  26.226  0.00  0.00    +0.181 C 
BRANCH   8   6
ATOM      6  N   UNL     1      -1.668   4.336  24.704  0.00  0.00    -0.301 NA
ATOM     13  C   UNL     1      -0.929   3.463  25.620  0.00  0.00    +0.105 C 
ATOM     14  C   UNL     1      -1.362   5.741  24.991  0.00  0.00    +0.105 C 
ENDBRANCH   8   6
BRANCH   9   3
ATOM      3  O   UNL     1      -3.654   2.891  22.743  0.00  0.00    -0.388 OA
ATOM     23  H   UNL     1      -3.379   2.044  22.352  0.00  0.00    +0.210 HD
ENDBRANCH   9   3
ENDBRANCH  12  10
ENDBRANCH   7  12
TORSDOF 6
ENDMDL
MODEL 9
REMARK VINA RESULT:      -4.2      2.238      3.483
REMARK  Name = 75536695
REMARK  9 active torsions:
REMARK  status: ('A' for Active; 'I' for Inactive)
REMARK    1  A    between atoms: S_1  and  N_7
REMARK    2  A    between atoms: S_1  and  C_15
REMARK    3  A    between atoms: O_3  and  C_9
REMARK    4  A    between atoms: N_6  and  C_8
REMARK    5  A    between atoms: N_6  and  C_13
REMARK    6  A    between atoms: N_6  and  C_14
REMARK    7  A    between atoms: N_7  and  C_12
REMARK    8  A    between atoms: C_10  and  C_12
REMARK    9  A    between atoms: C_20  and  C_21
REMARK                            x       y       z     vdW  Elec       q    Type
REMARK                         _______ _______ _______ _____ _____    ______ ____
ROOT
ATOM      7  N   UNL     1      -0.466   3.460  26.138  0.00  0.00    -0.187 NA
ATOM     22  H   UNL     1      -0.895   3.476  27.072  0.00  0.00    +0.148 HD
ENDROOT
BRANCH   7   1
ATOM      1  S   UNL     1      -1.230   4.313  24.881  0.00  0.00    +0.058 S 
ATOM      4  O   UNL     1      -0.573   4.009  23.624  0.00  0.00    -0.153 OA
ATOM      5  O   UNL     1      -1.414   5.693  25.292  0.00  0.00    -0.153 OA
BRANCH   1  15
ATOM     15  C   UNL     1      -2.830   3.564  24.855  0.00  0.00    +0.105 A 
ATOM     16  C   UNL     1      -3.692   3.721  25.942  0.00  0.00    +0.029 A 
ATOM     17  C   UNL     1      -3.231   2.813  23.750  0.00  0.00    +0.029 A 
ATOM     18  C   UNL     1      -4.953   3.127  25.923  0.00  0.00    +0.005 A 
ATOM     19  C   UNL     1      -4.494   2.220  23.731  0.00  0.00    +0.005 A 
ATOM     20  C   UNL     1      -5.355   2.377  24.818  0.00  0.00    -0.050 A 
ATOM     21  C   UNL     1      -6.704   1.742  24.797  0.00  0.00    +0.044 C 
ENDBRANCH   1  15
ENDBRANCH   7   1
BRANCH   7  12
ATOM     12  C   UNL     1       0.359   2.274  25.833  0.00  0.00    +0.140 C 
BRANCH  12  10
ATOM      2  O   UNL     1       0.652   1.034  23.778  0.00  0.00    -0.371 OA
ATOM      8  C   UNL     1      -0.953  -0.697  24.038  0.00  0.00    +0.113 C 
ATOM      9  C   UNL     1      -0.950   0.168  25.286  0.00  0.00    +0.164 C 
ATOM     10  C   UNL     1      -0.318   1.446  24.755  0.00  0.00    +0.164 C 
ATOM     11  C   UNL     1       0.386  -0.333  23.417  0.00  0.00    +0.181 C 
BRANCH   8   6
ATOM      6  N   UNL     1      -1.080  -2.119  24.314  0.00  0.00    -0.301 NA
ATOM     13  C   UNL     1      -2.487  -2.494  24.479  0.00  0.00    +0.105 C 
ATOM     14  C   UNL     1      -0.317  -2.488  25.510  0.00  0.00    +0.105 C 
ENDBRANCH   8   6
BRANCH   9   3
ATOM      3  O   UNL     1      -2.250   0.394  25.796  0.00  0.00    -0.388 OA
ATOM     23  H   UNL     1      -2.858  -0.236  25.372  0.00  0.00    +0.210 HD
ENDBRANCH   9   3
ENDBRANCH  12  10
ENDBRANCH   7  12
TORSDOF 6
ENDMDL
MODEL 10
REMARK VINA RESULT:      -3.6      2.207      4.582
REMARK  Name = 75536695
REMARK  9 active torsions:
REMARK  status: ('A' for Active; 'I' for Inactive)
REMARK    1  A    between atoms: S_1  and  N_7
REMARK    2  A    between atoms: S_1  and  C_15
REMARK    3  A    between atoms: O_3  and  C_9
REMARK    4  A    between atoms: N_6  and  C_8
REMARK    5  A    between atoms: N_6  and  C_13
REMARK    6  A    between atoms: N_6  and  C_14
REMARK    7  A    between atoms: N_7  and  C_12
REMARK    8  A    between atoms: C_10  and  C_12
REMARK    9  A    between atoms: C_20  and  C_21
REMARK                            x       y       z     vdW  Elec       q    Type
REMARK                         _______ _______ _______ _____ _____    ______ ____
ROOT
ATOM      7  N   UNL     1      -0.621   1.224  23.734  0.00  0.00    -0.187 NA
ATOM     22  H   UNL     1      -1.199   1.093  22.896  0.00  0.00    +0.148 HD
ENDROOT
BRANCH   7   1
ATOM      1  S   UNL     1      -0.508  -0.057  24.848  0.00  0.00    +0.058 S 
ATOM      4  O   UNL     1      -0.665   0.461  26.194  0.00  0.00    -0.153 OA
ATOM      5  O   UNL     1       0.642  -0.875  24.511  0.00  0.00    -0.153 OA
BRANCH   1  15
ATOM     15  C   UNL     1      -1.947  -1.005  24.457  0.00  0.00    +0.105 A 
ATOM     16  C   UNL     1      -3.169  -0.364  24.248  0.00  0.00    +0.029 A 
ATOM     17  C   UNL     1      -1.863  -2.394  24.360  0.00  0.00    +0.029 A 
ATOM     18  C   UNL     1      -4.305  -1.113  23.942  0.00  0.00    +0.005 A 
ATOM     19  C   UNL     1      -2.999  -3.142  24.054  0.00  0.00    +0.005 A 
ATOM     20  C   UNL     1      -4.221  -2.502  23.845  0.00  0.00    -0.050 A 
ATOM     21  C   UNL     1      -5.435  -3.302  23.518  0.00  0.00    +0.044 C 
ENDBRANCH   1  15
ENDBRANCH   7   1
BRANCH   7  12
ATOM     12  C   UNL     1      -0.462   2.618  24.192  0.00  0.00    +0.140 C 
BRANCH  12  10
ATOM      2  O   UNL     1      -2.562   2.708  22.997  0.00  0.00    -0.371 OA
ATOM      8  C   UNL     1      -4.004   3.629  24.644  0.00  0.00    +0.113 C 
ATOM      9  C   UNL     1      -2.623   3.439  25.245  0.00  0.00    +0.164 C 
ATOM     10  C   UNL     1      -1.764   3.373  23.990  0.00  0.00    +0.164 C 
ATOM     11  C   UNL     1      -3.933   2.714  23.432  0.00  0.00    +0.181 C 
BRANCH   8   6
ATOM      6  N   UNL     1      -5.087   3.284  25.550  0.00  0.00    -0.301 NA
ATOM     13  C   UNL     1      -5.774   2.069  25.103  0.00  0.00    +0.105 C 
ATOM     14  C   UNL     1      -6.042   4.390  25.664  0.00  0.00    +0.105 C 
ENDBRANCH   8   6
BRANCH   9   3
ATOM      3  O   UNL     1      -2.243   4.508  26.089  0.00  0.00    -0.388 OA
ATOM     23  H   UNL     1      -1.425   4.256  26.551  0.00  0.00    +0.210 HD
ENDBRANCH   9   3
ENDBRANCH  12  10
ENDBRANCH   7  12
TORSDOF 6
ENDMDL
