MODEL 1
REMARK VINA RESULT:      -4.3      0.000      0.000
REMARK  Name = 71693886
REMARK  9 active torsions:
REMARK  status: ('A' for Active; 'I' for Inactive)
REMARK    1  A    between atoms: O_1  and  C_9
REMARK    2  A    between atoms: O_2  and  C_11
REMARK    3  A    between atoms: O_4  and  C_18
REMARK    4  A    between atoms: O_4  and  C_20
REMARK    5  A    between atoms: O_5  and  C_19
REMARK    6  A    between atoms: O_5  and  C_21
REMARK    7  A    between atoms: N_6  and  C_8
REMARK    8  A    between atoms: C_7  and  C_12
REMARK    9  A    between atoms: C_15  and  C_18
REMARK                            x       y       z     vdW  Elec       q    Type
REMARK                         _______ _______ _______ _____ _____    ______ ____
ROOT
ATOM      7  C   UNL     1      -1.690  -0.455  25.652  0.00  0.00    +0.044 C 
ATOM      8  C   UNL     1      -1.318  -1.197  24.347  0.00  0.00    +0.111 C 
ATOM      9  C   UNL     1      -1.874  -2.603  24.568  0.00  0.00    +0.164 C 
ATOM     10  C   UNL     1      -2.893  -1.231  26.251  0.00  0.00    +0.044 C 
ATOM     11  C   UNL     1      -3.209  -2.344  25.254  0.00  0.00    +0.145 C 
ENDROOT
BRANCH   7  12
ATOM     12  C   UNL     1      -1.944   1.023  25.440  0.00  0.00    -0.042 A 
ATOM     13  C   UNL     1      -3.150   1.451  24.885  0.00  0.00    +0.007 A 
ATOM     14  C   UNL     1      -0.972   1.956  25.801  0.00  0.00    +0.007 A 
ATOM     16  C   UNL     1      -3.383   2.811  24.689  0.00  0.00    +0.046 A 
ATOM     17  C   UNL     1      -1.206   3.317  25.606  0.00  0.00    +0.046 A 
ATOM     19  C   UNL     1      -2.412   3.745  25.051  0.00  0.00    +0.120 A 
BRANCH  19   5
ATOM      5  O   UNL     1      -2.639   5.073  24.859  0.00  0.00    -0.495 OA
ATOM     21  C   UNL     1      -1.509   5.940  24.921  0.00  0.00    +0.277 C 
ENDBRANCH  19   5
ENDBRANCH   7  12
BRANCH   8   6
ATOM      3  O   UNL     1       0.209   0.650  22.729  0.00  0.00    -0.273 OA
ATOM      6  N   UNL     1       0.104  -1.210  24.121  0.00  0.00    -0.307 N 
ATOM     15  C   UNL     1       0.753  -0.277  23.324  0.00  0.00    +0.239 C 
ATOM     22  H   UNL     1       0.662  -1.905  24.612  0.00  0.00    +0.149 HD
BRANCH  15  18
ATOM     18  C   UNL     1       2.244  -0.527  23.262  0.00  0.00    +0.255 C 
BRANCH  18   4
ATOM      4  O   UNL     1       2.847   0.289  22.280  0.00  0.00    -0.374 OA
ATOM     20  C   UNL     1       4.087   0.830  22.726  0.00  0.00    +0.194 C 
ENDBRANCH  18   4
ENDBRANCH  15  18
ENDBRANCH   8   6
BRANCH   9   1
ATOM      1  O   UNL     1      -2.052  -3.306  23.352  0.00  0.00    -0.387 OA
ATOM     23  H   UNL     1      -1.751  -2.724  22.632  0.00  0.00    +0.210 HD
ENDBRANCH   9   1
BRANCH  11   2
ATOM      2  O   UNL     1      -4.176  -1.864  24.325  0.00  0.00    -0.389 OA
ATOM     24  H   UNL     1      -3.883  -2.130  23.436  0.00  0.00    +0.210 HD
ENDBRANCH  11   2
TORSDOF 7
ENDMDL
MODEL 2
REMARK VINA RESULT:      -4.2      1.696      5.762
REMARK  Name = 71693886
REMARK  9 active torsions:
REMARK  status: ('A' for Active; 'I' for Inactive)
REMARK    1  A    between atoms: O_1  and  C_9
REMARK    2  A    between atoms: O_2  and  C_11
REMARK    3  A    between atoms: O_4  and  C_18
REMARK    4  A    between atoms: O_4  and  C_20
REMARK    5  A    between atoms: O_5  and  C_19
REMARK    6  A    between atoms: O_5  and  C_21
REMARK    7  A    between atoms: N_6  and  C_8
REMARK    8  A    between atoms: C_7  and  C_12
REMARK    9  A    between atoms: C_15  and  C_18
REMARK                            x       y       z     vdW  Elec       q    Type
REMARK                         _______ _______ _______ _____ _____    ______ ____
ROOT
ATOM      7  C   UNL     1      -1.626   1.902  25.666  0.00  0.00    +0.044 C 
ATOM      8  C   UNL     1      -2.957   2.096  24.905  0.00  0.00    +0.111 C 
ATOM      9  C   UNL     1      -3.605   3.282  25.619  0.00  0.00    +0.164 C 
ATOM     10  C   UNL     1      -1.313   3.270  26.326  0.00  0.00    +0.044 C 
ATOM     11  C   UNL     1      -2.428   4.213  25.880  0.00  0.00    +0.145 C 
ENDROOT
BRANCH   7  12
ATOM     12  C   UNL     1      -0.514   1.364  24.789  0.00  0.00    -0.042 A 
ATOM     13  C   UNL     1       0.482   2.221  24.322  0.00  0.00    +0.007 A 
ATOM     14  C   UNL     1      -0.488   0.012  24.447  0.00  0.00    +0.007 A 
ATOM     16  C   UNL     1       1.505   1.727  23.513  0.00  0.00    +0.046 A 
ATOM     17  C   UNL     1       0.536  -0.482  23.638  0.00  0.00    +0.046 A 
ATOM     19  C   UNL     1       1.532   0.375  23.172  0.00  0.00    +0.120 A 
BRANCH  19   5
ATOM      5  O   UNL     1       2.529  -0.108  22.382  0.00  0.00    -0.495 OA
ATOM     21  C   UNL     1       3.798   0.538  22.472  0.00  0.00    +0.277 C 
ENDBRANCH  19   5
ENDBRANCH   7  12
BRANCH   8   6
ATOM      3  O   UNL     1      -3.331   0.131  22.816  0.00  0.00    -0.273 OA
ATOM      6  N   UNL     1      -3.785   0.919  24.957  0.00  0.00    -0.307 N 
ATOM     15  C   UNL     1      -3.902   0.028  23.898  0.00  0.00    +0.239 C 
ATOM     22  H   UNL     1      -4.262   0.706  25.829  0.00  0.00    +0.149 HD
BRANCH  15  18
ATOM     18  C   UNL     1      -4.835  -1.118  24.225  0.00  0.00    +0.255 C 
BRANCH  18   4
ATOM      4  O   UNL     1      -4.237  -2.355  23.908  0.00  0.00    -0.374 OA
ATOM     20  C   UNL     1      -3.256  -2.734  24.868  0.00  0.00    +0.194 C 
ENDBRANCH  18   4
ENDBRANCH  15  18
ENDBRANCH   8   6
BRANCH   9   1
ATOM      1  O   UNL     1      -4.591   3.913  24.823  0.00  0.00    -0.387 OA
ATOM     23  H   UNL     1      -4.330   4.844  24.720  0.00  0.00    +0.210 HD
ENDBRANCH   9   1
BRANCH  11   2
ATOM      2  O   UNL     1      -2.020   4.869  24.683  0.00  0.00    -0.389 OA
ATOM     24  H   UNL     1      -1.722   5.762  24.926  0.00  0.00    +0.210 HD
ENDBRANCH  11   2
TORSDOF 7
ENDMDL
MODEL 3
REMARK VINA RESULT:      -3.6      2.753      5.579
REMARK  Name = 71693886
REMARK  9 active torsions:
REMARK  status: ('A' for Active; 'I' for Inactive)
REMARK    1  A    between atoms: O_1  and  C_9
REMARK    2  A    between atoms: O_2  and  C_11
REMARK    3  A    between atoms: O_4  and  C_18
REMARK    4  A    between atoms: O_4  and  C_20
REMARK    5  A    between atoms: O_5  and  C_19
REMARK    6  A    between atoms: O_5  and  C_21
REMARK    7  A    between atoms: N_6  and  C_8
REMARK    8  A    between atoms: C_7  and  C_12
REMARK    9  A    between atoms: C_15  and  C_18
REMARK                            x       y       z     vdW  Elec       q    Type
REMARK                         _______ _______ _______ _____ _____    ______ ____
ROOT
ATOM      7  C   UNL     1      -4.333   1.694  24.219  0.00  0.00    +0.044 C 
ATOM      8  C   UNL     1      -4.121   2.831  25.245  0.00  0.00    +0.111 C 
ATOM      9  C   UNL     1      -5.492   3.499  25.324  0.00  0.00    +0.164 C 
ATOM     10  C   UNL     1      -5.855   1.397  24.227  0.00  0.00    +0.044 C 
ATOM     11  C   UNL     1      -6.455   2.318  25.287  0.00  0.00    +0.145 C 
ENDROOT
BRANCH   7  12
ATOM     12  C   UNL     1      -3.460   0.485  24.486  0.00  0.00    -0.042 A 
ATOM     13  C   UNL     1      -4.032  -0.699  24.949  0.00  0.00    +0.007 A 
ATOM     14  C   UNL     1      -2.084   0.557  24.267  0.00  0.00    +0.007 A 
ATOM     16  C   UNL     1      -3.229  -1.812  25.195  0.00  0.00    +0.046 A 
ATOM     17  C   UNL     1      -1.281  -0.556  24.514  0.00  0.00    +0.046 A 
ATOM     19  C   UNL     1      -1.852  -1.741  24.977  0.00  0.00    +0.120 A 
BRANCH  19   5
ATOM      5  O   UNL     1      -1.068  -2.826  25.218  0.00  0.00    -0.495 OA
ATOM     21  C   UNL     1       0.315  -2.584  25.471  0.00  0.00    +0.277 C 
ENDBRANCH  19   5
ENDBRANCH   7  12
BRANCH   8   6
ATOM      3  O   UNL     1      -1.616   3.388  26.580  0.00  0.00    -0.273 OA
ATOM      6  N   UNL     1      -3.097   3.753  24.824  0.00  0.00    -0.307 N 
ATOM     15  C   UNL     1      -1.921   3.955  25.534  0.00  0.00    +0.239 C 
ATOM     22  H   UNL     1      -3.222   4.236  23.938  0.00  0.00    +0.149 HD
BRANCH  15  18
ATOM     18  C   UNL     1      -1.026   4.976  24.865  0.00  0.00    +0.255 C 
BRANCH  18   4
ATOM      4  O   UNL     1      -0.246   4.371  23.856  0.00  0.00    -0.374 OA
ATOM     20  C   UNL     1       0.198   3.071  24.234  0.00  0.00    +0.194 C 
ENDBRANCH  18   4
ENDBRANCH  15  18
ENDBRANCH   8   6
BRANCH   9   1
ATOM      1  O   UNL     1      -5.653   4.254  26.510  0.00  0.00    -0.387 OA
ATOM     23  H   UNL     1      -6.367   4.896  26.353  0.00  0.00    +0.210 HD
ENDBRANCH   9   1
BRANCH  11   2
ATOM      2  O   UNL     1      -6.468   1.632  26.535  0.00  0.00    -0.389 OA
ATOM     24  H   UNL     1      -5.554   1.617  26.870  0.00  0.00    +0.210 HD
ENDBRANCH  11   2
TORSDOF 7
ENDMDL
MODEL 4
REMARK VINA RESULT:      -3.5     13.772     17.676
REMARK  Name = 71693886
REMARK  9 active torsions:
REMARK  status: ('A' for Active; 'I' for Inactive)
REMARK    1  A    between atoms: O_1  and  C_9
REMARK    2  A    between atoms: O_2  and  C_11
REMARK    3  A    between atoms: O_4  and  C_18
REMARK    4  A    between atoms: O_4  and  C_20
REMARK    5  A    between atoms: O_5  and  C_19
REMARK    6  A    between atoms: O_5  and  C_21
REMARK    7  A    between atoms: N_6  and  C_8
REMARK    8  A    between atoms: C_7  and  C_12
REMARK    9  A    between atoms: C_15  and  C_18
REMARK                            x       y       z     vdW  Elec       q    Type
REMARK                         _______ _______ _______ _____ _____    ______ ____
ROOT
ATOM      7  C   UNL     1      14.222   6.860  19.911  0.00  0.00    +0.044 C 
ATOM      8  C   UNL     1      14.191   7.830  21.114  0.00  0.00    +0.111 C 
ATOM      9  C   UNL     1      15.431   7.441  21.917  0.00  0.00    +0.164 C 
ATOM     10  C   UNL     1      15.701   6.416  19.765  0.00  0.00    +0.044 C 
ATOM     11  C   UNL     1      16.474   7.181  20.837  0.00  0.00    +0.145 C 
ENDROOT
BRANCH   7  12
ATOM     12  C   UNL     1      13.623   7.456  18.654  0.00  0.00    -0.042 A 
ATOM     13  C   UNL     1      14.387   8.301  17.850  0.00  0.00    +0.007 A 
ATOM     14  C   UNL     1      12.307   7.159  18.300  0.00  0.00    +0.007 A 
ATOM     16  C   UNL     1      13.836   8.851  16.694  0.00  0.00    +0.046 A 
ATOM     17  C   UNL     1      11.755   7.709  17.143  0.00  0.00    +0.046 A 
ATOM     19  C   UNL     1      12.520   8.554  16.339  0.00  0.00    +0.120 A 
BRANCH  19   5
ATOM      5  O   UNL     1      11.981   9.091  15.211  0.00  0.00    -0.495 OA
ATOM     21  C   UNL     1      10.558   9.094  15.109  0.00  0.00    +0.277 C 
ENDBRANCH  19   5
ENDBRANCH   7  12
BRANCH   8   6
ATOM      3  O   UNL     1      11.637   9.091  20.610  0.00  0.00    -0.273 OA
ATOM      6  N   UNL     1      12.984   7.691  21.888  0.00  0.00    -0.307 N 
ATOM     15  C   UNL     1      11.799   8.339  21.567  0.00  0.00    +0.239 C 
ATOM     22  H   UNL     1      12.990   7.045  22.674  0.00  0.00    +0.149 HD
BRANCH  15  18
ATOM     18  C   UNL     1      10.693   8.013  22.548  0.00  0.00    +0.255 C 
BRANCH  18   4
ATOM      4  O   UNL     1       9.907   6.941  22.075  0.00  0.00    -0.374 OA
ATOM     20  C   UNL     1      10.701   5.811  21.729  0.00  0.00    +0.194 C 
ENDBRANCH  18   4
ENDBRANCH  15  18
ENDBRANCH   8   6
BRANCH   9   1
ATOM      1  O   UNL     1      15.848   8.471  22.793  0.00  0.00    -0.387 OA
ATOM     23  H   UNL     1      16.000   9.268  22.255  0.00  0.00    +0.210 HD
ENDBRANCH   9   1
BRANCH  11   2
ATOM      2  O   UNL     1      16.944   8.403  20.276  0.00  0.00    -0.389 OA
ATOM     24  H   UNL     1      16.306   8.676  19.595  0.00  0.00    +0.210 HD
ENDBRANCH  11   2
TORSDOF 7
ENDMDL
MODEL 5
REMARK VINA RESULT:      -3.5      2.398      6.549
REMARK  Name = 71693886
REMARK  9 active torsions:
REMARK  status: ('A' for Active; 'I' for Inactive)
REMARK    1  A    between atoms: O_1  and  C_9
REMARK    2  A    between atoms: O_2  and  C_11
REMARK    3  A    between atoms: O_4  and  C_18
REMARK    4  A    between atoms: O_4  and  C_20
REMARK    5  A    between atoms: O_5  and  C_19
REMARK    6  A    between atoms: O_5  and  C_21
REMARK    7  A    between atoms: N_6  and  C_8
REMARK    8  A    between atoms: C_7  and  C_12
REMARK    9  A    between atoms: C_15  and  C_18
REMARK                            x       y       z     vdW  Elec       q    Type
REMARK                         _______ _______ _______ _____ _____    ______ ____
ROOT
ATOM      7  C   UNL     1      -1.726   1.610  25.636  0.00  0.00    +0.044 C 
ATOM      8  C   UNL     1      -1.785   2.608  24.457  0.00  0.00    +0.111 C 
ATOM      9  C   UNL     1      -0.643   3.577  24.754  0.00  0.00    +0.164 C 
ATOM     10  C   UNL     1      -0.274   1.683  26.179  0.00  0.00    +0.044 C 
ATOM     11  C   UNL     1       0.462   2.663  25.268  0.00  0.00    +0.145 C 
ENDROOT
BRANCH   7  12
ATOM     12  C   UNL     1      -2.180   0.216  25.256  0.00  0.00    -0.042 A 
ATOM     13  C   UNL     1      -3.539  -0.057  25.102  0.00  0.00    +0.007 A 
ATOM     14  C   UNL     1      -1.239  -0.795  25.061  0.00  0.00    +0.007 A 
ATOM     16  C   UNL     1      -3.957  -1.341  24.753  0.00  0.00    +0.046 A 
ATOM     17  C   UNL     1      -1.657  -2.079  24.711  0.00  0.00    +0.046 A 
ATOM     19  C   UNL     1      -3.016  -2.352  24.557  0.00  0.00    +0.120 A 
BRANCH  19   5
ATOM      5  O   UNL     1      -3.424  -3.605  24.217  0.00  0.00    -0.495 OA
ATOM     21  C   UNL     1      -4.536  -3.706  23.329  0.00  0.00    +0.277 C 
ENDBRANCH  19   5
ENDBRANCH   7  12
BRANCH   8   6
ATOM      3  O   UNL     1      -3.153   3.996  26.594  0.00  0.00    -0.273 OA
ATOM      6  N   UNL     1      -3.057   3.280  24.383  0.00  0.00    -0.307 N 
ATOM     15  C   UNL     1      -3.638   3.923  25.468  0.00  0.00    +0.239 C 
ATOM     22  H   UNL     1      -3.521   3.329  23.480  0.00  0.00    +0.149 HD
BRANCH  15  18
ATOM     18  C   UNL     1      -4.970   4.544  25.109  0.00  0.00    +0.255 C 
BRANCH  18   4
ATOM      4  O   UNL     1      -6.023   3.895  25.787  0.00  0.00    -0.374 OA
ATOM     20  C   UNL     1      -6.014   2.489  25.562  0.00  0.00    +0.194 C 
ENDBRANCH  18   4
ENDBRANCH  15  18
ENDBRANCH   8   6
BRANCH   9   1
ATOM      1  O   UNL     1      -0.227   4.285  23.601  0.00  0.00    -0.387 OA
ATOM     23  H   UNL     1       0.518   4.854  23.861  0.00  0.00    +0.210 HD
ENDBRANCH   9   1
BRANCH  11   2
ATOM      2  O   UNL     1       1.060   1.934  24.200  0.00  0.00    -0.389 OA
ATOM     24  H   UNL     1       1.825   2.447  23.889  0.00  0.00    +0.210 HD
ENDBRANCH  11   2
TORSDOF 7
ENDMDL
MODEL 6
REMARK VINA RESULT:      -3.4     15.365     17.512
REMARK  Name = 71693886
REMARK  9 active torsions:
REMARK  status: ('A' for Active; 'I' for Inactive)
REMARK    1  A    between atoms: O_1  and  C_9
REMARK    2  A    between atoms: O_2  and  C_11
REMARK    3  A    between atoms: O_4  and  C_18
REMARK    4  A    between atoms: O_4  and  C_20
REMARK    5  A    between atoms: O_5  and  C_19
REMARK    6  A    between atoms: O_5  and  C_21
REMARK    7  A    between atoms: N_6  and  C_8
REMARK    8  A    between atoms: C_7  and  C_12
REMARK    9  A    between atoms: C_15  and  C_18
REMARK                            x       y       z     vdW  Elec       q    Type
REMARK                         _______ _______ _______ _____ _____    ______ ____
ROOT
ATOM      7  C   UNL     1      -7.788 -10.533  11.046  0.00  0.00    +0.044 C 
ATOM      8  C   UNL     1      -6.596  -9.733  10.473  0.00  0.00    +0.111 C 
ATOM      9  C   UNL     1      -6.947  -9.583   8.994  0.00  0.00    +0.164 C 
ATOM     10  C   UNL     1      -8.971 -10.281  10.075  0.00  0.00    +0.044 C 
ATOM     11  C   UNL     1      -8.446  -9.309   9.020  0.00  0.00    +0.145 C 
ENDROOT
BRANCH   7  12
ATOM     12  C   UNL     1      -8.086 -10.196  12.493  0.00  0.00    -0.042 A 
ATOM     13  C   UNL     1      -7.114 -10.398  13.471  0.00  0.00    +0.007 A 
ATOM     14  C   UNL     1      -9.335  -9.682  12.846  0.00  0.00    +0.007 A 
ATOM     16  C   UNL     1      -7.388 -10.089  14.802  0.00  0.00    +0.046 A 
ATOM     17  C   UNL     1      -9.609  -9.373  14.178  0.00  0.00    +0.046 A 
ATOM     19  C   UNL     1      -8.636  -9.575  15.156  0.00  0.00    +0.120 A 
BRANCH  19   5
ATOM      5  O   UNL     1      -8.905  -9.274  16.455  0.00  0.00    -0.495 OA
ATOM     21  C   UNL     1      -7.816  -9.341  17.375  0.00  0.00    +0.277 C 
ENDBRANCH  19   5
ENDBRANCH   7  12
BRANCH   8   6
ATOM      3  O   UNL     1      -3.945  -8.576  10.448  0.00  0.00    -0.273 OA
ATOM      6  N   UNL     1      -5.344 -10.422  10.661  0.00  0.00    -0.307 N 
ATOM     15  C   UNL     1      -4.114  -9.779  10.633  0.00  0.00    +0.239 C 
ATOM     22  H   UNL     1      -5.371 -11.415  10.877  0.00  0.00    +0.149 HD
BRANCH  15  18
ATOM     18  C   UNL     1      -2.969 -10.741  10.860  0.00  0.00    +0.255 C 
BRANCH  18   4
ATOM      4  O   UNL     1      -2.061 -10.222  11.808  0.00  0.00    -0.374 OA
ATOM     20  C   UNL     1      -2.470 -10.499  13.143  0.00  0.00    +0.194 C 
ENDBRANCH  18   4
ENDBRANCH  15  18
ENDBRANCH   8   6
BRANCH   9   1
ATOM      1  O   UNL     1      -6.244  -8.518   8.382  0.00  0.00    -0.387 OA
ATOM     23  H   UNL     1      -6.850  -8.093   7.750  0.00  0.00    +0.210 HD
ENDBRANCH   9   1
BRANCH  11   2
ATOM      2  O   UNL     1      -8.715  -7.978   9.451  0.00  0.00    -0.389 OA
ATOM     24  H   UNL     1      -9.489  -7.662   8.954  0.00  0.00    +0.210 HD
ENDBRANCH  11   2
TORSDOF 7
ENDMDL
MODEL 7
REMARK VINA RESULT:      -3.0      2.118      4.650
REMARK  Name = 71693886
REMARK  9 active torsions:
REMARK  status: ('A' for Active; 'I' for Inactive)
REMARK    1  A    between atoms: O_1  and  C_9
REMARK    2  A    between atoms: O_2  and  C_11
REMARK    3  A    between atoms: O_4  and  C_18
REMARK    4  A    between atoms: O_4  and  C_20
REMARK    5  A    between atoms: O_5  and  C_19
REMARK    6  A    between atoms: O_5  and  C_21
REMARK    7  A    between atoms: N_6  and  C_8
REMARK    8  A    between atoms: C_7  and  C_12
REMARK    9  A    between atoms: C_15  and  C_18
REMARK                            x       y       z     vdW  Elec       q    Type
REMARK                         _______ _______ _______ _____ _____    ______ ____
ROOT
ATOM      7  C   UNL     1      -1.930   0.876  23.648  0.00  0.00    +0.044 C 
ATOM      8  C   UNL     1      -1.382  -0.239  24.568  0.00  0.00    +0.111 C 
ATOM      9  C   UNL     1       0.066  -0.400  24.106  0.00  0.00    +0.164 C 
ATOM     10  C   UNL     1      -0.690   1.671  23.163  0.00  0.00    +0.044 C 
ATOM     11  C   UNL     1       0.512   1.035  23.858  0.00  0.00    +0.145 C 
ENDROOT
BRANCH   7  12
ATOM     12  C   UNL     1      -2.994   1.724  24.314  0.00  0.00    -0.042 A 
ATOM     13  C   UNL     1      -2.644   2.926  24.928  0.00  0.00    +0.007 A 
ATOM     14  C   UNL     1      -4.323   1.302  24.315  0.00  0.00    +0.007 A 
ATOM     16  C   UNL     1      -3.622   3.707  25.542  0.00  0.00    +0.046 A 
ATOM     17  C   UNL     1      -5.302   2.083  24.929  0.00  0.00    +0.046 A 
ATOM     19  C   UNL     1      -4.952   3.285  25.542  0.00  0.00    +0.120 A 
BRANCH  19   5
ATOM      5  O   UNL     1      -5.907   4.046  26.142  0.00  0.00    -0.495 OA
ATOM     21  C   UNL     1      -6.259   5.271  25.500  0.00  0.00    +0.277 C 
ENDBRANCH  19   5
ENDBRANCH   7  12
BRANCH   8   6
ATOM      3  O   UNL     1      -3.273  -1.344  26.456  0.00  0.00    -0.273 OA
ATOM      6  N   UNL     1      -2.128  -1.464  24.436  0.00  0.00    -0.307 N 
ATOM     15  C   UNL     1      -3.019  -1.916  25.400  0.00  0.00    +0.239 C 
ATOM     22  H   UNL     1      -2.035  -1.991  23.571  0.00  0.00    +0.149 HD
BRANCH  15  18
ATOM     18  C   UNL     1      -3.664  -3.226  25.003  0.00  0.00    +0.255 C 
BRANCH  18   4
ATOM      4  O   UNL     1      -4.213  -3.139  23.706  0.00  0.00    -0.374 OA
ATOM     20  C   UNL     1      -4.741  -1.844  23.438  0.00  0.00    +0.194 C 
ENDBRANCH  18   4
ENDBRANCH  15  18
ENDBRANCH   8   6
BRANCH   9   1
ATOM      1  O   UNL     1       0.874  -1.025  25.086  0.00  0.00    -0.387 OA
ATOM     23  H   UNL     1       1.718  -1.258  24.662  0.00  0.00    +0.210 HD
ENDBRANCH   9   1
BRANCH  11   2
ATOM      2  O   UNL     1       0.744   1.718  25.087  0.00  0.00    -0.389 OA
ATOM     24  H   UNL     1       1.273   2.509  24.886  0.00  0.00    +0.210 HD
ENDBRANCH  11   2
TORSDOF 7
ENDMDL
MODEL 8
REMARK VINA RESULT:      -3.0      2.433      4.988
REMARK  Name = 71693886
REMARK  9 active torsions:
REMARK  status: ('A' for Active; 'I' for Inactive)
REMARK    1  A    between atoms: O_1  and  C_9
REMARK    2  A    between atoms: O_2  and  C_11
REMARK    3  A    between atoms: O_4  and  C_18
REMARK    4  A    between atoms: O_4  and  C_20
REMARK    5  A    between atoms: O_5  and  C_19
REMARK    6  A    between atoms: O_5  and  C_21
REMARK    7  A    between atoms: N_6  and  C_8
REMARK    8  A    between atoms: C_7  and  C_12
REMARK    9  A    between atoms: C_15  and  C_18
REMARK                            x       y       z     vdW  Elec       q    Type
REMARK                         _______ _______ _______ _____ _____    ______ ____
ROOT
ATOM      7  C   UNL     1      -2.228   1.927  23.699  0.00  0.00    +0.044 C 
ATOM      8  C   UNL     1      -1.068   1.263  24.474  0.00  0.00    +0.111 C 
ATOM      9  C   UNL     1       0.171   1.986  23.948  0.00  0.00    +0.164 C 
ATOM     10  C   UNL     1      -1.701   3.318  23.259  0.00  0.00    +0.044 C 
ATOM     11  C   UNL     1      -0.294   3.433  23.840  0.00  0.00    +0.145 C 
ENDROOT
BRANCH   7  12
ATOM     12  C   UNL     1      -3.520   1.971  24.489  0.00  0.00    -0.042 A 
ATOM     13  C   UNL     1      -3.956   3.172  25.046  0.00  0.00    +0.007 A 
ATOM     14  C   UNL     1      -4.273   0.809  24.658  0.00  0.00    +0.007 A 
ATOM     16  C   UNL     1      -5.144   3.213  25.774  0.00  0.00    +0.046 A 
ATOM     17  C   UNL     1      -5.462   0.850  25.386  0.00  0.00    +0.046 A 
ATOM     19  C   UNL     1      -5.898   2.051  25.944  0.00  0.00    +0.120 A 
BRANCH  19   5
ATOM      5  O   UNL     1      -7.058   2.090  26.655  0.00  0.00    -0.495 OA
ATOM     21  C   UNL     1      -7.170   1.198  27.763  0.00  0.00    +0.277 C 
ENDBRANCH  19   5
ENDBRANCH   7  12
BRANCH   8   6
ATOM      3  O   UNL     1      -1.342  -0.849  26.431  0.00  0.00    -0.273 OA
ATOM      6  N   UNL     1      -1.003  -0.157  24.237  0.00  0.00    -0.307 N 
ATOM     15  C   UNL     1      -1.147  -1.100  25.245  0.00  0.00    +0.239 C 
ATOM     22  H   UNL     1      -0.900  -0.478  23.278  0.00  0.00    +0.149 HD
BRANCH  15  18
ATOM     18  C   UNL     1      -1.036  -2.514  24.716  0.00  0.00    +0.255 C 
BRANCH  18   4
ATOM      4  O   UNL     1      -2.161  -2.842  23.930  0.00  0.00    -0.374 OA
ATOM     20  C   UNL     1      -3.367  -2.811  24.688  0.00  0.00    +0.194 C 
ENDBRANCH  18   4
ENDBRANCH  15  18
ENDBRANCH   8   6
BRANCH   9   1
ATOM      1  O   UNL     1       1.274   1.867  24.827  0.00  0.00    -0.387 OA
ATOM     23  H   UNL     1       1.884   1.214  24.442  0.00  0.00    +0.210 HD
ENDBRANCH   9   1
BRANCH  11   2
ATOM      2  O   UNL     1      -0.378   4.040  25.126  0.00  0.00    -0.389 OA
ATOM     24  H   UNL     1      -0.921   4.842  25.035  0.00  0.00    +0.210 HD
ENDBRANCH  11   2
TORSDOF 7
ENDMDL
MODEL 9
REMARK VINA RESULT:      -2.9      1.766      5.242
REMARK  Name = 71693886
REMARK  9 active torsions:
REMARK  status: ('A' for Active; 'I' for Inactive)
REMARK    1  A    between atoms: O_1  and  C_9
REMARK    2  A    between atoms: O_2  and  C_11
REMARK    3  A    between atoms: O_4  and  C_18
REMARK    4  A    between atoms: O_4  and  C_20
REMARK    5  A    between atoms: O_5  and  C_19
REMARK    6  A    between atoms: O_5  and  C_21
REMARK    7  A    between atoms: N_6  and  C_8
REMARK    8  A    between atoms: C_7  and  C_12
REMARK    9  A    between atoms: C_15  and  C_18
REMARK                            x       y       z     vdW  Elec       q    Type
REMARK                         _______ _______ _______ _____ _____    ______ ____
ROOT
ATOM      7  C   UNL     1      -2.918   2.241  23.747  0.00  0.00    +0.044 C 
ATOM      8  C   UNL     1      -1.798   2.918  24.568  0.00  0.00    +0.111 C 
ATOM      9  C   UNL     1      -2.230   4.383  24.621  0.00  0.00    +0.164 C 
ATOM     10  C   UNL     1      -4.160   3.160  23.889  0.00  0.00    +0.044 C 
ATOM     11  C   UNL     1      -3.738   4.291  24.825  0.00  0.00    +0.145 C 
ENDROOT
BRANCH   7  12
ATOM     12  C   UNL     1      -3.160   0.801  24.148  0.00  0.00    -0.042 A 
ATOM     13  C   UNL     1      -2.820   0.368  25.430  0.00  0.00    +0.007 A 
ATOM     14  C   UNL     1      -3.722  -0.093  23.236  0.00  0.00    +0.007 A 
ATOM     16  C   UNL     1      -3.040  -0.958  25.799  0.00  0.00    +0.046 A 
ATOM     17  C   UNL     1      -3.943  -1.419  23.606  0.00  0.00    +0.046 A 
ATOM     19  C   UNL     1      -3.603  -1.852  24.887  0.00  0.00    +0.120 A 
BRANCH  19   5
ATOM      5  O   UNL     1      -3.818  -3.146  25.247  0.00  0.00    -0.495 OA
ATOM     21  C   UNL     1      -3.724  -4.130  24.219  0.00  0.00    +0.277 C 
ENDBRANCH  19   5
ENDBRANCH   7  12
BRANCH   8   6
ATOM      3  O   UNL     1       0.064   0.737  24.944  0.00  0.00    -0.273 OA
ATOM      6  N   UNL     1      -0.506   2.761  23.950  0.00  0.00    -0.307 N 
ATOM     15  C   UNL     1       0.323   1.674  24.193  0.00  0.00    +0.239 C 
ATOM     22  H   UNL     1      -0.215   3.454  23.265  0.00  0.00    +0.149 HD
BRANCH  15  18
ATOM     18  C   UNL     1       1.616   1.764  23.412  0.00  0.00    +0.255 C 
BRANCH  18   4
ATOM      4  O   UNL     1       2.001   0.493  22.934  0.00  0.00    -0.374 OA
ATOM     20  C   UNL     1       3.380   0.453  22.580  0.00  0.00    +0.194 C 
ENDBRANCH  18   4
ENDBRANCH  15  18
ENDBRANCH   8   6
BRANCH   9   1
ATOM      1  O   UNL     1      -1.612   5.086  25.682  0.00  0.00    -0.387 OA
ATOM     23  H   UNL     1      -1.728   4.556  26.490  0.00  0.00    +0.210 HD
ENDBRANCH   9   1
BRANCH  11   2
ATOM      2  O   UNL     1      -4.049   3.917  26.164  0.00  0.00    -0.389 OA
ATOM     24  H   UNL     1      -3.389   4.333  26.744  0.00  0.00    +0.210 HD
ENDBRANCH  11   2
TORSDOF 7
ENDMDL
MODEL 10
REMARK VINA RESULT:      -2.4     15.736     18.287
REMARK  Name = 71693886
REMARK  9 active torsions:
REMARK  status: ('A' for Active; 'I' for Inactive)
REMARK    1  A    between atoms: O_1  and  C_9
REMARK    2  A    between atoms: O_2  and  C_11
REMARK    3  A    between atoms: O_4  and  C_18
REMARK    4  A    between atoms: O_4  and  C_20
REMARK    5  A    between atoms: O_5  and  C_19
REMARK    6  A    between atoms: O_5  and  C_21
REMARK    7  A    between atoms: N_6  and  C_8
REMARK    8  A    between atoms: C_7  and  C_12
REMARK    9  A    between atoms: C_15  and  C_18
REMARK                            x       y       z     vdW  Elec       q    Type
REMARK                         _______ _______ _______ _____ _____    ______ ____
ROOT
ATOM      7  C   UNL     1      -7.134  -8.803  10.804  0.00  0.00    +0.044 C 
ATOM      8  C   UNL     1      -8.127  -9.963  11.044  0.00  0.00    +0.111 C 
ATOM      9  C   UNL     1      -9.283  -9.643  10.097  0.00  0.00    +0.164 C 
ATOM     10  C   UNL     1      -7.460  -8.254   9.390  0.00  0.00    +0.044 C 
ATOM     11  C   UNL     1      -8.575  -9.143   8.844  0.00  0.00    +0.145 C 
ENDROOT
BRANCH   7  12
ATOM     12  C   UNL     1      -5.689  -9.211  10.996  0.00  0.00    -0.042 A 
ATOM     13  C   UNL     1      -5.334 -10.042  12.058  0.00  0.00    +0.007 A 
ATOM     14  C   UNL     1      -4.712  -8.755  10.111  0.00  0.00    +0.007 A 
ATOM     16  C   UNL     1      -4.003 -10.417  12.236  0.00  0.00    +0.046 A 
ATOM     17  C   UNL     1      -3.380  -9.131  10.289  0.00  0.00    +0.046 A 
ATOM     19  C   UNL     1      -3.026  -9.962  11.351  0.00  0.00    +0.120 A 
BRANCH  19   5
ATOM      5  O   UNL     1      -1.727 -10.328  11.525  0.00  0.00    -0.495 OA
ATOM     21  C   UNL     1      -0.752  -9.286  11.505  0.00  0.00    +0.277 C 
ENDBRANCH  19   5
ENDBRANCH   7  12
BRANCH   8   6
ATOM      3  O   UNL     1     -10.531  -8.819  12.176  0.00  0.00    -0.273 OA
ATOM      6  N   UNL     1      -8.559 -10.028  12.416  0.00  0.00    -0.307 N 
ATOM     15  C   UNL     1      -9.734  -9.445  12.870  0.00  0.00    +0.239 C 
ATOM     22  H   UNL     1      -8.000 -10.572  13.069  0.00  0.00    +0.149 HD
BRANCH  15  18
ATOM     18  C   UNL     1      -9.940  -9.669  14.352  0.00  0.00    +0.255 C 
BRANCH  18   4
ATOM      4  O   UNL     1      -8.853  -9.156  15.091  0.00  0.00    -0.374 OA
ATOM     20  C   UNL     1      -9.267  -8.610  16.339  0.00  0.00    +0.194 C 
ENDBRANCH  18   4
ENDBRANCH  15  18
ENDBRANCH   8   6
BRANCH   9   1
ATOM      1  O   UNL     1     -10.076 -10.781   9.817  0.00  0.00    -0.387 OA
ATOM     23  H   UNL     1     -10.227 -10.802   8.855  0.00  0.00    +0.210 HD
ENDBRANCH   9   1
BRANCH  11   2
ATOM      2  O   UNL     1      -7.988 -10.222   8.124  0.00  0.00    -0.389 OA
ATOM     24  H   UNL     1      -7.469  -9.839   7.395  0.00  0.00    +0.210 HD
ENDBRANCH  11   2
TORSDOF 7
ENDMDL
