MODEL 1
REMARK VINA RESULT:       9.0      0.000      0.000
REMARK  Name = 26742268
REMARK  9 active torsions:
REMARK  status: ('A' for Active; 'I' for Inactive)
REMARK    1  A    between atoms: O_1  and  C_12
REMARK    2  A    between atoms: O_5  and  C_25
REMARK    3  A    between atoms: O_5  and  C_29
REMARK    4  A    between atoms: N_7  and  C_11
REMARK    5  A    between atoms: N_8  and  C_22
REMARK    6  A    between atoms: N_9  and  C_26
REMARK    7  A    between atoms: C_18  and  C_21
REMARK    8  A    between atoms: C_22  and  C_25
REMARK    9  A    between atoms: C_34  and  C_37
REMARK                            x       y       z     vdW  Elec       q    Type
REMARK                         _______ _______ _______ _____ _____    ______ ____
ROOT
ATOM      2  O   UNL     1      -6.461   1.198  25.506  0.00  0.00    -0.252 OA
ATOM      6  N   UNL     1      -5.416   3.082  26.343  0.00  0.00    -0.284 N 
ATOM      9  N   UNL     1      -4.226   1.051  26.124  0.00  0.00    -0.269 N 
ATOM     11  C   UNL     1      -3.392   4.427  25.677  0.00  0.00    +0.119 C 
ATOM     12  C   UNL     1      -4.159   4.977  24.461  0.00  0.00    +0.136 C 
ATOM     13  C   UNL     1      -5.488   5.673  24.770  0.00  0.00    +0.035 C 
ATOM     14  C   UNL     1      -4.239   3.831  26.807  0.00  0.00    +0.134 C 
ATOM     15  C   UNL     1      -6.660   4.700  24.920  0.00  0.00    +0.022 C 
ATOM     16  C   UNL     1      -6.637   3.877  26.202  0.00  0.00    +0.109 C 
ATOM     17  C   UNL     1      -5.438   1.721  25.956  0.00  0.00    +0.307 C 
ATOM     40  H   UNL     1      -3.586   1.399  26.830  0.00  0.00    +0.156 HD
ENDROOT
BRANCH   9  26
ATOM     26  C   UNL     1      -3.719  -0.034  25.367  0.00  0.00    +0.036 A 
ATOM     32  C   UNL     1      -2.479  -0.589  25.686  0.00  0.00    +0.042 A 
ATOM     33  C   UNL     1      -4.458  -0.547  24.301  0.00  0.00    +0.023 A 
ATOM     34  C   UNL     1      -1.979  -1.657  24.941  0.00  0.00    +0.054 A 
ATOM     35  C   UNL     1      -3.959  -1.615  23.556  0.00  0.00    +0.003 A 
ATOM     36  C   UNL     1      -2.720  -2.170  23.875  0.00  0.00    +0.019 A 
BRANCH  34  37
ATOM     10  N   UNL     1       0.320  -2.686  25.535  0.00  0.00    -0.191 NA
ATOM     37  C   UNL     1      -0.711  -2.226  25.269  0.00  0.00    +0.099 C 
ENDBRANCH  34  37
ENDBRANCH   9  26
BRANCH  11   7
ATOM      4  O   UNL     1      -3.363   3.081  23.142  0.00  0.00    -0.270 OA
ATOM      7  N   UNL     1      -2.406   3.467  25.218  0.00  0.00    -0.305 N 
ATOM     18  C   UNL     1      -2.483   2.872  23.972  0.00  0.00    +0.244 C 
ATOM     38  H   UNL     1      -1.589   3.328  25.801  0.00  0.00    +0.149 HD
BRANCH  18  21
ATOM     21  C   UNL     1      -1.411   1.890  23.663  0.00  0.00    +0.037 A 
ATOM     27  C   UNL     1      -0.270   1.829  24.464  0.00  0.00    +0.016 A 
ATOM     28  C   UNL     1      -1.546   1.030  22.573  0.00  0.00    +0.016 A 
ATOM     29  C   UNL     1       0.601   0.047  23.084  0.00  0.00    +0.121 A 
ATOM     30  C   UNL     1       0.736   0.907  24.174  0.00  0.00    +0.046 A 
ATOM     31  C   UNL     1      -0.540   0.109  22.284  0.00  0.00    +0.046 A 
BRANCH  29   5
ATOM      5  O   UNL     1       1.584  -0.852  22.800  0.00  0.00    -0.491 OA
BRANCH   5  25
ATOM     25  C   UNL     1       2.283  -0.681  21.568  0.00  0.00    +0.244 C 
BRANCH  25  22
ATOM     22  C   UNL     1       3.275   0.460  21.722  0.00  0.00    +0.125 C 
BRANCH  22   8
ATOM      3  O   UNL     1       5.729  -0.526  24.981  0.00  0.00    -0.377 OA
ATOM      8  N   UNL     1       4.429   0.037  22.512  0.00  0.00    -0.295 NA
ATOM     19  C   UNL     1       4.117  -1.173  23.286  0.00  0.00    +0.112 C 
ATOM     20  C   UNL     1       4.868   1.113  23.413  0.00  0.00    +0.112 C 
ATOM     23  C   UNL     1       5.332  -1.587  24.112  0.00  0.00    +0.175 C 
ATOM     24  C   UNL     1       6.065   0.644  24.234  0.00  0.00    +0.175 C 
ENDBRANCH  22   8
ENDBRANCH  25  22
ENDBRANCH   5  25
ENDBRANCH  29   5
ENDBRANCH  18  21
ENDBRANCH  11   7
BRANCH  12   1
ATOM      1  O   UNL     1      -3.319   5.944  23.815  0.00  0.00    -0.390 OA
ATOM     39  H   UNL     1      -3.815   6.779  23.766  0.00  0.00    +0.210 HD
ENDBRANCH  12   1
TORSDOF 9
ENDMDL
MODEL 2
REMARK VINA RESULT:       9.9      1.832      3.945
REMARK  Name = 26742268
REMARK  9 active torsions:
REMARK  status: ('A' for Active; 'I' for Inactive)
REMARK    1  A    between atoms: O_1  and  C_12
REMARK    2  A    between atoms: O_5  and  C_25
REMARK    3  A    between atoms: O_5  and  C_29
REMARK    4  A    between atoms: N_7  and  C_11
REMARK    5  A    between atoms: N_8  and  C_22
REMARK    6  A    between atoms: N_9  and  C_26
REMARK    7  A    between atoms: C_18  and  C_21
REMARK    8  A    between atoms: C_22  and  C_25
REMARK    9  A    between atoms: C_34  and  C_37
REMARK                            x       y       z     vdW  Elec       q    Type
REMARK                         _______ _______ _______ _____ _____    ______ ____
ROOT
ATOM      2  O   UNL     1      -2.999   5.287  24.932  0.00  0.00    -0.252 OA
ATOM      6  N   UNL     1      -4.837   3.991  24.395  0.00  0.00    -0.284 N 
ATOM      9  N   UNL     1      -2.650   3.189  23.996  0.00  0.00    -0.269 N 
ATOM     11  C   UNL     1      -5.639   1.695  25.055  0.00  0.00    +0.119 C 
ATOM     12  C   UNL     1      -5.996   2.224  26.457  0.00  0.00    +0.136 C 
ATOM     13  C   UNL     1      -6.949   3.422  26.494  0.00  0.00    +0.035 C 
ATOM     14  C   UNL     1      -5.477   2.746  23.949  0.00  0.00    +0.134 C 
ATOM     15  C   UNL     1      -6.242   4.765  26.297  0.00  0.00    +0.022 C 
ATOM     16  C   UNL     1      -5.759   5.022  24.874  0.00  0.00    +0.109 C 
ATOM     17  C   UNL     1      -3.445   4.231  24.472  0.00  0.00    +0.307 C 
ATOM     40  H   UNL     1      -3.050   2.567  23.302  0.00  0.00    +0.156 HD
ENDROOT
BRANCH   9  26
ATOM     26  C   UNL     1      -1.347   2.824  24.418  0.00  0.00    +0.036 A 
ATOM     32  C   UNL     1      -1.021   2.847  25.774  0.00  0.00    +0.042 A 
ATOM     33  C   UNL     1      -0.390   2.443  23.477  0.00  0.00    +0.023 A 
ATOM     34  C   UNL     1       0.262   2.489  26.190  0.00  0.00    +0.054 A 
ATOM     35  C   UNL     1       0.893   2.085  23.892  0.00  0.00    +0.003 A 
ATOM     36  C   UNL     1       1.219   2.107  25.248  0.00  0.00    +0.019 A 
BRANCH  34  37
ATOM     10  N   UNL     1       0.865   2.529  28.707  0.00  0.00    -0.191 NA
ATOM     37  C   UNL     1       0.595   2.511  27.579  0.00  0.00    +0.099 C 
ENDBRANCH  34  37
ENDBRANCH   9  26
BRANCH  11   7
ATOM      4  O   UNL     1      -5.234  -0.869  23.833  0.00  0.00    -0.270 OA
ATOM      7  N   UNL     1      -4.451   0.869  25.151  0.00  0.00    -0.305 N 
ATOM     18  C   UNL     1      -4.355  -0.358  24.521  0.00  0.00    +0.244 C 
ATOM     38  H   UNL     1      -3.641   1.273  25.609  0.00  0.00    +0.149 HD
BRANCH  18  21
ATOM     21  C   UNL     1      -3.083  -1.094  24.740  0.00  0.00    +0.037 A 
ATOM     27  C   UNL     1      -2.062  -0.512  25.492  0.00  0.00    +0.016 A 
ATOM     28  C   UNL     1      -2.910  -2.366  24.193  0.00  0.00    +0.016 A 
ATOM     29  C   UNL     1      -0.695  -2.475  25.152  0.00  0.00    +0.121 A 
ATOM     30  C   UNL     1      -0.868  -1.204  25.699  0.00  0.00    +0.046 A 
ATOM     31  C   UNL     1      -1.716  -3.057  24.400  0.00  0.00    +0.046 A 
BRANCH  29   5
ATOM      5  O   UNL     1       0.471  -3.150  25.351  0.00  0.00    -0.491 OA
BRANCH   5  25
ATOM     25  C   UNL     1       1.682  -2.409  25.208  0.00  0.00    +0.244 C 
BRANCH  25  22
ATOM     22  C   UNL     1       1.664  -1.697  23.865  0.00  0.00    +0.125 C 
BRANCH  22   8
ATOM      3  O   UNL     1       5.151   0.211  22.519  0.00  0.00    -0.377 OA
ATOM      8  N   UNL     1       2.783  -0.763  23.761  0.00  0.00    -0.295 NA
ATOM     19  C   UNL     1       2.737  -0.033  22.486  0.00  0.00    +0.112 C 
ATOM     20  C   UNL     1       4.066  -1.467  23.893  0.00  0.00    +0.112 C 
ATOM     23  C   UNL     1       3.921   0.926  22.396  0.00  0.00    +0.175 C 
ATOM     24  C   UNL     1       5.217  -0.474  23.770  0.00  0.00    +0.175 C 
ENDBRANCH  22   8
ENDBRANCH  25  22
ENDBRANCH   5  25
ENDBRANCH  29   5
ENDBRANCH  18  21
ENDBRANCH  11   7
BRANCH  12   1
ATOM      1  O   UNL     1      -6.631   1.159  27.177  0.00  0.00    -0.390 OA
ATOM     39  H   UNL     1      -6.326   1.204  28.099  0.00  0.00    +0.210 HD
ENDBRANCH  12   1
TORSDOF 9
ENDMDL
MODEL 3
REMARK VINA RESULT:      11.0      1.902      3.494
REMARK  Name = 26742268
REMARK  9 active torsions:
REMARK  status: ('A' for Active; 'I' for Inactive)
REMARK    1  A    between atoms: O_1  and  C_12
REMARK    2  A    between atoms: O_5  and  C_25
REMARK    3  A    between atoms: O_5  and  C_29
REMARK    4  A    between atoms: N_7  and  C_11
REMARK    5  A    between atoms: N_8  and  C_22
REMARK    6  A    between atoms: N_9  and  C_26
REMARK    7  A    between atoms: C_18  and  C_21
REMARK    8  A    between atoms: C_22  and  C_25
REMARK    9  A    between atoms: C_34  and  C_37
REMARK                            x       y       z     vdW  Elec       q    Type
REMARK                         _______ _______ _______ _____ _____    ______ ____
ROOT
ATOM      2  O   UNL     1      -3.401   4.383  27.153  0.00  0.00    -0.252 OA
ATOM      6  N   UNL     1      -4.859   3.953  25.411  0.00  0.00    -0.284 N 
ATOM      9  N   UNL     1      -2.522   3.903  25.056  0.00  0.00    -0.269 N 
ATOM     11  C   UNL     1      -5.215   2.018  23.838  0.00  0.00    +0.119 C 
ATOM     12  C   UNL     1      -5.813   1.191  24.991  0.00  0.00    +0.136 C 
ATOM     13  C   UNL     1      -6.999   1.828  25.723  0.00  0.00    +0.035 C 
ATOM     14  C   UNL     1      -5.172   3.538  24.037  0.00  0.00    +0.134 C 
ATOM     15  C   UNL     1      -6.577   2.820  26.810  0.00  0.00    +0.022 C 
ATOM     16  C   UNL     1      -6.022   4.137  26.281  0.00  0.00    +0.109 C 
ATOM     17  C   UNL     1      -3.564   4.102  25.962  0.00  0.00    +0.307 C 
ATOM     40  H   UNL     1      -2.711   4.069  24.074  0.00  0.00    +0.156 HD
ENDROOT
BRANCH   9  26
ATOM     26  C   UNL     1      -1.220   3.410  25.321  0.00  0.00    +0.036 A 
ATOM     32  C   UNL     1      -0.814   3.182  26.636  0.00  0.00    +0.042 A 
ATOM     33  C   UNL     1      -0.343   3.155  24.267  0.00  0.00    +0.023 A 
ATOM     34  C   UNL     1       0.468   2.698  26.896  0.00  0.00    +0.054 A 
ATOM     35  C   UNL     1       0.939   2.671  24.526  0.00  0.00    +0.003 A 
ATOM     36  C   UNL     1       1.345   2.443  25.841  0.00  0.00    +0.019 A 
BRANCH  34  37
ATOM     10  N   UNL     1       1.219   2.272  29.337  0.00  0.00    -0.191 NA
ATOM     37  C   UNL     1       0.883   2.463  28.243  0.00  0.00    +0.099 C 
ENDBRANCH  34  37
ENDBRANCH   9  26
BRANCH  11   7
ATOM      4  O   UNL     1      -3.657   0.213  25.434  0.00  0.00    -0.270 OA
ATOM      7  N   UNL     1      -3.895   1.507  23.526  0.00  0.00    -0.305 N 
ATOM     18  C   UNL     1      -3.225   0.636  24.365  0.00  0.00    +0.244 C 
ATOM     38  H   UNL     1      -3.520   1.722  22.608  0.00  0.00    +0.149 HD
BRANCH  18  21
ATOM     21  C   UNL     1      -1.870   0.226  23.916  0.00  0.00    +0.037 A 
ATOM     27  C   UNL     1      -1.061  -0.544  24.752  0.00  0.00    +0.016 A 
ATOM     28  C   UNL     1      -1.406   0.612  22.658  0.00  0.00    +0.016 A 
ATOM     29  C   UNL     1       0.675  -0.544  23.072  0.00  0.00    +0.121 A 
ATOM     30  C   UNL     1       0.212  -0.930  24.330  0.00  0.00    +0.046 A 
ATOM     31  C   UNL     1      -0.133   0.226  22.236  0.00  0.00    +0.046 A 
BRANCH  29   5
ATOM      5  O   UNL     1       1.918  -0.919  22.660  0.00  0.00    -0.491 OA
BRANCH   5  25
ATOM     25  C   UNL     1       2.477  -0.209  21.555  0.00  0.00    +0.244 C 
BRANCH  25  22
ATOM     22  C   UNL     1       3.480   0.804  22.082  0.00  0.00    +0.125 C 
BRANCH  22   8
ATOM      3  O   UNL     1       6.001  -0.833  25.010  0.00  0.00    -0.377 OA
ATOM      8  N   UNL     1       4.606   0.129  22.724  0.00  0.00    -0.295 NA
ATOM     19  C   UNL     1       4.152  -1.062  23.457  0.00  0.00    +0.112 C 
ATOM     20  C   UNL     1       5.312   1.041  23.634  0.00  0.00    +0.112 C 
ATOM     23  C   UNL     1       5.342  -1.742  24.128  0.00  0.00    +0.175 C 
ATOM     24  C   UNL     1       6.474   0.311  24.301  0.00  0.00    +0.175 C 
ENDBRANCH  22   8
ENDBRANCH  25  22
ENDBRANCH   5  25
ENDBRANCH  29   5
ENDBRANCH  18  21
ENDBRANCH  11   7
BRANCH  12   1
ATOM      1  O   UNL     1      -6.275  -0.051  24.444  0.00  0.00    -0.390 OA
ATOM     39  H   UNL     1      -7.247  -0.042  24.472  0.00  0.00    +0.210 HD
ENDBRANCH  12   1
TORSDOF 9
ENDMDL
