MODEL 1
REMARK VINA RESULT:       6.4      0.000      0.000
REMARK  Name = 71693712
REMARK  8 active torsions:
REMARK  status: ('A' for Active; 'I' for Inactive)
REMARK    1  A    between atoms: O_3  and  C_17
REMARK    2  A    between atoms: N_6  and  C_9
REMARK    3  A    between atoms: N_7  and  C_24
REMARK    4  A    between atoms: N_8  and  C_26
REMARK    5  A    between atoms: C_10  and  C_17
REMARK    6  A    between atoms: C_11  and  C_19
REMARK    7  A    between atoms: C_26  and  C_27
REMARK    8  A    between atoms: C_26  and  C_28
REMARK                            x       y       z     vdW  Elec       q    Type
REMARK                         _______ _______ _______ _____ _____    ______ ____
ROOT
ATOM      1  O   UNL     1      -4.219   0.347  24.967  0.00  0.00    -0.361 OA
ATOM      4  O   UNL     1      -5.257   3.084  26.737  0.00  0.00    -0.273 OA
ATOM      6  N   UNL     1      -3.908   3.033  24.834  0.00  0.00    -0.288 N 
ATOM     10  C   UNL     1      -3.612   2.334  23.577  0.00  0.00    +0.135 C 
ATOM     11  C   UNL     1      -3.579   0.795  23.768  0.00  0.00    +0.171 C 
ATOM     14  C   UNL     1      -4.836   2.514  25.732  0.00  0.00    +0.242 C 
ATOM     18  C   UNL     1      -5.324   1.137  25.352  0.00  0.00    +0.256 C 
ENDROOT
BRANCH   6   9
ATOM      2  O   UNL     1      -1.415   6.334  24.233  0.00  0.00    -0.380 OA
ATOM      9  C   UNL     1      -3.313   4.328  25.044  0.00  0.00    +0.081 C 
ATOM     12  C   UNL     1      -1.816   4.209  25.335  0.00  0.00    +0.050 C 
ATOM     13  C   UNL     1      -3.546   5.239  23.838  0.00  0.00    +0.050 C 
ATOM     15  C   UNL     1      -1.174   5.587  25.425  0.00  0.00    +0.161 C 
ATOM     16  C   UNL     1      -2.806   6.559  24.009  0.00  0.00    +0.161 C 
ENDBRANCH   6   9
BRANCH  11  19
ATOM     19  C   UNL     1      -2.154   0.277  23.802  0.00  0.00    -0.017 A 
ATOM     20  C   UNL     1      -1.104   1.094  23.380  0.00  0.00    +0.008 A 
ATOM     21  C   UNL     1      -1.892  -1.017  24.255  0.00  0.00    +0.008 A 
ATOM     22  C   UNL     1       0.206   0.616  23.412  0.00  0.00    +0.024 A 
ATOM     23  C   UNL     1      -0.582  -1.493  24.288  0.00  0.00    +0.024 A 
ATOM     24  C   UNL     1       0.468  -0.676  23.866  0.00  0.00    +0.035 A 
BRANCH  24   7
ATOM      5  O   UNL     1       3.062   0.734  23.332  0.00  0.00    -0.253 OA
ATOM      7  N   UNL     1       1.779  -1.153  23.898  0.00  0.00    -0.269 N 
ATOM      8  N   UNL     1       4.084  -1.291  23.779  0.00  0.00    -0.297 N 
ATOM     25  C   UNL     1       2.974  -0.451  23.639  0.00  0.00    +0.304 C 
ATOM     30  H   UNL     1       1.883  -2.135  24.143  0.00  0.00    +0.156 HD
ATOM     31  H   UNL     1       3.924  -2.276  23.961  0.00  0.00    +0.151 HD
BRANCH   8  26
ATOM     26  C   UNL     1       5.442  -0.842  23.572  0.00  0.00    +0.068 C 
ATOM     27  C   UNL     1       5.614  -0.289  22.163  0.00  0.00    +0.027 C 
ATOM     28  C   UNL     1       5.824   0.195  24.621  0.00  0.00    +0.027 C 
ENDBRANCH   8  26
ENDBRANCH  24   7
ENDBRANCH  11  19
BRANCH  10  17
ATOM     17  C   UNL     1      -4.613   2.736  22.486  0.00  0.00    +0.181 C 
BRANCH  17   3
ATOM      3  O   UNL     1      -3.887   3.252  21.389  0.00  0.00    -0.393 OA
ATOM     29  H   UNL     1      -2.950   3.043  21.539  0.00  0.00    +0.209 HD
ENDBRANCH  17   3
ENDBRANCH  10  17
TORSDOF 6
ENDMDL
MODEL 2
REMARK VINA RESULT:       6.5      1.976      2.838
REMARK  Name = 71693712
REMARK  8 active torsions:
REMARK  status: ('A' for Active; 'I' for Inactive)
REMARK    1  A    between atoms: O_3  and  C_17
REMARK    2  A    between atoms: N_6  and  C_9
REMARK    3  A    between atoms: N_7  and  C_24
REMARK    4  A    between atoms: N_8  and  C_26
REMARK    5  A    between atoms: C_10  and  C_17
REMARK    6  A    between atoms: C_11  and  C_19
REMARK    7  A    between atoms: C_26  and  C_27
REMARK    8  A    between atoms: C_26  and  C_28
REMARK                            x       y       z     vdW  Elec       q    Type
REMARK                         _______ _______ _______ _____ _____    ______ ____
ROOT
ATOM      1  O   UNL     1      -1.482  -1.185  23.656  0.00  0.00    -0.361 OA
ATOM      4  O   UNL     1      -3.560  -0.261  26.211  0.00  0.00    -0.273 OA
ATOM      6  N   UNL     1      -2.470   1.119  24.678  0.00  0.00    -0.288 N 
ATOM     10  C   UNL     1      -1.965   1.242  23.305  0.00  0.00    +0.135 C 
ATOM     11  C   UNL     1      -1.205  -0.032  22.854  0.00  0.00    +0.171 C 
ATOM     14  C   UNL     1      -2.988  -0.089  25.136  0.00  0.00    +0.242 C 
ATOM     18  C   UNL     1      -2.801  -1.225  24.159  0.00  0.00    +0.256 C 
ENDROOT
BRANCH   6   9
ATOM      2  O   UNL     1      -3.039   5.139  25.674  0.00  0.00    -0.380 OA
ATOM      9  C   UNL     1      -2.537   2.311  25.484  0.00  0.00    +0.081 C 
ATOM     12  C   UNL     1      -1.529   3.358  25.008  0.00  0.00    +0.050 C 
ATOM     13  C   UNL     1      -3.950   2.896  25.479  0.00  0.00    +0.050 C 
ATOM     15  C   UNL     1      -1.699   4.659  25.782  0.00  0.00    +0.161 C 
ATOM     16  C   UNL     1      -3.985   4.223  26.224  0.00  0.00    +0.161 C 
ENDBRANCH   6   9
BRANCH  11  19
ATOM     19  C   UNL     1       0.296   0.184  22.886  0.00  0.00    -0.017 A 
ATOM     20  C   UNL     1       0.852   1.094  23.787  0.00  0.00    +0.008 A 
ATOM     21  C   UNL     1       1.123  -0.527  22.015  0.00  0.00    +0.008 A 
ATOM     22  C   UNL     1       2.232   1.291  23.816  0.00  0.00    +0.024 A 
ATOM     23  C   UNL     1       2.503  -0.330  22.045  0.00  0.00    +0.024 A 
ATOM     24  C   UNL     1       3.057   0.580  22.946  0.00  0.00    +0.035 A 
BRANCH  24   7
ATOM      5  O   UNL     1       5.277  -1.316  23.640  0.00  0.00    -0.253 OA
ATOM      7  N   UNL     1       4.439   0.778  22.976  0.00  0.00    -0.269 N 
ATOM      8  N   UNL     1       6.714   0.445  23.217  0.00  0.00    -0.297 N 
ATOM     25  C   UNL     1       5.450  -0.146  23.310  0.00  0.00    +0.304 C 
ATOM     30  H   UNL     1       4.754   1.711  22.722  0.00  0.00    +0.156 HD
ATOM     31  H   UNL     1       6.769   1.437  23.010  0.00  0.00    +0.151 HD
BRANCH   8  26
ATOM     26  C   UNL     1       7.939  -0.267  23.503  0.00  0.00    +0.068 C 
ATOM     27  C   UNL     1       8.223  -1.299  22.419  0.00  0.00    +0.027 C 
ATOM     28  C   UNL     1       9.098   0.711  23.651  0.00  0.00    +0.027 C 
ENDBRANCH   8  26
ENDBRANCH  24   7
ENDBRANCH  11  19
BRANCH  10  17
ATOM     17  C   UNL     1      -3.106   1.580  22.336  0.00  0.00    +0.181 C 
BRANCH  17   3
ATOM      3  O   UNL     1      -2.541   2.106  21.154  0.00  0.00    -0.393 OA
ATOM     29  H   UNL     1      -1.608   1.834  21.133  0.00  0.00    +0.209 HD
ENDBRANCH  17   3
ENDBRANCH  10  17
TORSDOF 6
ENDMDL
MODEL 3
REMARK VINA RESULT:       7.8      1.997      4.281
REMARK  Name = 71693712
REMARK  8 active torsions:
REMARK  status: ('A' for Active; 'I' for Inactive)
REMARK    1  A    between atoms: O_3  and  C_17
REMARK    2  A    between atoms: N_6  and  C_9
REMARK    3  A    between atoms: N_7  and  C_24
REMARK    4  A    between atoms: N_8  and  C_26
REMARK    5  A    between atoms: C_10  and  C_17
REMARK    6  A    between atoms: C_11  and  C_19
REMARK    7  A    between atoms: C_26  and  C_27
REMARK    8  A    between atoms: C_26  and  C_28
REMARK                            x       y       z     vdW  Elec       q    Type
REMARK                         _______ _______ _______ _____ _____    ______ ____
ROOT
ATOM      1  O   UNL     1      -3.259   3.648  23.594  0.00  0.00    -0.361 OA
ATOM      4  O   UNL     1      -5.968   1.576  23.332  0.00  0.00    -0.273 OA
ATOM      6  N   UNL     1      -4.206   1.449  24.857  0.00  0.00    -0.288 N 
ATOM     10  C   UNL     1      -3.222   2.210  25.638  0.00  0.00    +0.135 C 
ATOM     11  C   UNL     1      -2.544   3.317  24.789  0.00  0.00    +0.171 C 
ATOM     14  C   UNL     1      -5.025   2.090  23.931  0.00  0.00    +0.242 C 
ATOM     18  C   UNL     1      -4.661   3.540  23.720  0.00  0.00    +0.256 C 
ENDROOT
BRANCH   6   9
ATOM      2  O   UNL     1      -3.405  -2.648  25.066  0.00  0.00    -0.380 OA
ATOM      9  C   UNL     1      -4.388   0.055  25.171  0.00  0.00    +0.081 C 
ATOM     12  C   UNL     1      -4.454  -0.794  23.901  0.00  0.00    +0.050 C 
ATOM     13  C   UNL     1      -3.272  -0.449  26.088  0.00  0.00    +0.050 C 
ATOM     15  C   UNL     1      -4.513  -2.276  24.247  0.00  0.00    +0.161 C 
ATOM     16  C   UNL     1      -3.396  -1.950  26.311  0.00  0.00    +0.161 C 
ENDBRANCH   6   9
BRANCH  11  19
ATOM     19  C   UNL     1      -1.144   2.908  24.373  0.00  0.00    -0.017 A 
ATOM     20  C   UNL     1      -0.185   3.883  24.094  0.00  0.00    +0.008 A 
ATOM     21  C   UNL     1      -0.813   1.556  24.268  0.00  0.00    +0.008 A 
ATOM     22  C   UNL     1       1.102   3.507  23.712  0.00  0.00    +0.024 A 
ATOM     23  C   UNL     1       0.474   1.180  23.886  0.00  0.00    +0.024 A 
ATOM     24  C   UNL     1       1.432   2.156  23.608  0.00  0.00    +0.035 A 
BRANCH  24   7
ATOM      5  O   UNL     1       2.799  -0.512  23.747  0.00  0.00    -0.253 OA
ATOM      7  N   UNL     1       2.720   1.779  23.226  0.00  0.00    -0.269 N 
ATOM      8  N   UNL     1       4.633   0.546  22.820  0.00  0.00    -0.297 N 
ATOM     25  C   UNL     1       3.324   0.508  23.310  0.00  0.00    +0.304 C 
ATOM     30  H   UNL     1       3.297   2.521  22.835  0.00  0.00    +0.156 HD
ATOM     31  H   UNL     1       5.020   1.444  22.546  0.00  0.00    +0.151 HD
BRANCH   8  26
ATOM     26  C   UNL     1       5.494  -0.614  22.783  0.00  0.00    +0.068 C 
ATOM     27  C   UNL     1       6.942  -0.214  23.039  0.00  0.00    +0.027 C 
ATOM     28  C   UNL     1       5.024  -1.656  23.791  0.00  0.00    +0.027 C 
ENDBRANCH   8  26
ENDBRANCH  24   7
ENDBRANCH  11  19
BRANCH  10  17
ATOM     17  C   UNL     1      -3.870   2.797  26.899  0.00  0.00    +0.181 C 
BRANCH  17   3
ATOM      3  O   UNL     1      -3.671   4.195  26.888  0.00  0.00    -0.393 OA
ATOM     29  H   UNL     1      -3.492   4.469  27.803  0.00  0.00    +0.209 HD
ENDBRANCH  17   3
ENDBRANCH  10  17
TORSDOF 6
ENDMDL
MODEL 4
REMARK VINA RESULT:       8.8      2.053      4.382
REMARK  Name = 71693712
REMARK  8 active torsions:
REMARK  status: ('A' for Active; 'I' for Inactive)
REMARK    1  A    between atoms: O_3  and  C_17
REMARK    2  A    between atoms: N_6  and  C_9
REMARK    3  A    between atoms: N_7  and  C_24
REMARK    4  A    between atoms: N_8  and  C_26
REMARK    5  A    between atoms: C_10  and  C_17
REMARK    6  A    between atoms: C_11  and  C_19
REMARK    7  A    between atoms: C_26  and  C_27
REMARK    8  A    between atoms: C_26  and  C_28
REMARK                            x       y       z     vdW  Elec       q    Type
REMARK                         _______ _______ _______ _____ _____    ______ ____
ROOT
ATOM      1  O   UNL     1      -2.157   3.176  23.182  0.00  0.00    -0.361 OA
ATOM      4  O   UNL     1      -5.222   1.658  23.110  0.00  0.00    -0.273 OA
ATOM      6  N   UNL     1      -3.465   1.275  24.597  0.00  0.00    -0.288 N 
ATOM     10  C   UNL     1      -2.327   1.872  25.307  0.00  0.00    +0.135 C 
ATOM     11  C   UNL     1      -1.478   2.778  24.378  0.00  0.00    +0.171 C 
ATOM     14  C   UNL     1      -4.177   2.011  23.654  0.00  0.00    +0.242 C 
ATOM     18  C   UNL     1      -3.549   3.349  23.348  0.00  0.00    +0.256 C 
ENDROOT
BRANCH   6   9
ATOM      2  O   UNL     1      -3.445  -2.880  25.060  0.00  0.00    -0.380 OA
ATOM      9  C   UNL     1      -3.901  -0.038  24.999  0.00  0.00    +0.081 C 
ATOM     12  C   UNL     1      -4.145  -0.935  23.785  0.00  0.00    +0.050 C 
ATOM     13  C   UNL     1      -2.886  -0.686  25.941  0.00  0.00    +0.050 C 
ATOM     15  C   UNL     1      -4.477  -2.356  24.224  0.00  0.00    +0.161 C 
ATOM     16  C   UNL     1      -3.286  -2.121  26.259  0.00  0.00    +0.161 C 
ENDBRANCH   6   9
BRANCH  11  19
ATOM     19  C   UNL     1      -0.198   2.083  23.954  0.00  0.00    -0.017 A 
ATOM     20  C   UNL     1      -0.218   0.729  23.614  0.00  0.00    +0.008 A 
ATOM     21  C   UNL     1       1.000   2.797  23.903  0.00  0.00    +0.008 A 
ATOM     22  C   UNL     1       0.959   0.092  23.224  0.00  0.00    +0.024 A 
ATOM     23  C   UNL     1       2.177   2.159  23.512  0.00  0.00    +0.024 A 
ATOM     24  C   UNL     1       2.156   0.806  23.173  0.00  0.00    +0.035 A 
BRANCH  24   7
ATOM      5  O   UNL     1       4.834   0.671  24.521  0.00  0.00    -0.253 OA
ATOM      7  N   UNL     1       3.334   0.167  22.782  0.00  0.00    -0.269 N 
ATOM      8  N   UNL     1       5.507  -0.621  22.726  0.00  0.00    -0.297 N 
ATOM     25  C   UNL     1       4.575   0.130  23.449  0.00  0.00    +0.304 C 
ATOM     30  H   UNL     1       3.287  -0.339  21.900  0.00  0.00    +0.156 HD
ATOM     31  H   UNL     1       5.238  -0.974  21.812  0.00  0.00    +0.151 HD
BRANCH   8  26
ATOM     26  C   UNL     1       6.866  -0.830  23.170  0.00  0.00    +0.068 C 
ATOM     27  C   UNL     1       7.673  -1.554  22.101  0.00  0.00    +0.027 C 
ATOM     28  C   UNL     1       7.512   0.499  23.544  0.00  0.00    +0.027 C 
ENDBRANCH   8  26
ENDBRANCH  24   7
ENDBRANCH  11  19
BRANCH  10  17
ATOM     17  C   UNL     1      -2.805   2.641  26.546  0.00  0.00    +0.181 C 
BRANCH  17   3
ATOM      3  O   UNL     1      -2.657   4.023  26.293  0.00  0.00    -0.393 OA
ATOM     29  H   UNL     1      -1.726   4.249  26.460  0.00  0.00    +0.209 HD
ENDBRANCH  17   3
ENDBRANCH  10  17
TORSDOF 6
ENDMDL
