MODEL 1
REMARK VINA RESULT:      -5.8      0.000      0.000
REMARK  Name = 11943580
REMARK  5 active torsions:
REMARK  status: ('A' for Active; 'I' for Inactive)
REMARK    1  A    between atoms: N_4  and  C_12
REMARK    2  A    between atoms: N_4  and  C_15
REMARK    3  A    between atoms: C_6  and  C_12
REMARK    4  A    between atoms: C_7  and  C_13
REMARK    5  A    between atoms: C_15  and  C_16
REMARK                            x       y       z     vdW  Elec       q    Type
REMARK                         _______ _______ _______ _____ _____    ______ ____
ROOT
ATOM      4  N   UNL     1       0.656  -0.150  23.923  0.00  0.00    -0.311 NA
ATOM     23  H   UNL     1       1.367  -0.669  23.407  0.00  0.00    +0.122 HD
ENDROOT
BRANCH   4  12
ATOM     12  C   UNL     1      -0.661  -0.503  23.419  0.00  0.00    +0.100 C 
BRANCH  12   6
ATOM      3  N   UNL     1      -2.549  -2.115  23.778  0.00  0.00    -0.298 NA
ATOM      5  C   UNL     1      -3.250  -1.088  26.063  0.00  0.00    -0.000 C 
ATOM      6  C   UNL     1      -1.389  -1.423  24.403  0.00  0.00    +0.071 C 
ATOM      7  C   UNL     1      -4.217  -0.639  24.941  0.00  0.00    +0.028 C 
ATOM      8  C   UNL     1      -1.816  -0.671  25.682  0.00  0.00    +0.024 C 
ATOM      9  C   UNL     1      -3.288  -2.627  26.107  0.00  0.00    +0.019 C 
ATOM     10  C   UNL     1      -3.675  -1.166  23.591  0.00  0.00    +0.092 C 
ATOM     11  C   UNL     1      -2.996  -3.183  24.704  0.00  0.00    +0.085 C 
BRANCH   7  13
ATOM     13  C   UNL     1      -4.433   0.843  24.915  0.00  0.00    -0.030 C 
ATOM     14  C   UNL     1      -5.534   1.447  25.375  0.00  0.00    +0.004 C 
ENDBRANCH   7  13
ENDBRANCH  12   6
ENDBRANCH   4  12
BRANCH   4  15
ATOM     15  C   UNL     1       0.901   1.281  23.790  0.00  0.00    +0.116 C 
BRANCH  15  16
ATOM      1  O   UNL     1      -3.316   3.839  23.987  0.00  0.00    -0.453 OA
ATOM      2  O   UNL     1      -3.044   4.329  26.330  0.00  0.00    -0.453 OA
ATOM     16  C   UNL     1      -0.140   2.098  24.505  0.00  0.00    -0.030 A 
ATOM     17  C   UNL     1      -1.246   2.558  23.799  0.00  0.00    +0.054 A 
ATOM     18  C   UNL     1       0.027   2.376  25.866  0.00  0.00    +0.009 A 
ATOM     19  C   UNL     1      -2.175   3.302  24.498  0.00  0.00    +0.167 A 
ATOM     20  C   UNL     1      -0.927   3.133  26.550  0.00  0.00    +0.050 A 
ATOM     21  C   UNL     1      -2.019   3.582  25.836  0.00  0.00    +0.166 A 
ATOM     22  C   UNL     1      -3.862   4.487  25.153  0.00  0.00    +0.466 C 
ENDBRANCH  15  16
ENDBRANCH   4  15
TORSDOF 5
ENDMDL
MODEL 2
REMARK VINA RESULT:      -5.5      1.920      3.722
REMARK  Name = 11943580
REMARK  5 active torsions:
REMARK  status: ('A' for Active; 'I' for Inactive)
REMARK    1  A    between atoms: N_4  and  C_12
REMARK    2  A    between atoms: N_4  and  C_15
REMARK    3  A    between atoms: C_6  and  C_12
REMARK    4  A    between atoms: C_7  and  C_13
REMARK    5  A    between atoms: C_15  and  C_16
REMARK                            x       y       z     vdW  Elec       q    Type
REMARK                         _______ _______ _______ _____ _____    ______ ____
ROOT
ATOM      4  N   UNL     1      -0.475   3.892  25.241  0.00  0.00    -0.311 NA
ATOM     23  H   UNL     1      -0.174   3.606  24.310  0.00  0.00    +0.122 HD
ENDROOT
BRANCH   4  12
ATOM     12  C   UNL     1      -0.801   2.714  26.028  0.00  0.00    +0.100 C 
BRANCH  12   6
ATOM      3  N   UNL     1      -0.256   1.444  23.935  0.00  0.00    -0.298 NA
ATOM      5  C   UNL     1      -1.001  -0.853  24.902  0.00  0.00    -0.000 C 
ATOM      6  C   UNL     1      -0.163   1.462  25.420  0.00  0.00    +0.071 C 
ATOM      7  C   UNL     1      -2.077  -0.288  23.944  0.00  0.00    +0.028 C 
ATOM      8  C   UNL     1      -0.748   0.169  26.028  0.00  0.00    +0.024 C 
ATOM      9  C   UNL     1       0.302  -0.984  24.094  0.00  0.00    +0.019 C 
ATOM     10  C   UNL     1      -1.644   1.132  23.509  0.00  0.00    +0.092 C 
ATOM     11  C   UNL     1       0.631   0.365  23.436  0.00  0.00    +0.085 C 
BRANCH   7  13
ATOM     13  C   UNL     1      -3.451  -0.293  24.541  0.00  0.00    -0.030 C 
ATOM     14  C   UNL     1      -4.397  -1.190  24.236  0.00  0.00    +0.004 C 
ENDBRANCH   7  13
ENDBRANCH  12   6
ENDBRANCH   4  12
BRANCH   4  15
ATOM     15  C   UNL     1      -1.624   4.783  25.132  0.00  0.00    +0.116 C 
BRANCH  15  16
ATOM      1  O   UNL     1      -5.692   2.620  26.905  0.00  0.00    -0.453 OA
ATOM      2  O   UNL     1      -6.435   1.956  24.712  0.00  0.00    -0.453 OA
ATOM     16  C   UNL     1      -2.913   4.021  24.982  0.00  0.00    -0.030 A 
ATOM     17  C   UNL     1      -3.657   3.714  26.115  0.00  0.00    +0.054 A 
ATOM     18  C   UNL     1      -3.336   3.641  23.703  0.00  0.00    +0.009 A 
ATOM     19  C   UNL     1      -4.832   3.015  25.927  0.00  0.00    +0.167 A 
ATOM     20  C   UNL     1      -4.529   2.933  23.540  0.00  0.00    +0.050 A 
ATOM     21  C   UNL     1      -5.255   2.635  24.675  0.00  0.00    +0.166 A 
ATOM     22  C   UNL     1      -6.705   1.951  26.128  0.00  0.00    +0.466 C 
ENDBRANCH  15  16
ENDBRANCH   4  15
TORSDOF 5
ENDMDL
MODEL 3
REMARK VINA RESULT:      -4.8      2.491      5.133
REMARK  Name = 11943580
REMARK  5 active torsions:
REMARK  status: ('A' for Active; 'I' for Inactive)
REMARK    1  A    between atoms: N_4  and  C_12
REMARK    2  A    between atoms: N_4  and  C_15
REMARK    3  A    between atoms: C_6  and  C_12
REMARK    4  A    between atoms: C_7  and  C_13
REMARK    5  A    between atoms: C_15  and  C_16
REMARK                            x       y       z     vdW  Elec       q    Type
REMARK                         _______ _______ _______ _____ _____    ______ ____
ROOT
ATOM      4  N   UNL     1       0.489   1.714  25.254  0.00  0.00    -0.311 NA
ATOM     23  H   UNL     1       1.026   1.237  25.977  0.00  0.00    +0.122 HD
ENDROOT
BRANCH   4  12
ATOM     12  C   UNL     1      -0.826   2.052  25.773  0.00  0.00    +0.100 C 
BRANCH  12   6
ATOM      3  N   UNL     1      -1.924   4.302  25.928  0.00  0.00    -0.298 NA
ATOM      5  C   UNL     1      -3.705   3.776  24.107  0.00  0.00    -0.000 C 
ATOM      6  C   UNL     1      -1.420   3.242  25.014  0.00  0.00    +0.071 C 
ATOM      7  C   UNL     1      -4.326   3.687  25.522  0.00  0.00    +0.028 C 
ATOM      8  C   UNL     1      -2.516   2.799  24.021  0.00  0.00    +0.024 C 
ATOM      9  C   UNL     1      -3.146   5.201  23.946  0.00  0.00    +0.019 C 
ATOM     10  C   UNL     1      -3.196   3.874  26.562  0.00  0.00    +0.092 C 
ATOM     11  C   UNL     1      -2.199   5.512  25.116  0.00  0.00    +0.085 C 
BRANCH   7  13
ATOM     13  C   UNL     1      -5.086   2.415  25.747  0.00  0.00    -0.030 C 
ATOM     14  C   UNL     1      -6.007   1.934  24.904  0.00  0.00    +0.004 C 
ENDBRANCH   7  13
ENDBRANCH  12   6
ENDBRANCH   4  12
BRANCH   4  15
ATOM     15  C   UNL     1       0.384   0.858  24.078  0.00  0.00    +0.116 C 
BRANCH  15  16
ATOM      1  O   UNL     1      -4.109  -1.122  23.557  0.00  0.00    -0.453 OA
ATOM      2  O   UNL     1      -3.482  -3.137  24.720  0.00  0.00    -0.453 OA
ATOM     16  C   UNL     1      -0.631  -0.237  24.269  0.00  0.00    -0.030 A 
ATOM     17  C   UNL     1      -1.916  -0.067  23.769  0.00  0.00    +0.054 A 
ATOM     18  C   UNL     1      -0.256  -1.404  24.945  0.00  0.00    +0.009 A 
ATOM     19  C   UNL     1      -2.811  -1.099  23.967  0.00  0.00    +0.167 A 
ATOM     20  C   UNL     1      -1.181  -2.433  25.134  0.00  0.00    +0.050 A 
ATOM     21  C   UNL     1      -2.453  -2.249  24.632  0.00  0.00    +0.166 A 
ATOM     22  C   UNL     1      -4.527  -2.416  24.037  0.00  0.00    +0.466 C 
ENDBRANCH  15  16
ENDBRANCH   4  15
TORSDOF 5
ENDMDL
MODEL 4
REMARK VINA RESULT:      -4.7      2.729      6.078
REMARK  Name = 11943580
REMARK  5 active torsions:
REMARK  status: ('A' for Active; 'I' for Inactive)
REMARK    1  A    between atoms: N_4  and  C_12
REMARK    2  A    between atoms: N_4  and  C_15
REMARK    3  A    between atoms: C_6  and  C_12
REMARK    4  A    between atoms: C_7  and  C_13
REMARK    5  A    between atoms: C_15  and  C_16
REMARK                            x       y       z     vdW  Elec       q    Type
REMARK                         _______ _______ _______ _____ _____    ______ ____
ROOT
ATOM      4  N   UNL     1      -5.258   1.849  24.584  0.00  0.00    -0.311 NA
ATOM     23  H   UNL     1      -4.454   1.856  23.958  0.00  0.00    +0.122 HD
ENDROOT
BRANCH   4  12
ATOM     12  C   UNL     1      -4.949   2.621  25.776  0.00  0.00    +0.100 C 
BRANCH  12   6
ATOM      3  N   UNL     1      -3.592   3.820  24.042  0.00  0.00    -0.298 NA
ATOM      5  C   UNL     1      -1.753   4.574  25.719  0.00  0.00    -0.000 C 
ATOM      6  C   UNL     1      -4.152   3.878  25.418  0.00  0.00    +0.071 C 
ATOM      7  C   UNL     1      -1.262   3.376  24.872  0.00  0.00    +0.028 C 
ATOM      8  C   UNL     1      -3.045   4.169  26.455  0.00  0.00    +0.024 C 
ATOM      9  C   UNL     1      -2.113   5.706  24.740  0.00  0.00    +0.019 C 
ATOM     10  C   UNL     1      -2.438   2.887  23.993  0.00  0.00    +0.092 C 
ATOM     11  C   UNL     1      -3.103   5.175  23.690  0.00  0.00    +0.085 C 
BRANCH   7  13
ATOM     13  C   UNL     1      -0.688   2.269  25.702  0.00  0.00    -0.030 C 
ATOM     14  C   UNL     1       0.271   2.440  26.619  0.00  0.00    +0.004 C 
ENDBRANCH   7  13
ENDBRANCH  12   6
ENDBRANCH   4  12
BRANCH   4  15
ATOM     15  C   UNL     1      -5.603   0.474  24.924  0.00  0.00    +0.116 C 
BRANCH  15  16
ATOM      1  O   UNL     1      -0.935  -0.848  25.842  0.00  0.00    -0.453 OA
ATOM      2  O   UNL     1      -1.131  -2.869  24.545  0.00  0.00    -0.453 OA
ATOM     16  C   UNL     1      -4.420  -0.448  24.801  0.00  0.00    -0.030 A 
ATOM     17  C   UNL     1      -3.231  -0.118  25.440  0.00  0.00    +0.054 A 
ATOM     18  C   UNL     1      -4.544  -1.620  24.044  0.00  0.00    +0.009 A 
ATOM     19  C   UNL     1      -2.174  -0.995  25.299  0.00  0.00    +0.167 A 
ATOM     20  C   UNL     1      -3.459  -2.490  23.916  0.00  0.00    +0.050 A 
ATOM     21  C   UNL     1      -2.286  -2.148  24.557  0.00  0.00    +0.166 A 
ATOM     22  C   UNL     1      -0.280  -2.039  25.361  0.00  0.00    +0.466 C 
ENDBRANCH  15  16
ENDBRANCH   4  15
TORSDOF 5
ENDMDL
MODEL 5
REMARK VINA RESULT:      -4.1      1.601      2.519
REMARK  Name = 11943580
REMARK  5 active torsions:
REMARK  status: ('A' for Active; 'I' for Inactive)
REMARK    1  A    between atoms: N_4  and  C_12
REMARK    2  A    between atoms: N_4  and  C_15
REMARK    3  A    between atoms: C_6  and  C_12
REMARK    4  A    between atoms: C_7  and  C_13
REMARK    5  A    between atoms: C_15  and  C_16
REMARK                            x       y       z     vdW  Elec       q    Type
REMARK                         _______ _______ _______ _____ _____    ______ ____
ROOT
ATOM      4  N   UNL     1       0.170   2.625  24.121  0.00  0.00    -0.311 NA
ATOM     23  H   UNL     1       1.064   2.790  23.659  0.00  0.00    +0.122 HD
ENDROOT
BRANCH   4  12
ATOM     12  C   UNL     1      -0.396   1.373  23.646  0.00  0.00    +0.100 C 
BRANCH  12   6
ATOM      3  N   UNL     1      -0.204  -1.100  24.014  0.00  0.00    -0.298 NA
ATOM      5  C   UNL     1      -1.592  -1.078  26.214  0.00  0.00    -0.000 C 
ATOM      6  C   UNL     1      -0.134   0.244  24.646  0.00  0.00    +0.071 C 
ATOM      7  C   UNL     1      -2.445  -1.602  25.035  0.00  0.00    +0.028 C 
ATOM      8  C   UNL     1      -1.075   0.333  25.868  0.00  0.00    +0.024 C 
ATOM      9  C   UNL     1      -0.367  -2.003  26.336  0.00  0.00    +0.019 C 
ATOM     10  C   UNL     1      -1.616  -1.466  23.735  0.00  0.00    +0.092 C 
ATOM     11  C   UNL     1       0.345  -2.086  24.976  0.00  0.00    +0.085 C 
BRANCH   7  13
ATOM     13  C   UNL     1      -3.773  -0.917  24.924  0.00  0.00    -0.030 C 
ATOM     14  C   UNL     1      -4.617  -1.082  23.899  0.00  0.00    +0.004 C 
ENDBRANCH   7  13
ENDBRANCH  12   6
ENDBRANCH   4  12
BRANCH   4  15
ATOM     15  C   UNL     1      -0.731   3.740  23.856  0.00  0.00    +0.116 C 
BRANCH  15  16
ATOM      1  O   UNL     1      -5.363   2.083  24.270  0.00  0.00    -0.453 OA
ATOM      2  O   UNL     1      -5.654   3.093  26.438  0.00  0.00    -0.453 OA
ATOM     16  C   UNL     1      -2.042   3.587  24.579  0.00  0.00    -0.030 A 
ATOM     17  C   UNL     1      -3.067   2.861  23.983  0.00  0.00    +0.054 A 
ATOM     18  C   UNL     1      -2.200   4.178  25.838  0.00  0.00    +0.009 A 
ATOM     19  C   UNL     1      -4.250   2.747  24.684  0.00  0.00    +0.167 A 
ATOM     20  C   UNL     1      -3.408   4.048  26.527  0.00  0.00    +0.050 A 
ATOM     21  C   UNL     1      -4.415   3.325  25.922  0.00  0.00    +0.166 A 
ATOM     22  C   UNL     1      -6.248   2.306  25.387  0.00  0.00    +0.466 C 
ENDBRANCH  15  16
ENDBRANCH   4  15
TORSDOF 5
ENDMDL
MODEL 6
REMARK VINA RESULT:      -4.0      2.682      5.072
REMARK  Name = 11943580
REMARK  5 active torsions:
REMARK  status: ('A' for Active; 'I' for Inactive)
REMARK    1  A    between atoms: N_4  and  C_12
REMARK    2  A    between atoms: N_4  and  C_15
REMARK    3  A    between atoms: C_6  and  C_12
REMARK    4  A    between atoms: C_7  and  C_13
REMARK    5  A    between atoms: C_15  and  C_16
REMARK                            x       y       z     vdW  Elec       q    Type
REMARK                         _______ _______ _______ _____ _____    ______ ____
ROOT
ATOM      4  N   UNL     1      -0.541   3.115  25.123  0.00  0.00    -0.311 NA
ATOM     23  H   UNL     1       0.055   3.913  24.905  0.00  0.00    +0.122 HD
ENDROOT
BRANCH   4  12
ATOM     12  C   UNL     1      -1.379   3.435  26.267  0.00  0.00    +0.100 C 
BRANCH  12   6
ATOM      3  N   UNL     1      -3.863   3.102  26.201  0.00  0.00    -0.298 NA
ATOM      5  C   UNL     1      -4.085   3.782  23.700  0.00  0.00    -0.000 C 
ATOM      6  C   UNL     1      -2.732   3.987  25.812  0.00  0.00    +0.071 C 
ATOM      7  C   UNL     1      -4.165   2.245  23.859  0.00  0.00    +0.028 C 
ATOM      8  C   UNL     1      -2.752   4.277  24.295  0.00  0.00    +0.024 C 
ATOM      9  C   UNL     1      -5.221   4.386  24.545  0.00  0.00    +0.019 C 
ATOM     10  C   UNL     1      -3.892   1.893  25.341  0.00  0.00    +0.092 C 
ATOM     11  C   UNL     1      -5.124   3.852  25.984  0.00  0.00    +0.085 C 
BRANCH   7  13
ATOM     13  C   UNL     1      -3.242   1.513  22.933  0.00  0.00    -0.030 C 
ATOM     14  C   UNL     1      -2.493   2.108  21.998  0.00  0.00    +0.004 C 
ENDBRANCH   7  13
ENDBRANCH  12   6
ENDBRANCH   4  12
BRANCH   4  15
ATOM     15  C   UNL     1       0.286   1.945  25.391  0.00  0.00    +0.116 C 
BRANCH  15  16
ATOM      1  O   UNL     1      -3.153  -1.533  26.061  0.00  0.00    -0.453 OA
ATOM      2  O   UNL     1      -2.414  -2.796  24.147  0.00  0.00    -0.453 OA
ATOM     16  C   UNL     1      -0.417   0.665  25.028  0.00  0.00    -0.030 A 
ATOM     17  C   UNL     1      -1.485   0.231  25.804  0.00  0.00    +0.054 A 
ATOM     18  C   UNL     1       0.020  -0.061  23.913  0.00  0.00    +0.009 A 
ATOM     19  C   UNL     1      -2.099  -0.947  25.431  0.00  0.00    +0.167 A 
ATOM     20  C   UNL     1      -0.618  -1.252  23.557  0.00  0.00    +0.050 A 
ATOM     21  C   UNL     1      -1.676  -1.668  24.338  0.00  0.00    +0.166 A 
ATOM     22  C   UNL     1      -3.348  -2.704  25.241  0.00  0.00    +0.466 C 
ENDBRANCH  15  16
ENDBRANCH   4  15
TORSDOF 5
ENDMDL
MODEL 7
REMARK VINA RESULT:      -3.8     14.474     17.055
REMARK  Name = 11943580
REMARK  5 active torsions:
REMARK  status: ('A' for Active; 'I' for Inactive)
REMARK    1  A    between atoms: N_4  and  C_12
REMARK    2  A    between atoms: N_4  and  C_15
REMARK    3  A    between atoms: C_6  and  C_12
REMARK    4  A    between atoms: C_7  and  C_13
REMARK    5  A    between atoms: C_15  and  C_16
REMARK                            x       y       z     vdW  Elec       q    Type
REMARK                         _______ _______ _______ _____ _____    ______ ____
ROOT
ATOM      4  N   UNL     1      -6.946  -9.578  12.936  0.00  0.00    -0.311 NA
ATOM     23  H   UNL     1      -7.282  -8.778  12.401  0.00  0.00    +0.122 HD
ENDROOT
BRANCH   4  12
ATOM     12  C   UNL     1      -6.931 -10.756  12.086  0.00  0.00    +0.100 C 
BRANCH  12   6
ATOM      3  N   UNL     1      -4.998  -9.425  11.201  0.00  0.00    -0.298 NA
ATOM      5  C   UNL     1      -5.677  -9.729   8.708  0.00  0.00    -0.000 C 
ATOM      6  C   UNL     1      -5.815 -10.659  11.042  0.00  0.00    +0.071 C 
ATOM      7  C   UNL     1      -6.058  -8.316   9.211  0.00  0.00    +0.028 C 
ATOM      8  C   UNL     1      -6.363 -10.780   9.604  0.00  0.00    +0.024 C 
ATOM      9  C   UNL     1      -4.157  -9.884   8.895  0.00  0.00    +0.019 C 
ATOM     10  C   UNL     1      -5.756  -8.240  10.726  0.00  0.00    +0.092 C 
ATOM     11  C   UNL     1      -3.789  -9.567  10.354  0.00  0.00    +0.085 C 
BRANCH   7  13
ATOM     13  C   UNL     1      -7.478  -7.951   8.906  0.00  0.00    -0.030 C 
ATOM     14  C   UNL     1      -7.837  -6.915   8.139  0.00  0.00    +0.004 C 
ENDBRANCH   7  13
ENDBRANCH  12   6
ENDBRANCH   4  12
BRANCH   4  15
ATOM     15  C   UNL     1      -7.799  -9.783  14.100  0.00  0.00    +0.116 C 
BRANCH  15  16
ATOM      1  O   UNL     1      -7.321 -10.423  18.972  0.00  0.00    -0.453 OA
ATOM      2  O   UNL     1      -4.931 -10.686  18.820  0.00  0.00    -0.453 OA
ATOM     16  C   UNL     1      -6.996 -10.027  15.350  0.00  0.00    -0.030 A 
ATOM     17  C   UNL     1      -7.649 -10.098  16.575  0.00  0.00    +0.054 A 
ATOM     18  C   UNL     1      -5.608 -10.179  15.250  0.00  0.00    +0.009 A 
ATOM     19  C   UNL     1      -6.871 -10.324  17.692  0.00  0.00    +0.167 A 
ATOM     20  C   UNL     1      -4.843 -10.406  16.396  0.00  0.00    +0.050 A 
ATOM     21  C   UNL     1      -5.506 -10.473  17.604  0.00  0.00    +0.166 A 
ATOM     22  C   UNL     1      -6.087 -10.654  19.681  0.00  0.00    +0.466 C 
ENDBRANCH  15  16
ENDBRANCH   4  15
TORSDOF 5
ENDMDL
MODEL 8
REMARK VINA RESULT:      -2.9      3.942      5.930
REMARK  Name = 11943580
REMARK  5 active torsions:
REMARK  status: ('A' for Active; 'I' for Inactive)
REMARK    1  A    between atoms: N_4  and  C_12
REMARK    2  A    between atoms: N_4  and  C_15
REMARK    3  A    between atoms: C_6  and  C_12
REMARK    4  A    between atoms: C_7  and  C_13
REMARK    5  A    between atoms: C_15  and  C_16
REMARK                            x       y       z     vdW  Elec       q    Type
REMARK                         _______ _______ _______ _____ _____    ______ ____
ROOT
ATOM      4  N   UNL     1      -0.048   0.169  24.036  0.00  0.00    -0.311 NA
ATOM     23  H   UNL     1      -1.033  -0.081  23.947  0.00  0.00    +0.122 HD
ENDROOT
BRANCH   4  12
ATOM     12  C   UNL     1       0.064   1.588  24.330  0.00  0.00    +0.100 C 
BRANCH  12   6
ATOM      3  N   UNL     1      -2.010   2.735  25.149  0.00  0.00    -0.298 NA
ATOM      5  C   UNL     1      -3.568   1.586  23.412  0.00  0.00    -0.000 C 
ATOM      6  C   UNL     1      -1.225   2.325  23.954  0.00  0.00    +0.071 C 
ATOM      7  C   UNL     1      -3.720   0.927  24.803  0.00  0.00    +0.028 C 
ATOM      8  C   UNL     1      -2.091   1.501  22.977  0.00  0.00    +0.024 C 
ATOM      9  C   UNL     1      -3.917   3.076  23.574  0.00  0.00    +0.019 C 
ATOM     10  C   UNL     1      -2.678   1.557  25.758  0.00  0.00    +0.092 C 
ATOM     11  C   UNL     1      -3.062   3.680  24.701  0.00  0.00    +0.085 C 
BRANCH   7  13
ATOM     13  C   UNL     1      -3.604  -0.566  24.759  0.00  0.00    -0.030 C 
ATOM     14  C   UNL     1      -4.252  -1.342  23.882  0.00  0.00    +0.004 C 
ENDBRANCH   7  13
ENDBRANCH  12   6
ENDBRANCH   4  12
BRANCH   4  15
ATOM     15  C   UNL     1       0.657  -0.168  22.806  0.00  0.00    +0.116 C 
BRANCH  15  16
ATOM      1  O   UNL     1       5.133  -1.770  24.137  0.00  0.00    -0.453 OA
ATOM      2  O   UNL     1       6.203   0.262  23.408  0.00  0.00    -0.453 OA
ATOM     16  C   UNL     1       2.147  -0.018  22.953  0.00  0.00    -0.030 A 
ATOM     17  C   UNL     1       2.883  -1.059  23.508  0.00  0.00    +0.054 A 
ATOM     18  C   UNL     1       2.759   1.166  22.526  0.00  0.00    +0.009 A 
ATOM     19  C   UNL     1       4.247  -0.875  23.621  0.00  0.00    +0.167 A 
ATOM     20  C   UNL     1       4.141   1.327  22.653  0.00  0.00    +0.050 A 
ATOM     21  C   UNL     1       4.857   0.285  23.206  0.00  0.00    +0.166 A 
ATOM     22  C   UNL     1       6.371  -1.043  23.998  0.00  0.00    +0.466 C 
ENDBRANCH  15  16
ENDBRANCH   4  15
TORSDOF 5
ENDMDL
MODEL 9
REMARK VINA RESULT:      -2.6      1.733      3.422
REMARK  Name = 11943580
REMARK  5 active torsions:
REMARK  status: ('A' for Active; 'I' for Inactive)
REMARK    1  A    between atoms: N_4  and  C_12
REMARK    2  A    between atoms: N_4  and  C_15
REMARK    3  A    between atoms: C_6  and  C_12
REMARK    4  A    between atoms: C_7  and  C_13
REMARK    5  A    between atoms: C_15  and  C_16
REMARK                            x       y       z     vdW  Elec       q    Type
REMARK                         _______ _______ _______ _____ _____    ______ ____
ROOT
ATOM      4  N   UNL     1      -4.910   0.932  23.918  0.00  0.00    -0.311 NA
ATOM     23  H   UNL     1      -5.513   0.887  23.096  0.00  0.00    +0.122 HD
ENDROOT
BRANCH   4  12
ATOM     12  C   UNL     1      -5.065  -0.284  24.699  0.00  0.00    +0.100 C 
BRANCH  12   6
ATOM      3  N   UNL     1      -3.506  -2.054  25.551  0.00  0.00    -0.298 NA
ATOM      5  C   UNL     1      -1.456  -1.165  24.219  0.00  0.00    -0.000 C 
ATOM      6  C   UNL     1      -3.965  -1.293  24.358  0.00  0.00    +0.071 C 
ATOM      7  C   UNL     1      -1.359  -0.758  25.709  0.00  0.00    +0.028 C 
ATOM      8  C   UNL     1      -2.776  -0.621  23.637  0.00  0.00    +0.024 C 
ATOM      9  C   UNL     1      -1.528  -2.702  24.173  0.00  0.00    +0.019 C 
ATOM     10  C   UNL     1      -2.663  -1.193  26.419  0.00  0.00    +0.092 C 
ATOM     11  C   UNL     1      -2.673  -3.186  25.078  0.00  0.00    +0.085 C 
BRANCH   7  13
ATOM     13  C   UNL     1      -1.082   0.702  25.898  0.00  0.00    -0.030 C 
ATOM     14  C   UNL     1      -0.066   1.353  25.320  0.00  0.00    +0.004 C 
ENDBRANCH   7  13
ENDBRANCH  12   6
ENDBRANCH   4  12
BRANCH   4  15
ATOM     15  C   UNL     1      -5.247   2.109  24.709  0.00  0.00    +0.116 C 
BRANCH  15  16
ATOM      1  O   UNL     1      -0.853   3.958  23.427  0.00  0.00    -0.453 OA
ATOM      2  O   UNL     1      -0.769   5.402  25.354  0.00  0.00    -0.453 OA
ATOM     16  C   UNL     1      -4.058   3.008  24.914  0.00  0.00    -0.030 A 
ATOM     17  C   UNL     1      -3.024   2.991  23.985  0.00  0.00    +0.054 A 
ATOM     18  C   UNL     1      -4.020   3.843  26.037  0.00  0.00    +0.009 A 
ATOM     19  C   UNL     1      -1.956   3.833  24.215  0.00  0.00    +0.167 A 
ATOM     20  C   UNL     1      -2.925   4.686  26.247  0.00  0.00    +0.050 A 
ATOM     21  C   UNL     1      -1.908   4.657  25.316  0.00  0.00    +0.166 A 
ATOM     22  C   UNL     1      -0.106   4.955  24.155  0.00  0.00    +0.466 C 
ENDBRANCH  15  16
ENDBRANCH   4  15
TORSDOF 5
ENDMDL
MODEL 10
REMARK VINA RESULT:      -2.4      0.959      2.325
REMARK  Name = 11943580
REMARK  5 active torsions:
REMARK  status: ('A' for Active; 'I' for Inactive)
REMARK    1  A    between atoms: N_4  and  C_12
REMARK    2  A    between atoms: N_4  and  C_15
REMARK    3  A    between atoms: C_6  and  C_12
REMARK    4  A    between atoms: C_7  and  C_13
REMARK    5  A    between atoms: C_15  and  C_16
REMARK                            x       y       z     vdW  Elec       q    Type
REMARK                         _______ _______ _______ _____ _____    ______ ____
ROOT
ATOM      4  N   UNL     1       0.347   0.207  23.379  0.00  0.00    -0.311 NA
ATOM     23  H   UNL     1      -0.227   0.398  22.558  0.00  0.00    +0.122 HD
ENDROOT
BRANCH   4  12
ATOM     12  C   UNL     1      -0.446  -0.506  24.366  0.00  0.00    +0.100 C 
BRANCH  12   6
ATOM      3  N   UNL     1      -2.527  -0.217  25.736  0.00  0.00    -0.298 NA
ATOM      5  C   UNL     1      -4.132  -0.828  23.783  0.00  0.00    -0.000 C 
ATOM      6  C   UNL     1      -1.868   0.057  24.431  0.00  0.00    +0.071 C 
ATOM      7  C   UNL     1      -3.988  -2.015  24.764  0.00  0.00    +0.028 C 
ATOM      8  C   UNL     1      -2.736  -0.443  23.255  0.00  0.00    +0.024 C 
ATOM      9  C   UNL     1      -4.667   0.367  24.592  0.00  0.00    +0.019 C 
ATOM     10  C   UNL     1      -2.923  -1.645  25.824  0.00  0.00    +0.092 C 
ATOM     11  C   UNL     1      -3.758   0.607  25.808  0.00  0.00    +0.085 C 
BRANCH   7  13
ATOM     13  C   UNL     1      -3.664  -3.306  24.076  0.00  0.00    -0.030 C 
ATOM     14  C   UNL     1      -2.424  -3.693  23.754  0.00  0.00    +0.004 C 
ENDBRANCH   7  13
ENDBRANCH  12   6
ENDBRANCH   4  12
BRANCH   4  15
ATOM     15  C   UNL     1       0.858   1.460  23.922  0.00  0.00    +0.116 C 
BRANCH  15  16
ATOM      1  O   UNL     1      -3.432   3.902  23.980  0.00  0.00    -0.453 OA
ATOM      2  O   UNL     1      -3.227   4.439  26.320  0.00  0.00    -0.453 OA
ATOM     16  C   UNL     1      -0.222   2.260  24.599  0.00  0.00    -0.030 A 
ATOM     17  C   UNL     1      -1.324   2.676  23.861  0.00  0.00    +0.054 A 
ATOM     18  C   UNL     1      -0.093   2.566  25.959  0.00  0.00    +0.009 A 
ATOM     19  C   UNL     1      -2.289   3.406  24.526  0.00  0.00    +0.167 A 
ATOM     20  C   UNL     1      -1.084   3.307  26.608  0.00  0.00    +0.050 A 
ATOM     21  C   UNL     1      -2.171   3.713  25.862  0.00  0.00    +0.166 A 
ATOM     22  C   UNL     1      -4.022   4.555  25.122  0.00  0.00    +0.466 C 
ENDBRANCH  15  16
ENDBRANCH   4  15
TORSDOF 5
ENDMDL
