MODEL 1
REMARK VINA RESULT:      -2.4      0.000      0.000
REMARK  Name = 44716273
REMARK  11 active torsions:
REMARK  status: ('A' for Active; 'I' for Inactive)
REMARK    1  A    between atoms: N_3  and  C_14
REMARK    2  A    between atoms: N_4  and  C_16
REMARK    3  A    between atoms: N_4  and  C_18
REMARK    4  A    between atoms: C_8  and  C_15
REMARK    5  A    between atoms: C_9  and  C_14
REMARK    6  A    between atoms: C_16  and  C_20
REMARK    7  A    between atoms: C_19  and  C_21
REMARK    8  A    between atoms: C_22  and  C_25
REMARK    9  A    between atoms: C_22  and  C_29
REMARK   10  A    between atoms: C_22  and  C_30
REMARK   11  A    between atoms: C_22  and  C_31
REMARK                            x       y       z     vdW  Elec       q    Type
REMARK                         _______ _______ _______ _____ _____    ______ ____
ROOT
ATOM     14  C   UNL     1      15.257  -9.933  28.720  0.00  0.00    +0.164 C 
ENDROOT
BRANCH  14   9
ATOM      2  N   UNL     1      15.218 -10.466  31.170  0.00  0.00    -0.297 NA
ATOM      7  C   UNL     1      16.240  -8.180  31.883  0.00  0.00    +0.005 C 
ATOM      8  C   UNL     1      14.721  -8.217  32.140  0.00  0.00    +0.092 C 
ATOM      9  C   UNL     1      16.013  -9.894  30.050  0.00  0.00    +0.078 C 
ATOM     10  C   UNL     1      16.503  -8.470  30.391  0.00  0.00    +0.025 C 
ATOM     11  C   UNL     1      16.856  -9.338  32.688  0.00  0.00    +0.020 C 
ATOM     12  C   UNL     1      14.143  -9.525  31.571  0.00  0.00    +0.097 C 
ATOM     13  C   UNL     1      16.129 -10.648  32.328  0.00  0.00    +0.085 C 
BRANCH   8  15
ATOM      1  O   UNL     1      14.655  -6.271  30.804  0.00  0.00    -0.275 OA
ATOM      4  N   UNL     1      12.701  -6.820  31.936  0.00  0.00    -0.301 N 
ATOM     15  C   UNL     1      14.031  -7.017  31.564  0.00  0.00    +0.220 C 
ATOM     18  C   UNL     1      11.913  -5.693  31.451  0.00  0.00    +0.132 C 
BRANCH   4  16
ATOM     16  C   UNL     1      12.000  -7.729  32.840  0.00  0.00    +0.134 C 
BRANCH  16  20
ATOM     20  C   UNL     1      11.018  -8.535  32.057  0.00  0.00    -0.016 C 
ATOM     26  C   UNL     1      10.519  -9.706  32.468  0.00  0.00    +0.005 C 
ENDBRANCH  16  20
ENDBRANCH   4  16
ENDBRANCH   8  15
ENDBRANCH  14   9
BRANCH  14   3
ATOM      3  N   UNL     1      15.920  -9.070  27.684  0.00  0.00    -0.250 N 
ATOM      5  N   UNL     1      17.023  -9.492  27.045  0.00  0.00    -0.065 NA
ATOM      6  N   UNL     1      17.380  -8.532  26.198  0.00  0.00    -0.130 NA
ATOM     17  C   UNL     1      15.541  -7.832  27.265  0.00  0.00    +0.138 A 
ATOM     19  C   UNL     1      16.483  -7.509  26.321  0.00  0.00    +0.113 A 
BRANCH  19  21
ATOM     21  C   UNL     1      16.528  -6.293  25.573  0.00  0.00    +0.004 A 
ATOM     23  C   UNL     1      16.080  -5.103  26.149  0.00  0.00    +0.010 A 
ATOM     24  C   UNL     1      17.022  -6.294  24.269  0.00  0.00    +0.010 A 
ATOM     25  C   UNL     1      16.618  -3.917  24.114  0.00  0.00    -0.042 A 
ATOM     27  C   UNL     1      16.126  -3.915  25.419  0.00  0.00    +0.005 A 
ATOM     28  C   UNL     1      17.066  -5.106  23.540  0.00  0.00    +0.005 A 
BRANCH  25  22
ATOM     22  C   UNL     1      16.668  -2.647  23.335  0.00  0.00    -0.013 C 
ATOM     29  C   UNL     1      17.403  -1.523  24.129  0.00  0.00    +0.015 C 
ATOM     30  C   UNL     1      15.233  -2.129  23.005  0.00  0.00    +0.015 C 
ATOM     31  C   UNL     1      17.405  -2.732  21.957  0.00  0.00    +0.015 C 
ENDBRANCH  25  22
ENDBRANCH  19  21
ENDBRANCH  14   3
TORSDOF 7
ENDMDL
MODEL 2
REMARK VINA RESULT:      -2.1      1.134      2.024
REMARK  Name = 44716273
REMARK  11 active torsions:
REMARK  status: ('A' for Active; 'I' for Inactive)
REMARK    1  A    between atoms: N_3  and  C_14
REMARK    2  A    between atoms: N_4  and  C_16
REMARK    3  A    between atoms: N_4  and  C_18
REMARK    4  A    between atoms: C_8  and  C_15
REMARK    5  A    between atoms: C_9  and  C_14
REMARK    6  A    between atoms: C_16  and  C_20
REMARK    7  A    between atoms: C_19  and  C_21
REMARK    8  A    between atoms: C_22  and  C_25
REMARK    9  A    between atoms: C_22  and  C_29
REMARK   10  A    between atoms: C_22  and  C_30
REMARK   11  A    between atoms: C_22  and  C_31
REMARK                            x       y       z     vdW  Elec       q    Type
REMARK                         _______ _______ _______ _____ _____    ______ ____
ROOT
ATOM     14  C   UNL     1      15.226  -9.884  28.695  0.00  0.00    +0.164 C 
ENDROOT
BRANCH  14   9
ATOM      2  N   UNL     1      15.207 -10.611  31.094  0.00  0.00    -0.297 NA
ATOM      7  C   UNL     1      15.734  -8.237  32.021  0.00  0.00    +0.005 C 
ATOM      8  C   UNL     1      14.243  -8.587  32.199  0.00  0.00    +0.092 C 
ATOM      9  C   UNL     1      15.912  -9.808  30.061  0.00  0.00    +0.078 C 
ATOM     10  C   UNL     1      16.100  -8.348  30.527  0.00  0.00    +0.025 C 
ATOM     11  C   UNL     1      16.536  -9.315  32.771  0.00  0.00    +0.020 C 
ATOM     12  C   UNL     1      13.954  -9.932  31.508  0.00  0.00    +0.097 C 
ATOM     13  C   UNL     1      16.095 -10.707  32.281  0.00  0.00    +0.085 C 
BRANCH   8  15
ATOM      1  O   UNL     1      12.374  -7.803  30.987  0.00  0.00    -0.275 OA
ATOM      4  N   UNL     1      13.696  -6.191  32.016  0.00  0.00    -0.301 N 
ATOM     15  C   UNL     1      13.352  -7.500  31.678  0.00  0.00    +0.220 C 
ATOM     18  C   UNL     1      12.917  -5.040  31.575  0.00  0.00    +0.132 C 
BRANCH   4  16
ATOM     16  C   UNL     1      14.864  -5.878  32.836  0.00  0.00    +0.134 C 
BRANCH  16  20
ATOM     20  C   UNL     1      15.430  -4.568  32.397  0.00  0.00    -0.016 C 
ATOM     26  C   UNL     1      16.694  -4.401  31.991  0.00  0.00    +0.005 C 
ENDBRANCH  16  20
ENDBRANCH   4  16
ENDBRANCH   8  15
ENDBRANCH  14   9
BRANCH  14   3
ATOM      3  N   UNL     1      15.889  -8.981  27.693  0.00  0.00    -0.250 N 
ATOM      5  N   UNL     1      17.061  -9.321  27.133  0.00  0.00    -0.065 NA
ATOM      6  N   UNL     1      17.398  -8.343  26.300  0.00  0.00    -0.130 NA
ATOM     17  C   UNL     1      15.444  -7.778  27.236  0.00  0.00    +0.138 A 
ATOM     19  C   UNL     1      16.419  -7.390  26.351  0.00  0.00    +0.113 A 
BRANCH  19  21
ATOM     21  C   UNL     1      16.421  -6.179  25.594  0.00  0.00    +0.004 A 
ATOM     23  C   UNL     1      16.174  -4.960  26.226  0.00  0.00    +0.010 A 
ATOM     24  C   UNL     1      16.672  -6.216  24.223  0.00  0.00    +0.010 A 
ATOM     25  C   UNL     1      16.427  -3.814  24.115  0.00  0.00    -0.042 A 
ATOM     27  C   UNL     1      16.177  -3.778  25.486  0.00  0.00    +0.005 A 
ATOM     28  C   UNL     1      16.674  -5.033  23.483  0.00  0.00    +0.005 A 
BRANCH  25  22
ATOM     22  C   UNL     1      16.431  -2.550  23.324  0.00  0.00    -0.013 C 
ATOM     29  C   UNL     1      16.858  -1.334  24.203  0.00  0.00    +0.015 C 
ATOM     30  C   UNL     1      15.015  -2.239  22.746  0.00  0.00    +0.015 C 
ATOM     31  C   UNL     1      17.396  -2.532  22.092  0.00  0.00    +0.015 C 
ENDBRANCH  25  22
ENDBRANCH  19  21
ENDBRANCH  14   3
TORSDOF 7
ENDMDL
MODEL 3
REMARK VINA RESULT:      -1.4      1.295      2.183
REMARK  Name = 44716273
REMARK  11 active torsions:
REMARK  status: ('A' for Active; 'I' for Inactive)
REMARK    1  A    between atoms: N_3  and  C_14
REMARK    2  A    between atoms: N_4  and  C_16
REMARK    3  A    between atoms: N_4  and  C_18
REMARK    4  A    between atoms: C_8  and  C_15
REMARK    5  A    between atoms: C_9  and  C_14
REMARK    6  A    between atoms: C_16  and  C_20
REMARK    7  A    between atoms: C_19  and  C_21
REMARK    8  A    between atoms: C_22  and  C_25
REMARK    9  A    between atoms: C_22  and  C_29
REMARK   10  A    between atoms: C_22  and  C_30
REMARK   11  A    between atoms: C_22  and  C_31
REMARK                            x       y       z     vdW  Elec       q    Type
REMARK                         _______ _______ _______ _____ _____    ______ ____
ROOT
ATOM     14  C   UNL     1      15.824  -9.256  28.619  0.00  0.00    +0.164 C 
ENDROOT
BRANCH  14   9
ATOM      2  N   UNL     1      16.617  -9.385  30.994  0.00  0.00    -0.297 NA
ATOM      7  C   UNL     1      15.031  -7.498  31.832  0.00  0.00    +0.005 C 
ATOM      8  C   UNL     1      14.503  -8.890  32.231  0.00  0.00    +0.092 C 
ATOM      9  C   UNL     1      16.261  -8.484  29.866  0.00  0.00    +0.078 C 
ATOM     10  C   UNL     1      15.201  -7.448  30.299  0.00  0.00    +0.025 C 
ATOM     11  C   UNL     1      16.433  -7.360  32.452  0.00  0.00    +0.020 C 
ATOM     12  C   UNL     1      15.392  -9.971  31.592  0.00  0.00    +0.097 C 
ATOM     13  C   UNL     1      17.293  -8.568  32.034  0.00  0.00    +0.085 C 
BRANCH   8  15
ATOM      1  O   UNL     1      12.659 -10.188  31.529  0.00  0.00    -0.275 OA
ATOM      4  N   UNL     1      12.261  -7.925  31.884  0.00  0.00    -0.301 N 
ATOM     15  C   UNL     1      13.063  -9.067  31.850  0.00  0.00    +0.220 C 
ATOM     18  C   UNL     1      10.846  -7.956  31.536  0.00  0.00    +0.132 C 
BRANCH   4  16
ATOM     16  C   UNL     1      12.782  -6.616  32.269  0.00  0.00    +0.134 C 
BRANCH  16  20
ATOM     20  C   UNL     1      11.646  -5.748  32.701  0.00  0.00    -0.016 C 
ATOM     26  C   UNL     1      11.605  -4.425  32.507  0.00  0.00    +0.005 C 
ENDBRANCH  16  20
ENDBRANCH   4  16
ENDBRANCH   8  15
ENDBRANCH  14   9
BRANCH  14   3
ATOM      3  N   UNL     1      16.086  -8.471  27.365  0.00  0.00    -0.250 N 
ATOM      5  N   UNL     1      16.449  -9.092  26.231  0.00  0.00    -0.065 NA
ATOM      6  N   UNL     1      16.610  -8.155  25.303  0.00  0.00    -0.130 NA
ATOM     17  C   UNL     1      16.003  -7.123  27.195  0.00  0.00    +0.138 A 
ATOM     19  C   UNL     1      16.340  -6.944  25.876  0.00  0.00    +0.113 A 
BRANCH  19  21
ATOM     21  C   UNL     1      16.403  -5.689  25.197  0.00  0.00    +0.004 A 
ATOM     23  C   UNL     1      16.921  -5.622  23.903  0.00  0.00    +0.010 A 
ATOM     24  C   UNL     1      15.944  -4.533  25.826  0.00  0.00    +0.010 A 
ATOM     25  C   UNL     1      16.523  -3.239  23.868  0.00  0.00    -0.042 A 
ATOM     27  C   UNL     1      16.981  -4.397  23.239  0.00  0.00    +0.005 A 
ATOM     28  C   UNL     1      16.005  -3.307  25.161  0.00  0.00    +0.005 A 
BRANCH  25  22
ATOM     22  C   UNL     1      16.585  -1.930  23.158  0.00  0.00    -0.013 C 
ATOM     29  C   UNL     1      15.159  -1.418  22.786  0.00  0.00    +0.015 C 
ATOM     30  C   UNL     1      17.404  -2.043  21.834  0.00  0.00    +0.015 C 
ATOM     31  C   UNL     1      17.250  -0.762  23.959  0.00  0.00    +0.015 C 
ENDBRANCH  25  22
ENDBRANCH  19  21
ENDBRANCH  14   3
TORSDOF 7
ENDMDL
