MODEL 1
REMARK VINA RESULT:      -5.0      0.000      0.000
REMARK  Name = 45360651
REMARK  8 active torsions:
REMARK  status: ('A' for Active; 'I' for Inactive)
REMARK    1  A    between atoms: N_6  and  C_9
REMARK    2  A    between atoms: N_6  and  C_17
REMARK    3  A    between atoms: N_7  and  C_22
REMARK    4  A    between atoms: C_10  and  C_15
REMARK    5  A    between atoms: C_15  and  C_16
REMARK    6  A    between atoms: C_16  and  C_18
REMARK    7  A    between atoms: C_17  and  C_19
REMARK    8  A    between atoms: C_22  and  C_26
REMARK                            x       y       z     vdW  Elec       q    Type
REMARK                         _______ _______ _______ _____ _____    ______ ____
ROOT
ATOM      2  O   UNL     1       1.012   2.662  26.876  0.00  0.00    -0.274 OA
ATOM      4  N   UNL     1      -1.856   2.213  24.664  0.00  0.00    -0.286 NA
ATOM      5  N   UNL     1      -0.431   4.205  26.034  0.00  0.00    -0.313 N 
ATOM      8  C   UNL     1      -0.848   1.782  25.641  0.00  0.00    +0.145 C 
ATOM      9  C   UNL     1      -0.549   0.762  23.457  0.00  0.00    +0.070 C 
ATOM     10  C   UNL     1      -2.531   3.460  25.006  0.00  0.00    +0.075 C 
ATOM     11  C   UNL     1       0.030   0.781  24.873  0.00  0.00    +0.048 C 
ATOM     12  C   UNL     1      -1.244   2.112  23.341  0.00  0.00    +0.104 C 
ATOM     13  C   UNL     1      -1.528   4.590  25.175  0.00  0.00    +0.123 C 
ATOM     14  C   UNL     1       0.001   2.913  26.215  0.00  0.00    +0.230 C 
ATOM     32  H   UNL     1       0.130   4.947  26.438  0.00  0.00    +0.149 HD
ENDROOT
BRANCH   9   6
ATOM      6  N   UNL     1       0.460   0.540  22.433  0.00  0.00    -0.308 NA
ATOM     33  H   UNL     1      -0.001   0.442  21.527  0.00  0.00    +0.123 HD
BRANCH   6  17
ATOM     17  C   UNL     1       1.223  -0.671  22.705  0.00  0.00    +0.116 C 
BRANCH  17  19
ATOM     19  C   UNL     1       2.672  -0.370  22.983  0.00  0.00    -0.034 A 
ATOM     20  C   UNL     1       3.469  -1.314  23.631  0.00  0.00    +0.005 A 
ATOM     21  C   UNL     1       3.218   0.853  22.592  0.00  0.00    +0.005 A 
ATOM     23  C   UNL     1       4.811  -1.035  23.888  0.00  0.00    +0.000 A 
ATOM     24  C   UNL     1       4.560   1.132  22.850  0.00  0.00    +0.000 A 
ATOM     25  C   UNL     1       5.356   0.187  23.498  0.00  0.00    +0.000 A 
ENDBRANCH  17  19
ENDBRANCH   6  17
ENDBRANCH   9   6
BRANCH  10  15
ATOM     15  C   UNL     1      -3.622   3.839  24.004  0.00  0.00    +0.029 C 
BRANCH  15  16
ATOM     16  C   UNL     1      -4.967   4.014  24.695  0.00  0.00    +0.097 C 
BRANCH  16  18
ATOM      3  O   UNL     1      -5.981   2.706  26.462  0.00  0.00    -0.276 OA
ATOM      7  N   UNL     1      -5.182   1.623  24.570  0.00  0.00    -0.311 N 
ATOM     18  C   UNL     1      -5.440   2.734  25.360  0.00  0.00    +0.213 C 
ATOM     34  H   UNL     1      -4.703   1.730  23.682  0.00  0.00    +0.149 HD
BRANCH   7  22
ATOM     22  C   UNL     1      -5.537   0.285  24.983  0.00  0.00    +0.139 C 
BRANCH  22  26
ATOM      1  F   UNL     1      -1.096  -3.183  24.894  0.00  0.00    -0.205 F 
ATOM     26  C   UNL     1      -4.350  -0.642  24.958  0.00  0.00    -0.030 A 
ATOM     27  C   UNL     1      -4.195  -1.551  23.912  0.00  0.00    +0.008 A 
ATOM     28  C   UNL     1      -3.406  -0.592  25.985  0.00  0.00    +0.008 A 
ATOM     29  C   UNL     1      -3.097  -2.409  23.890  0.00  0.00    +0.038 A 
ATOM     30  C   UNL     1      -2.307  -1.451  25.963  0.00  0.00    +0.038 A 
ATOM     31  C   UNL     1      -2.152  -2.360  24.916  0.00  0.00    +0.123 A 
ENDBRANCH  22  26
ENDBRANCH   7  22
ENDBRANCH  16  18
ENDBRANCH  15  16
ENDBRANCH  10  15
TORSDOF 8
ENDMDL
MODEL 2
REMARK VINA RESULT:      -2.7      2.052      6.012
REMARK  Name = 45360651
REMARK  8 active torsions:
REMARK  status: ('A' for Active; 'I' for Inactive)
REMARK    1  A    between atoms: N_6  and  C_9
REMARK    2  A    between atoms: N_6  and  C_17
REMARK    3  A    between atoms: N_7  and  C_22
REMARK    4  A    between atoms: C_10  and  C_15
REMARK    5  A    between atoms: C_15  and  C_16
REMARK    6  A    between atoms: C_16  and  C_18
REMARK    7  A    between atoms: C_17  and  C_19
REMARK    8  A    between atoms: C_22  and  C_26
REMARK                            x       y       z     vdW  Elec       q    Type
REMARK                         _______ _______ _______ _____ _____    ______ ____
ROOT
ATOM      2  O   UNL     1      -6.233   4.551  25.762  0.00  0.00    -0.274 OA
ATOM      4  N   UNL     1      -3.075   3.211  24.518  0.00  0.00    -0.286 NA
ATOM      5  N   UNL     1      -4.137   4.731  26.624  0.00  0.00    -0.313 N 
ATOM      8  C   UNL     1      -4.469   3.657  24.403  0.00  0.00    +0.145 C 
ATOM      9  C   UNL     1      -4.209   1.264  24.079  0.00  0.00    +0.070 C 
ATOM     10  C   UNL     1      -2.205   4.137  25.234  0.00  0.00    +0.075 C 
ATOM     11  C   UNL     1      -5.257   2.378  24.077  0.00  0.00    +0.048 C 
ATOM     12  C   UNL     1      -3.103   1.820  24.966  0.00  0.00    +0.104 C 
ATOM     13  C   UNL     1      -2.730   4.400  26.636  0.00  0.00    +0.123 C 
ATOM     14  C   UNL     1      -5.025   4.326  25.657  0.00  0.00    +0.230 C 
ATOM     32  H   UNL     1      -4.516   5.194  27.444  0.00  0.00    +0.149 HD
ENDROOT
BRANCH   9   6
ATOM      6  N   UNL     1      -4.734  -0.012  24.540  0.00  0.00    -0.308 NA
ATOM     33  H   UNL     1      -5.723   0.098  24.767  0.00  0.00    +0.123 HD
BRANCH   6  17
ATOM     17  C   UNL     1      -4.027  -0.470  25.729  0.00  0.00    +0.116 C 
BRANCH  17  19
ATOM     19  C   UNL     1      -2.796  -1.262  25.378  0.00  0.00    -0.034 A 
ATOM     20  C   UNL     1      -2.884  -2.330  24.485  0.00  0.00    +0.005 A 
ATOM     21  C   UNL     1      -1.566  -0.929  25.947  0.00  0.00    +0.005 A 
ATOM     23  C   UNL     1      -1.743  -3.063  24.159  0.00  0.00    +0.000 A 
ATOM     24  C   UNL     1      -0.426  -1.663  25.622  0.00  0.00    +0.000 A 
ATOM     25  C   UNL     1      -0.515  -2.731  24.727  0.00  0.00    +0.000 A 
ENDBRANCH  17  19
ENDBRANCH   6  17
ENDBRANCH   9   6
BRANCH  10  15
ATOM     15  C   UNL     1      -0.748   3.674  25.272  0.00  0.00    +0.029 C 
BRANCH  15  16
ATOM     16  C   UNL     1      -0.320   3.093  23.931  0.00  0.00    +0.097 C 
BRANCH  16  18
ATOM      3  O   UNL     1       0.751   1.303  25.160  0.00  0.00    -0.276 OA
ATOM      7  N   UNL     1       0.480   1.093  22.864  0.00  0.00    -0.311 N 
ATOM     18  C   UNL     1       0.361   1.745  24.083  0.00  0.00    +0.213 C 
ATOM     34  H   UNL     1       0.155   1.541  22.013  0.00  0.00    +0.149 HD
BRANCH   7  22
ATOM     22  C   UNL     1       1.094  -0.209  22.743  0.00  0.00    +0.139 C 
BRANCH  22  26
ATOM      1  F   UNL     1       6.646  -0.001  23.688  0.00  0.00    -0.205 F 
ATOM     26  C   UNL     1       2.578  -0.154  22.996  0.00  0.00    -0.030 A 
ATOM     27  C   UNL     1       3.228  -1.242  23.577  0.00  0.00    +0.008 A 
ATOM     28  C   UNL     1       3.302   0.987  22.648  0.00  0.00    +0.008 A 
ATOM     29  C   UNL     1       4.601  -1.191  23.811  0.00  0.00    +0.038 A 
ATOM     30  C   UNL     1       4.676   1.039  22.882  0.00  0.00    +0.038 A 
ATOM     31  C   UNL     1       5.326  -0.050  23.464  0.00  0.00    +0.123 A 
ENDBRANCH  22  26
ENDBRANCH   7  22
ENDBRANCH  16  18
ENDBRANCH  15  16
ENDBRANCH  10  15
TORSDOF 8
ENDMDL
MODEL 3
REMARK VINA RESULT:      -2.1     17.238     19.851
REMARK  Name = 45360651
REMARK  8 active torsions:
REMARK  status: ('A' for Active; 'I' for Inactive)
REMARK    1  A    between atoms: N_6  and  C_9
REMARK    2  A    between atoms: N_6  and  C_17
REMARK    3  A    between atoms: N_7  and  C_22
REMARK    4  A    between atoms: C_10  and  C_15
REMARK    5  A    between atoms: C_15  and  C_16
REMARK    6  A    between atoms: C_16  and  C_18
REMARK    7  A    between atoms: C_17  and  C_19
REMARK    8  A    between atoms: C_22  and  C_26
REMARK                            x       y       z     vdW  Elec       q    Type
REMARK                         _______ _______ _______ _____ _____    ______ ____
ROOT
ATOM      2  O   UNL     1      14.568 -10.780  28.538  0.00  0.00    -0.274 OA
ATOM      4  N   UNL     1      16.442  -7.813  29.541  0.00  0.00    -0.286 NA
ATOM      5  N   UNL     1      15.193  -8.971  27.310  0.00  0.00    -0.313 N 
ATOM      8  C   UNL     1      15.996  -9.207  29.655  0.00  0.00    +0.145 C 
ATOM      9  C   UNL     1      15.164  -7.794  31.448  0.00  0.00    +0.070 C 
ATOM     10  C   UNL     1      16.881  -7.430  28.204  0.00  0.00    +0.075 C 
ATOM     11  C   UNL     1      15.160  -9.239  30.944  0.00  0.00    +0.048 C 
ATOM     12  C   UNL     1      15.430  -6.981  30.188  0.00  0.00    +0.104 C 
ATOM     13  C   UNL     1      15.774  -7.653  27.186  0.00  0.00    +0.123 C 
ATOM     14  C   UNL     1      15.175  -9.708  28.470  0.00  0.00    +0.230 C 
ATOM     32  H   UNL     1      14.662  -9.325  26.522  0.00  0.00    +0.149 HD
ENDROOT
BRANCH   9   6
ATOM      6  N   UNL     1      13.934  -7.424  32.128  0.00  0.00    -0.308 NA
ATOM     33  H   UNL     1      13.740  -8.106  32.862  0.00  0.00    +0.123 HD
BRANCH   6  17
ATOM     17  C   UNL     1      12.810  -7.400  31.200  0.00  0.00    +0.116 C 
BRANCH  17  19
ATOM     19  C   UNL     1      11.653  -8.223  31.699  0.00  0.00    -0.034 A 
ATOM     20  C   UNL     1      11.754  -9.614  31.743  0.00  0.00    +0.005 A 
ATOM     21  C   UNL     1      10.479  -7.596  32.118  0.00  0.00    +0.005 A 
ATOM     23  C   UNL     1      10.682 -10.377  32.206  0.00  0.00    +0.000 A 
ATOM     24  C   UNL     1       9.408  -8.359  32.580  0.00  0.00    +0.000 A 
ATOM     25  C   UNL     1       9.510  -9.750  32.624  0.00  0.00    +0.000 A 
ENDBRANCH  17  19
ENDBRANCH   6  17
ENDBRANCH   9   6
BRANCH  10  15
ATOM     15  C   UNL     1      17.405  -5.995  28.139  0.00  0.00    +0.029 C 
BRANCH  15  16
ATOM     16  C   UNL     1      16.954  -5.189  29.349  0.00  0.00    +0.097 C 
BRANCH  16  18
ATOM      3  O   UNL     1      17.150  -2.875  30.032  0.00  0.00    -0.276 OA
ATOM      7  N   UNL     1      17.111  -3.384  27.768  0.00  0.00    -0.311 N 
ATOM     18  C   UNL     1      17.082  -3.694  29.120  0.00  0.00    +0.213 C 
ATOM     34  H   UNL     1      17.021  -4.121  27.076  0.00  0.00    +0.149 HD
BRANCH   7  22
ATOM     22  C   UNL     1      17.227  -2.026  27.290  0.00  0.00    +0.139 C 
BRANCH  22  26
ATOM      1  F   UNL     1      17.052  -1.762  21.664  0.00  0.00    -0.205 F 
ATOM     26  C   UNL     1      17.180  -1.955  25.787  0.00  0.00    -0.030 A 
ATOM     27  C   UNL     1      17.324  -0.728  25.141  0.00  0.00    +0.008 A 
ATOM     28  C   UNL     1      16.992  -3.119  25.040  0.00  0.00    +0.008 A 
ATOM     29  C   UNL     1      17.281  -0.662  23.749  0.00  0.00    +0.038 A 
ATOM     30  C   UNL     1      16.948  -3.054  23.647  0.00  0.00    +0.038 A 
ATOM     31  C   UNL     1      17.092  -1.825  23.001  0.00  0.00    +0.123 A 
ENDBRANCH  22  26
ENDBRANCH   7  22
ENDBRANCH  16  18
ENDBRANCH  15  16
ENDBRANCH  10  15
TORSDOF 8
ENDMDL
MODEL 4
REMARK VINA RESULT:      -1.8      2.445      7.035
REMARK  Name = 45360651
REMARK  8 active torsions:
REMARK  status: ('A' for Active; 'I' for Inactive)
REMARK    1  A    between atoms: N_6  and  C_9
REMARK    2  A    between atoms: N_6  and  C_17
REMARK    3  A    between atoms: N_7  and  C_22
REMARK    4  A    between atoms: C_10  and  C_15
REMARK    5  A    between atoms: C_15  and  C_16
REMARK    6  A    between atoms: C_16  and  C_18
REMARK    7  A    between atoms: C_17  and  C_19
REMARK    8  A    between atoms: C_22  and  C_26
REMARK                            x       y       z     vdW  Elec       q    Type
REMARK                         _______ _______ _______ _____ _____    ______ ____
ROOT
ATOM      2  O   UNL     1      -4.445  -3.269  23.698  0.00  0.00    -0.274 OA
ATOM      4  N   UNL     1      -2.873  -0.663  25.712  0.00  0.00    -0.286 NA
ATOM      5  N   UNL     1      -2.252  -2.694  23.877  0.00  0.00    -0.313 N 
ATOM      8  C   UNL     1      -3.937  -1.611  25.357  0.00  0.00    +0.145 C 
ATOM      9  C   UNL     1      -4.598   0.709  25.071  0.00  0.00    +0.070 C 
ATOM     10  C   UNL     1      -1.532  -1.238  25.716  0.00  0.00    +0.075 C 
ATOM     11  C   UNL     1      -5.123  -0.723  24.951  0.00  0.00    +0.048 C 
ATOM     12  C   UNL     1      -3.091   0.547  24.922  0.00  0.00    +0.104 C 
ATOM     13  C   UNL     1      -1.195  -1.835  24.359  0.00  0.00    +0.123 C 
ATOM     14  C   UNL     1      -3.575  -2.574  24.229  0.00  0.00    +0.230 C 
ATOM     32  H   UNL     1      -2.022  -3.353  23.141  0.00  0.00    +0.149 HD
ENDROOT
BRANCH   9   6
ATOM      6  N   UNL     1      -5.182   1.615  24.095  0.00  0.00    -0.308 NA
ATOM     33  H   UNL     1      -4.580   1.652  23.272  0.00  0.00    +0.123 HD
BRANCH   6  17
ATOM     17  C   UNL     1      -5.313   2.959  24.643  0.00  0.00    +0.116 C 
BRANCH  17  19
ATOM     19  C   UNL     1      -3.973   3.603  24.876  0.00  0.00    -0.034 A 
ATOM     20  C   UNL     1      -3.114   3.835  23.801  0.00  0.00    +0.005 A 
ATOM     21  C   UNL     1      -3.588   3.967  26.166  0.00  0.00    +0.005 A 
ATOM     23  C   UNL     1      -1.872   4.432  24.016  0.00  0.00    +0.000 A 
ATOM     24  C   UNL     1      -2.346   4.563  26.382  0.00  0.00    +0.000 A 
ATOM     25  C   UNL     1      -1.488   4.795  25.306  0.00  0.00    +0.000 A 
ENDBRANCH  17  19
ENDBRANCH   6  17
ENDBRANCH   9   6
BRANCH  10  15
ATOM     15  C   UNL     1      -0.460  -0.243  26.160  0.00  0.00    +0.029 C 
BRANCH  15  16
ATOM     16  C   UNL     1      -0.640   1.103  25.471  0.00  0.00    +0.097 C 
BRANCH  16  18
ATOM      3  O   UNL     1       0.919   2.374  24.123  0.00  0.00    -0.276 OA
ATOM      7  N   UNL     1       0.538   0.143  23.608  0.00  0.00    -0.311 N 
ATOM     18  C   UNL     1       0.356   1.305  24.343  0.00  0.00    +0.213 C 
ATOM     34  H   UNL     1       0.010  -0.693  23.839  0.00  0.00    +0.149 HD
BRANCH   7  22
ATOM     22  C   UNL     1       1.437   0.077  22.479  0.00  0.00    +0.139 C 
BRANCH  22  26
ATOM      1  F   UNL     1       6.817  -0.334  24.103  0.00  0.00    -0.205 F 
ATOM     26  C   UNL     1       2.875  -0.032  22.913  0.00  0.00    -0.030 A 
ATOM     27  C   UNL     1       3.737   1.052  22.752  0.00  0.00    +0.008 A 
ATOM     28  C   UNL     1       3.344  -1.220  23.475  0.00  0.00    +0.008 A 
ATOM     29  C   UNL     1       5.068   0.951  23.154  0.00  0.00    +0.038 A 
ATOM     30  C   UNL     1       4.676  -1.322  23.877  0.00  0.00    +0.038 A 
ATOM     31  C   UNL     1       5.539  -0.237  23.716  0.00  0.00    +0.123 A 
ENDBRANCH  22  26
ENDBRANCH   7  22
ENDBRANCH  16  18
ENDBRANCH  15  16
ENDBRANCH  10  15
TORSDOF 8
ENDMDL
MODEL 5
REMARK VINA RESULT:      -1.6      2.246      6.515
REMARK  Name = 45360651
REMARK  8 active torsions:
REMARK  status: ('A' for Active; 'I' for Inactive)
REMARK    1  A    between atoms: N_6  and  C_9
REMARK    2  A    between atoms: N_6  and  C_17
REMARK    3  A    between atoms: N_7  and  C_22
REMARK    4  A    between atoms: C_10  and  C_15
REMARK    5  A    between atoms: C_15  and  C_16
REMARK    6  A    between atoms: C_16  and  C_18
REMARK    7  A    between atoms: C_17  and  C_19
REMARK    8  A    between atoms: C_22  and  C_26
REMARK                            x       y       z     vdW  Elec       q    Type
REMARK                         _______ _______ _______ _____ _____    ______ ____
ROOT
ATOM      2  O   UNL     1      -3.084   6.113  23.748  0.00  0.00    -0.274 OA
ATOM      4  N   UNL     1      -1.862   2.722  24.318  0.00  0.00    -0.286 NA
ATOM      5  N   UNL     1      -1.661   5.328  25.339  0.00  0.00    -0.313 N 
ATOM      8  C   UNL     1      -2.437   3.813  23.522  0.00  0.00    +0.145 C 
ATOM      9  C   UNL     1      -4.011   2.009  23.934  0.00  0.00    +0.070 C 
ATOM     10  C   UNL     1      -0.678   3.095  25.083  0.00  0.00    +0.075 C 
ATOM     11  C   UNL     1      -3.872   3.354  23.219  0.00  0.00    +0.048 C 
ATOM     12  C   UNL     1      -2.964   2.086  25.038  0.00  0.00    +0.104 C 
ATOM     13  C   UNL     1      -0.982   4.251  26.023  0.00  0.00    +0.123 C 
ATOM     14  C   UNL     1      -2.443   5.170  24.220  0.00  0.00    +0.230 C 
ATOM     32  H   UNL     1      -1.656   6.241  25.782  0.00  0.00    +0.149 HD
ENDROOT
BRANCH   9   6
ATOM      6  N   UNL     1      -5.356   1.763  24.428  0.00  0.00    -0.308 NA
ATOM     33  H   UNL     1      -5.763   2.644  24.740  0.00  0.00    +0.123 HD
BRANCH   6  17
ATOM     17  C   UNL     1      -5.339   0.829  25.547  0.00  0.00    +0.116 C 
BRANCH  17  19
ATOM     19  C   UNL     1      -4.615  -0.445  25.204  0.00  0.00    -0.034 A 
ATOM     20  C   UNL     1      -3.798  -1.060  26.152  0.00  0.00    +0.005 A 
ATOM     21  C   UNL     1      -4.759  -1.010  23.936  0.00  0.00    +0.005 A 
ATOM     23  C   UNL     1      -3.127  -2.241  25.834  0.00  0.00    +0.000 A 
ATOM     24  C   UNL     1      -4.088  -2.191  23.619  0.00  0.00    +0.000 A 
ATOM     25  C   UNL     1      -3.272  -2.806  24.569  0.00  0.00    +0.000 A 
ENDBRANCH  17  19
ENDBRANCH   6  17
ENDBRANCH   9   6
BRANCH  10  15
ATOM     15  C   UNL     1      -0.066   1.917  25.842  0.00  0.00    +0.029 C 
BRANCH  15  16
ATOM     16  C   UNL     1      -0.817   0.625  25.552  0.00  0.00    +0.097 C 
BRANCH  16  18
ATOM      3  O   UNL     1       0.056  -1.511  24.818  0.00  0.00    -0.276 OA
ATOM      7  N   UNL     1       0.560   0.396  23.594  0.00  0.00    -0.311 N 
ATOM     18  C   UNL     1      -0.032  -0.300  24.638  0.00  0.00    +0.213 C 
ATOM     34  H   UNL     1       0.461   1.404  23.533  0.00  0.00    +0.149 HD
BRANCH   7  22
ATOM     22  C   UNL     1       1.362  -0.260  22.588  0.00  0.00    +0.139 C 
BRANCH  22  26
ATOM      1  F   UNL     1       6.849  -0.124  23.864  0.00  0.00    -0.205 F 
ATOM     26  C   UNL     1       2.829  -0.224  22.929  0.00  0.00    -0.030 A 
ATOM     27  C   UNL     1       3.438  -1.337  23.508  0.00  0.00    +0.008 A 
ATOM     28  C   UNL     1       3.577   0.924  22.666  0.00  0.00    +0.008 A 
ATOM     29  C   UNL     1       4.796  -1.303  23.825  0.00  0.00    +0.038 A 
ATOM     30  C   UNL     1       4.935   0.958  22.982  0.00  0.00    +0.038 A 
ATOM     31  C   UNL     1       5.545  -0.156  23.562  0.00  0.00    +0.123 A 
ENDBRANCH  22  26
ENDBRANCH   7  22
ENDBRANCH  16  18
ENDBRANCH  15  16
ENDBRANCH  10  15
TORSDOF 8
ENDMDL
