MODEL 1
REMARK VINA RESULT:      -5.8      0.000      0.000
REMARK  Name = 75536904
REMARK  5 active torsions:
REMARK  status: ('A' for Active; 'I' for Inactive)
REMARK    1  A    between atoms: O_2  and  C_8
REMARK    2  A    between atoms: O_2  and  C_15
REMARK    3  A    between atoms: O_4  and  C_14
REMARK    4  A    between atoms: O_4  and  C_17
REMARK    5  A    between atoms: C_13  and  C_14
REMARK                            x       y       z     vdW  Elec       q    Type
REMARK                         _______ _______ _______ _____ _____    ______ ____
ROOT
ATOM      1  O   UNL     1       0.077   2.908  24.100  0.00  0.00    -0.375 OA
ATOM      3  O   UNL     1      -0.488  -1.782  25.437  0.00  0.00    -0.273 OA
ATOM      5  N   UNL     1      -1.329   0.095  24.339  0.00  0.00    -0.294 N 
ATOM      8  C   UNL     1      -2.201   2.325  23.438  0.00  0.00    +0.218 C 
ATOM      9  C   UNL     1      -2.486   0.924  23.986  0.00  0.00    +0.154 C 
ATOM     10  C   UNL     1      -0.010   0.480  23.829  0.00  0.00    +0.136 C 
ATOM     11  C   UNL     1      -1.303   3.154  24.351  0.00  0.00    +0.206 C 
ATOM     12  C   UNL     1       0.557   1.665  24.599  0.00  0.00    +0.179 C 
ATOM     13  C   UNL     1      -1.437  -1.055  25.131  0.00  0.00    +0.241 C 
ENDROOT
BRANCH   8   2
ATOM      2  O   UNL     1      -3.450   3.008  23.317  0.00  0.00    -0.468 OA
BRANCH   2  15
ATOM      6  N   UNL     1      -5.077   1.644  24.263  0.00  0.00    -0.219 NA
ATOM      7  N   UNL     1      -5.431   3.532  26.305  0.00  0.00    -0.256 NA
ATOM     15  C   UNL     1      -4.365   2.787  24.308  0.00  0.00    +0.234 A 
ATOM     16  C   UNL     1      -4.539   3.715  25.312  0.00  0.00    +0.177 A 
ATOM     18  C   UNL     1      -5.968   1.461  25.256  0.00  0.00    +0.134 A 
ATOM     19  C   UNL     1      -6.143   2.388  26.260  0.00  0.00    +0.130 A 
ENDBRANCH   2  15
ENDBRANCH   8   2
BRANCH  13  14
ATOM     14  C   UNL     1      -2.819  -1.396  25.636  0.00  0.00    +0.255 C 
BRANCH  14   4
ATOM      4  O   UNL     1      -3.224  -2.551  24.943  0.00  0.00    -0.374 OA
ATOM     17  C   UNL     1      -4.161  -2.254  23.908  0.00  0.00    +0.194 C 
ENDBRANCH  14   4
ENDBRANCH  13  14
TORSDOF 4
ENDMDL
MODEL 2
REMARK VINA RESULT:      -5.4      1.976      5.227
REMARK  Name = 75536904
REMARK  5 active torsions:
REMARK  status: ('A' for Active; 'I' for Inactive)
REMARK    1  A    between atoms: O_2  and  C_8
REMARK    2  A    between atoms: O_2  and  C_15
REMARK    3  A    between atoms: O_4  and  C_14
REMARK    4  A    between atoms: O_4  and  C_17
REMARK    5  A    between atoms: C_13  and  C_14
REMARK                            x       y       z     vdW  Elec       q    Type
REMARK                         _______ _______ _______ _____ _____    ______ ____
ROOT
ATOM      1  O   UNL     1      -5.894   3.196  25.292  0.00  0.00    -0.375 OA
ATOM      3  O   UNL     1      -1.248   4.783  25.237  0.00  0.00    -0.273 OA
ATOM      5  N   UNL     1      -2.765   3.036  24.939  0.00  0.00    -0.294 N 
ATOM      8  C   UNL     1      -4.539   1.194  24.937  0.00  0.00    +0.218 C 
ATOM      9  C   UNL     1      -3.073   1.610  25.082  0.00  0.00    +0.154 C 
ATOM     10  C   UNL     1      -3.766   3.912  24.324  0.00  0.00    +0.136 C 
ATOM     11  C   UNL     1      -5.475   1.962  25.866  0.00  0.00    +0.206 C 
ATOM     12  C   UNL     1      -4.903   4.217  25.290  0.00  0.00    +0.179 C 
ATOM     13  C   UNL     1      -1.546   3.591  25.353  0.00  0.00    +0.241 C 
ENDROOT
BRANCH   8   2
ATOM      2  O   UNL     1      -4.635  -0.192  25.271  0.00  0.00    -0.468 OA
BRANCH   2  15
ATOM      6  N   UNL     1      -2.423  -0.613  25.849  0.00  0.00    -0.219 NA
ATOM      7  N   UNL     1      -2.383  -2.744  24.027  0.00  0.00    -0.256 NA
ATOM     15  C   UNL     1      -3.501  -0.938  25.110  0.00  0.00    +0.234 A 
ATOM     16  C   UNL     1      -3.482  -1.986  24.214  0.00  0.00    +0.177 A 
ATOM     18  C   UNL     1      -1.325  -1.371  25.663  0.00  0.00    +0.134 A 
ATOM     19  C   UNL     1      -1.305  -2.418  24.768  0.00  0.00    +0.130 A 
ENDBRANCH   2  15
ENDBRANCH   8   2
BRANCH  13  14
ATOM     14  C   UNL     1      -0.557   2.643  25.988  0.00  0.00    +0.255 C 
BRANCH  14   4
ATOM      4  O   UNL     1       0.553   2.587  25.127  0.00  0.00    -0.374 OA
ATOM     17  C   UNL     1       0.440   1.531  24.174  0.00  0.00    +0.194 C 
ENDBRANCH  14   4
ENDBRANCH  13  14
TORSDOF 4
ENDMDL
MODEL 3
REMARK VINA RESULT:      -4.9      2.240      3.973
REMARK  Name = 75536904
REMARK  5 active torsions:
REMARK  status: ('A' for Active; 'I' for Inactive)
REMARK    1  A    between atoms: O_2  and  C_8
REMARK    2  A    between atoms: O_2  and  C_15
REMARK    3  A    between atoms: O_4  and  C_14
REMARK    4  A    between atoms: O_4  and  C_17
REMARK    5  A    between atoms: C_13  and  C_14
REMARK                            x       y       z     vdW  Elec       q    Type
REMARK                         _______ _______ _______ _____ _____    ______ ____
ROOT
ATOM      1  O   UNL     1      -3.181   4.090  25.630  0.00  0.00    -0.375 OA
ATOM      3  O   UNL     1       1.161   2.293  24.207  0.00  0.00    -0.273 OA
ATOM      5  N   UNL     1      -1.167   2.186  24.125  0.00  0.00    -0.294 N 
ATOM      8  C   UNL     1      -3.708   2.055  24.385  0.00  0.00    +0.218 C 
ATOM      9  C   UNL     1      -2.380   1.364  24.066  0.00  0.00    +0.154 C 
ATOM     10  C   UNL     1      -1.308   3.645  24.123  0.00  0.00    +0.136 C 
ATOM     11  C   UNL     1      -3.703   2.769  25.734  0.00  0.00    +0.206 C 
ATOM     12  C   UNL     1      -1.767   4.159  25.480  0.00  0.00    +0.179 C 
ATOM     13  C   UNL     1       0.119   1.632  24.170  0.00  0.00    +0.241 C 
ENDROOT
BRANCH   8   2
ATOM      2  O   UNL     1      -4.723   1.049  24.430  0.00  0.00    -0.468 OA
BRANCH   2  15
ATOM      6  N   UNL     1      -4.450  -1.088  23.557  0.00  0.00    -0.219 NA
ATOM      7  N   UNL     1      -3.307  -1.901  25.985  0.00  0.00    -0.256 NA
ATOM     15  C   UNL     1      -4.299  -0.239  24.593  0.00  0.00    +0.234 A 
ATOM     16  C   UNL     1      -3.737  -0.639  25.786  0.00  0.00    +0.177 A 
ATOM     18  C   UNL     1      -4.020  -2.349  23.755  0.00  0.00    +0.134 A 
ATOM     19  C   UNL     1      -3.458  -2.749  24.948  0.00  0.00    +0.130 A 
ENDBRANCH   2  15
ENDBRANCH   8   2
BRANCH  13  14
ATOM     14  C   UNL     1       0.202   0.124  24.180  0.00  0.00    +0.255 C 
BRANCH  14   4
ATOM      4  O   UNL     1       0.514  -0.268  22.866  0.00  0.00    -0.374 OA
ATOM     17  C   UNL     1       1.911  -0.162  22.593  0.00  0.00    +0.194 C 
ENDBRANCH  14   4
ENDBRANCH  13  14
TORSDOF 4
ENDMDL
MODEL 4
REMARK VINA RESULT:      -4.8      1.736      4.583
REMARK  Name = 75536904
REMARK  5 active torsions:
REMARK  status: ('A' for Active; 'I' for Inactive)
REMARK    1  A    between atoms: O_2  and  C_8
REMARK    2  A    between atoms: O_2  and  C_15
REMARK    3  A    between atoms: O_4  and  C_14
REMARK    4  A    between atoms: O_4  and  C_17
REMARK    5  A    between atoms: C_13  and  C_14
REMARK                            x       y       z     vdW  Elec       q    Type
REMARK                         _______ _______ _______ _____ _____    ______ ____
ROOT
ATOM      1  O   UNL     1       0.600   2.191  24.282  0.00  0.00    -0.375 OA
ATOM      3  O   UNL     1      -3.644   4.641  23.985  0.00  0.00    -0.273 OA
ATOM      5  N   UNL     1      -2.392   2.928  24.952  0.00  0.00    -0.294 N 
ATOM      8  C   UNL     1      -0.960   0.939  25.684  0.00  0.00    +0.218 C 
ATOM      9  C   UNL     1      -2.343   1.565  25.490  0.00  0.00    +0.154 C 
ATOM     10  C   UNL     1      -1.167   3.733  24.971  0.00  0.00    +0.136 C 
ATOM     11  C   UNL     1      -0.108   0.964  24.418  0.00  0.00    +0.206 C 
ATOM     12  C   UNL     1      -0.201   3.296  23.879  0.00  0.00    +0.179 C 
ATOM     13  C   UNL     1      -3.564   3.495  24.434  0.00  0.00    +0.241 C 
ENDROOT
BRANCH   8   2
ATOM      2  O   UNL     1      -1.148  -0.428  26.056  0.00  0.00    -0.468 OA
BRANCH   2  15
ATOM      6  N   UNL     1      -1.669  -2.261  24.725  0.00  0.00    -0.219 NA
ATOM      7  N   UNL     1      -4.319  -1.357  24.568  0.00  0.00    -0.256 NA
ATOM     15  C   UNL     1      -2.075  -1.133  25.341  0.00  0.00    +0.234 A 
ATOM     16  C   UNL     1      -3.377  -0.689  25.264  0.00  0.00    +0.177 A 
ATOM     18  C   UNL     1      -2.610  -2.928  24.030  0.00  0.00    +0.134 A 
ATOM     19  C   UNL     1      -3.912  -2.485  23.953  0.00  0.00    +0.130 A 
ENDBRANCH   2  15
ENDBRANCH   8   2
BRANCH  13  14
ATOM     14  C   UNL     1      -4.791   2.615  24.431  0.00  0.00    +0.255 C 
BRANCH  14   4
ATOM      4  O   UNL     1      -5.623   3.085  25.463  0.00  0.00    -0.374 OA
ATOM     17  C   UNL     1      -6.143   2.021  26.259  0.00  0.00    +0.194 C 
ENDBRANCH  14   4
ENDBRANCH  13  14
TORSDOF 4
ENDMDL
MODEL 5
REMARK VINA RESULT:      -4.4     15.220     17.520
REMARK  Name = 75536904
REMARK  5 active torsions:
REMARK  status: ('A' for Active; 'I' for Inactive)
REMARK    1  A    between atoms: O_2  and  C_8
REMARK    2  A    between atoms: O_2  and  C_15
REMARK    3  A    between atoms: O_4  and  C_14
REMARK    4  A    between atoms: O_4  and  C_17
REMARK    5  A    between atoms: C_13  and  C_14
REMARK                            x       y       z     vdW  Elec       q    Type
REMARK                         _______ _______ _______ _____ _____    ______ ____
ROOT
ATOM      1  O   UNL     1      -3.133  -9.476  10.305  0.00  0.00    -0.375 OA
ATOM      3  O   UNL     1      -7.595  -8.192   8.709  0.00  0.00    -0.273 OA
ATOM      5  N   UNL     1      -6.222  -8.863  10.470  0.00  0.00    -0.294 N 
ATOM      8  C   UNL     1      -4.626  -9.869  12.197  0.00  0.00    +0.218 C 
ATOM      9  C   UNL     1      -6.056  -9.647  11.698  0.00  0.00    +0.154 C 
ATOM     10  C   UNL     1      -5.096  -8.051   9.999  0.00  0.00    +0.136 C 
ATOM     11  C   UNL     1      -3.710 -10.475  11.139  0.00  0.00    +0.206 C 
ATOM     12  C   UNL     1      -4.025  -8.915   9.348  0.00  0.00    +0.179 C 
ATOM     13  C   UNL     1      -7.417  -8.849   9.738  0.00  0.00    +0.241 C 
ENDROOT
BRANCH   8   2
ATOM      2  O   UNL     1      -4.685 -10.781  13.296  0.00  0.00    -0.468 OA
BRANCH   2  15
ATOM      6  N   UNL     1      -2.431 -10.501  13.788  0.00  0.00    -0.219 NA
ATOM      7  N   UNL     1      -3.038 -10.659  16.521  0.00  0.00    -0.256 NA
ATOM     15  C   UNL     1      -3.692 -10.678  14.229  0.00  0.00    +0.234 A 
ATOM     16  C   UNL     1      -3.990 -10.756  15.572  0.00  0.00    +0.177 A 
ATOM     18  C   UNL     1      -1.479 -10.404  14.736  0.00  0.00    +0.134 A 
ATOM     19  C   UNL     1      -1.777 -10.481  16.079  0.00  0.00    +0.130 A 
ENDBRANCH   2  15
ENDBRANCH   8   2
BRANCH  13  14
ATOM     14  C   UNL     1      -8.538  -9.712  10.265  0.00  0.00    +0.255 C 
BRANCH  14   4
ATOM      4  O   UNL     1      -9.478  -8.839  10.842  0.00  0.00    -0.374 OA
ATOM     17  C   UNL     1     -10.689  -8.782  10.089  0.00  0.00    +0.194 C 
ENDBRANCH  14   4
ENDBRANCH  13  14
TORSDOF 4
ENDMDL
MODEL 6
REMARK VINA RESULT:      -4.1     14.772     17.076
REMARK  Name = 75536904
REMARK  5 active torsions:
REMARK  status: ('A' for Active; 'I' for Inactive)
REMARK    1  A    between atoms: O_2  and  C_8
REMARK    2  A    between atoms: O_2  and  C_15
REMARK    3  A    between atoms: O_4  and  C_14
REMARK    4  A    between atoms: O_4  and  C_17
REMARK    5  A    between atoms: C_13  and  C_14
REMARK                            x       y       z     vdW  Elec       q    Type
REMARK                         _______ _______ _______ _____ _____    ______ ____
ROOT
ATOM      1  O   UNL     1      -4.633 -10.110  12.817  0.00  0.00    -0.375 OA
ATOM      3  O   UNL     1      -6.343  -8.734   8.426  0.00  0.00    -0.273 OA
ATOM      5  N   UNL     1      -6.733  -9.094  10.696  0.00  0.00    -0.294 N 
ATOM      8  C   UNL     1      -7.037  -9.813  13.132  0.00  0.00    +0.218 C 
ATOM      9  C   UNL     1      -7.643  -9.550  11.751  0.00  0.00    +0.154 C 
ATOM     10  C   UNL     1      -5.416  -8.578  11.080  0.00  0.00    +0.136 C 
ATOM     11  C   UNL     1      -5.858 -10.781  13.093  0.00  0.00    +0.206 C 
ATOM     12  C   UNL     1      -4.469  -9.708  11.462  0.00  0.00    +0.179 C 
ATOM     13  C   UNL     1      -7.078  -9.120   9.338  0.00  0.00    +0.241 C 
ENDROOT
BRANCH   8   2
ATOM      2  O   UNL     1      -8.053 -10.396  13.951  0.00  0.00    -0.468 OA
BRANCH   2  15
ATOM      6  N   UNL     1      -9.590  -8.859  14.774  0.00  0.00    -0.219 NA
ATOM      7  N   UNL     1      -8.296  -8.943  17.261  0.00  0.00    -0.256 NA
ATOM     15  C   UNL     1      -8.510  -9.637  14.990  0.00  0.00    +0.234 A 
ATOM     16  C   UNL     1      -7.875  -9.678  16.212  0.00  0.00    +0.177 A 
ATOM     18  C   UNL     1     -10.011  -8.125  15.822  0.00  0.00    +0.134 A 
ATOM     19  C   UNL     1      -9.376  -8.166  17.044  0.00  0.00    +0.130 A 
ENDBRANCH   2  15
ENDBRANCH   8   2
BRANCH  13  14
ATOM     14  C   UNL     1      -8.443  -9.671   9.001  0.00  0.00    +0.255 C 
BRANCH  14   4
ATOM      4  O   UNL     1      -9.107  -8.673   8.265  0.00  0.00    -0.374 OA
ATOM     17  C   UNL     1      -9.726  -7.705   9.112  0.00  0.00    +0.194 C 
ENDBRANCH  14   4
ENDBRANCH  13  14
TORSDOF 4
ENDMDL
MODEL 7
REMARK VINA RESULT:      -3.7     15.686     18.879
REMARK  Name = 75536904
REMARK  5 active torsions:
REMARK  status: ('A' for Active; 'I' for Inactive)
REMARK    1  A    between atoms: O_2  and  C_8
REMARK    2  A    between atoms: O_2  and  C_15
REMARK    3  A    between atoms: O_4  and  C_14
REMARK    4  A    between atoms: O_4  and  C_17
REMARK    5  A    between atoms: C_13  and  C_14
REMARK                            x       y       z     vdW  Elec       q    Type
REMARK                         _______ _______ _______ _____ _____    ______ ____
ROOT
ATOM      1  O   UNL     1      11.948   8.194  16.700  0.00  0.00    -0.375 OA
ATOM      3  O   UNL     1      10.033   8.164  21.221  0.00  0.00    -0.273 OA
ATOM      5  N   UNL     1      11.921   8.211  19.853  0.00  0.00    -0.294 N 
ATOM      8  C   UNL     1      13.861   7.975  18.204  0.00  0.00    +0.218 C 
ATOM      9  C   UNL     1      13.305   7.789  19.617  0.00  0.00    +0.154 C 
ATOM     10  C   UNL     1      11.280   9.093  18.873  0.00  0.00    +0.136 C 
ATOM     11  C   UNL     1      12.993   7.327  17.129  0.00  0.00    +0.206 C 
ATOM     12  C   UNL     1      10.872   8.326  17.623  0.00  0.00    +0.179 C 
ATOM     13  C   UNL     1      11.193   7.818  20.984  0.00  0.00    +0.241 C 
ENDROOT
BRANCH   8   2
ATOM      2  O   UNL     1      15.148   7.356  18.156  0.00  0.00    -0.468 OA
BRANCH   2  15
ATOM      6  N   UNL     1      16.135   8.672  19.798  0.00  0.00    -0.219 NA
ATOM      7  N   UNL     1      17.182   6.357  20.983  0.00  0.00    -0.256 NA
ATOM     15  C   UNL     1      15.911   7.446  19.286  0.00  0.00    +0.234 A 
ATOM     16  C   UNL     1      16.425   6.308  19.869  0.00  0.00    +0.177 A 
ATOM     18  C   UNL     1      16.891   8.721  20.912  0.00  0.00    +0.134 A 
ATOM     19  C   UNL     1      17.405   7.584  21.495  0.00  0.00    +0.130 A 
ENDBRANCH   2  15
ENDBRANCH   8   2
BRANCH  13  14
ATOM     14  C   UNL     1      11.901   6.902  21.954  0.00  0.00    +0.255 C 
BRANCH  14   4
ATOM      4  O   UNL     1      11.844   5.611  21.399  0.00  0.00    -0.374 OA
ATOM     17  C   UNL     1      10.665   4.909  21.794  0.00  0.00    +0.194 C 
ENDBRANCH  14   4
ENDBRANCH  13  14
TORSDOF 4
ENDMDL
MODEL 8
REMARK VINA RESULT:      -3.4     14.536     16.576
REMARK  Name = 75536904
REMARK  5 active torsions:
REMARK  status: ('A' for Active; 'I' for Inactive)
REMARK    1  A    between atoms: O_2  and  C_8
REMARK    2  A    between atoms: O_2  and  C_15
REMARK    3  A    between atoms: O_4  and  C_14
REMARK    4  A    between atoms: O_4  and  C_17
REMARK    5  A    between atoms: C_13  and  C_14
REMARK                            x       y       z     vdW  Elec       q    Type
REMARK                         _______ _______ _______ _____ _____    ______ ____
ROOT
ATOM      1  O   UNL     1      -6.423  -8.351  10.323  0.00  0.00    -0.375 OA
ATOM      3  O   UNL     1      -1.802  -9.825  11.084  0.00  0.00    -0.273 OA
ATOM      5  N   UNL     1      -4.088 -10.214  11.332  0.00  0.00    -0.294 N 
ATOM      8  C   UNL     1      -6.609 -10.323  11.752  0.00  0.00    +0.218 C 
ATOM      9  C   UNL     1      -5.188 -10.720  12.159  0.00  0.00    +0.154 C 
ATOM     10  C   UNL     1      -4.398  -9.683  10.002  0.00  0.00    +0.136 C 
ATOM     11  C   UNL     1      -6.793  -8.814  11.617  0.00  0.00    +0.206 C 
ATOM     12  C   UNL     1      -5.020  -8.296  10.091  0.00  0.00    +0.179 C 
ATOM     13  C   UNL     1      -2.753 -10.231  11.758  0.00  0.00    +0.241 C 
ENDROOT
BRANCH   8   2
ATOM      2  O   UNL     1      -7.499 -10.780  12.773  0.00  0.00    -0.468 OA
BRANCH   2  15
ATOM      6  N   UNL     1      -6.009 -10.096  14.421  0.00  0.00    -0.219 NA
ATOM      7  N   UNL     1      -8.179  -9.545  16.111  0.00  0.00    -0.256 NA
ATOM     15  C   UNL     1      -7.284 -10.295  14.032  0.00  0.00    +0.234 A 
ATOM     16  C   UNL     1      -8.351 -10.024  14.862  0.00  0.00    +0.177 A 
ATOM     18  C   UNL     1      -5.838  -9.618  15.669  0.00  0.00    +0.134 A 
ATOM     19  C   UNL     1      -6.904  -9.346  16.499  0.00  0.00    +0.130 A 
ENDBRANCH   2  15
ENDBRANCH   8   2
BRANCH  13  14
ATOM     14  C   UNL     1      -2.495 -10.780  13.141  0.00  0.00    +0.255 C 
BRANCH  14   4
ATOM      4  O   UNL     1      -1.614  -9.883  13.770  0.00  0.00    -0.374 OA
ATOM     17  C   UNL     1      -1.495 -10.140  15.169  0.00  0.00    +0.194 C 
ENDBRANCH  14   4
ENDBRANCH  13  14
TORSDOF 4
ENDMDL
MODEL 9
REMARK VINA RESULT:      -3.4     15.133     17.458
REMARK  Name = 75536904
REMARK  5 active torsions:
REMARK  status: ('A' for Active; 'I' for Inactive)
REMARK    1  A    between atoms: O_2  and  C_8
REMARK    2  A    between atoms: O_2  and  C_15
REMARK    3  A    between atoms: O_4  and  C_14
REMARK    4  A    between atoms: O_4  and  C_17
REMARK    5  A    between atoms: C_13  and  C_14
REMARK                            x       y       z     vdW  Elec       q    Type
REMARK                         _______ _______ _______ _____ _____    ______ ____
ROOT
ATOM      1  O   UNL     1      -2.792  -8.809  10.401  0.00  0.00    -0.375 OA
ATOM      3  O   UNL     1      -7.151  -8.916   8.145  0.00  0.00    -0.273 OA
ATOM      5  N   UNL     1      -5.899  -9.244  10.084  0.00  0.00    -0.294 N 
ATOM      8  C   UNL     1      -4.324  -9.814  12.017  0.00  0.00    +0.218 C 
ATOM      9  C   UNL     1      -5.659 -10.028  11.300  0.00  0.00    +0.154 C 
ATOM     10  C   UNL     1      -5.052  -8.077   9.824  0.00  0.00    +0.136 C 
ATOM     11  C   UNL     1      -3.117 -10.004  11.103  0.00  0.00    +0.206 C 
ATOM     12  C   UNL     1      -3.674  -8.492   9.329  0.00  0.00    +0.179 C 
ATOM     13  C   UNL     1      -6.913  -9.559   9.170  0.00  0.00    +0.241 C 
ENDROOT
BRANCH   8   2
ATOM      2  O   UNL     1      -4.232 -10.781  13.066  0.00  0.00    -0.468 OA
BRANCH   2  15
ATOM      6  N   UNL     1      -4.088 -10.658  15.382  0.00  0.00    -0.219 NA
ATOM      7  N   UNL     1      -6.664  -9.551  15.454  0.00  0.00    -0.256 NA
ATOM     15  C   UNL     1      -4.803 -10.442  14.260  0.00  0.00    +0.234 A 
ATOM     16  C   UNL     1      -6.068  -9.898  14.295  0.00  0.00    +0.177 A 
ATOM     18  C   UNL     1      -4.683 -10.311  16.540  0.00  0.00    +0.134 A 
ATOM     19  C   UNL     1      -5.948  -9.767  16.575  0.00  0.00    +0.130 A 
ENDBRANCH   2  15
ENDBRANCH   8   2
BRANCH  13  14
ATOM     14  C   UNL     1      -7.747 -10.778   9.486  0.00  0.00    +0.255 C 
BRANCH  14   4
ATOM      4  O   UNL     1      -9.084 -10.344   9.546  0.00  0.00    -0.374 OA
ATOM     17  C   UNL     1      -9.388  -9.716  10.791  0.00  0.00    +0.194 C 
ENDBRANCH  14   4
ENDBRANCH  13  14
TORSDOF 4
ENDMDL
MODEL 10
REMARK VINA RESULT:      -3.4     14.434     16.966
REMARK  Name = 75536904
REMARK  5 active torsions:
REMARK  status: ('A' for Active; 'I' for Inactive)
REMARK    1  A    between atoms: O_2  and  C_8
REMARK    2  A    between atoms: O_2  and  C_15
REMARK    3  A    between atoms: O_4  and  C_14
REMARK    4  A    between atoms: O_4  and  C_17
REMARK    5  A    between atoms: C_13  and  C_14
REMARK                            x       y       z     vdW  Elec       q    Type
REMARK                         _______ _______ _______ _____ _____    ______ ____
ROOT
ATOM      1  O   UNL     1      -5.165 -10.077  13.809  0.00  0.00    -0.375 OA
ATOM      3  O   UNL     1      -8.204  -9.445  17.613  0.00  0.00    -0.273 OA
ATOM      5  N   UNL     1      -7.888 -10.107  15.399  0.00  0.00    -0.294 N 
ATOM      8  C   UNL     1      -7.399 -10.516  12.922  0.00  0.00    +0.218 C 
ATOM      9  C   UNL     1      -8.399 -10.166  14.027  0.00  0.00    +0.154 C 
ATOM     10  C   UNL     1      -6.588 -10.719  15.690  0.00  0.00    +0.136 C 
ATOM     11  C   UNL     1      -6.171  -9.610  12.917  0.00  0.00    +0.206 C 
ATOM     12  C   UNL     1      -5.443  -9.852  15.187  0.00  0.00    +0.179 C 
ATOM     13  C   UNL     1      -8.598  -9.502  16.445  0.00  0.00    +0.241 C 
ENDROOT
BRANCH   8   2
ATOM      2  O   UNL     1      -8.062 -10.359  11.666  0.00  0.00    -0.468 OA
BRANCH   2  15
ATOM      6  N   UNL     1      -6.317 -10.781  10.191  0.00  0.00    -0.219 NA
ATOM      7  N   UNL     1      -6.775  -8.292   8.983  0.00  0.00    -0.256 NA
ATOM     15  C   UNL     1      -7.290  -9.951  10.615  0.00  0.00    +0.234 A 
ATOM     16  C   UNL     1      -7.516  -8.728  10.021  0.00  0.00    +0.177 A 
ATOM     18  C   UNL     1      -5.577 -10.345   9.153  0.00  0.00    +0.134 A 
ATOM     19  C   UNL     1      -5.802  -9.123   8.559  0.00  0.00    +0.130 A 
ENDBRANCH   2  15
ENDBRANCH   8   2
BRANCH  13  14
ATOM     14  C   UNL     1      -9.926  -8.879  16.084  0.00  0.00    +0.255 C 
BRANCH  14   4
ATOM      4  O   UNL     1      -9.914  -7.577  16.613  0.00  0.00    -0.374 OA
ATOM     17  C   UNL     1     -10.256  -6.597  15.633  0.00  0.00    +0.194 C 
ENDBRANCH  14   4
ENDBRANCH  13  14
TORSDOF 4
ENDMDL
