MODEL 1
REMARK VINA RESULT:       3.7      0.000      0.000
REMARK  Name = 11885063
REMARK  13 active torsions:
REMARK  status: ('A' for Active; 'I' for Inactive)
REMARK    1  A    between atoms: O_2  and  C_17
REMARK    2  A    between atoms: O_3  and  C_22
REMARK    3  A    between atoms: O_5  and  C_30
REMARK    4  A    between atoms: O_5  and  C_35
REMARK    5  A    between atoms: N_9  and  C_28
REMARK    6  A    between atoms: N_11  and  C_29
REMARK    7  A    between atoms: C_12  and  C_20
REMARK    8  A    between atoms: C_14  and  C_22
REMARK    9  A    between atoms: C_14  and  C_23
REMARK   10  A    between atoms: C_15  and  C_25
REMARK   11  A    between atoms: C_25  and  C_26
REMARK   12  A    between atoms: C_28  and  C_29
REMARK   13  A    between atoms: C_35  and  C_36
REMARK                            x       y       z     vdW  Elec       q    Type
REMARK                         _______ _______ _______ _____ _____    ______ ____
ROOT
ATOM      1  S   UNL     1       0.710   2.211  25.231  0.00  0.00    -0.057 S 
ATOM      6  O   UNL     1       1.676  -0.240  21.387  0.00  0.00    -0.226 OA
ATOM      8  N   UNL     1      -0.310   1.178  23.089  0.00  0.00    -0.229 NA
ATOM     10  N   UNL     1       2.056   0.867  23.427  0.00  0.00    -0.230 N 
ATOM     12  C   UNL     1      -3.784   2.215  24.400  0.00  0.00    -0.019 C 
ATOM     13  C   UNL     1      -3.204   3.486  25.162  0.00  0.00    +0.011 C 
ATOM     14  C   UNL     1      -4.214   4.312  26.049  0.00  0.00    +0.021 C 
ATOM     15  C   UNL     1      -2.746   1.811  23.255  0.00  0.00    +0.054 C 
ATOM     16  C   UNL     1      -5.133   2.586  23.728  0.00  0.00    +0.010 C 
ATOM     17  C   UNL     1      -5.523   4.556  25.244  0.00  0.00    +0.123 C 
ATOM     18  C   UNL     1      -1.863   3.156  25.881  0.00  0.00    +0.049 C 
ATOM     19  C   UNL     1      -6.116   3.278  24.661  0.00  0.00    +0.032 C 
ATOM     20  C   UNL     1      -4.013   1.004  25.338  0.00  0.00    +0.012 C 
ATOM     21  C   UNL     1      -1.335   1.792  23.785  0.00  0.00    +0.058 A 
ATOM     23  C   UNL     1      -3.596   5.704  26.359  0.00  0.00    +0.016 C 
ATOM     24  C   UNL     1      -0.958   2.418  24.955  0.00  0.00    +0.015 A 
ATOM     27  C   UNL     1       0.812   1.328  23.761  0.00  0.00    +0.167 A 
ATOM     30  C   UNL     1       2.412   0.131  22.294  0.00  0.00    +0.406 C 
ATOM     41  H   UNL     1       2.799   1.091  24.084  0.00  0.00    +0.160 HD
ENDROOT
BRANCH  17   2
ATOM      2  O   UNL     1      -6.507   5.187  26.063  0.00  0.00    -0.391 OA
ATOM     38  H   UNL     1      -6.110   5.335  26.938  0.00  0.00    +0.210 HD
ENDBRANCH  17   2
BRANCH  30   5
ATOM      5  O   UNL     1       3.755  -0.136  22.330  0.00  0.00    -0.446 OA
BRANCH   5  35
ATOM     35  C   UNL     1       4.587   0.891  22.884  0.00  0.00    +0.261 C 
BRANCH  35  36
ATOM     36  C   UNL     1       5.517   0.274  23.874  0.00  0.00    +0.006 C 
ATOM     37  C   UNL     1       5.454  -1.005  24.261  0.00  0.00    +0.007 C 
ENDBRANCH  35  36
ENDBRANCH   5  35
ENDBRANCH  30   5
BRANCH  14  22
ATOM     22  C   UNL     1      -4.524   3.680  27.424  0.00  0.00    +0.165 C 
BRANCH  22   3
ATOM      3  O   UNL     1      -5.655   2.852  27.274  0.00  0.00    -0.394 OA
ATOM     39  H   UNL     1      -5.488   2.267  26.516  0.00  0.00    +0.209 HD
ENDBRANCH  22   3
ENDBRANCH  14  22
BRANCH  15  25
ATOM     25  C   UNL     1      -3.086   0.508  22.516  0.00  0.00    +0.106 C 
BRANCH  25  26
ATOM      4  O   UNL     1      -4.954   0.050  23.983  0.00  0.00    -0.276 OA
ATOM      9  N   UNL     1      -3.647  -1.708  23.206  0.00  0.00    -0.314 N 
ATOM     26  C   UNL     1      -4.012  -0.374  23.320  0.00  0.00    +0.214 C 
ATOM     40  H   UNL     1      -2.853  -1.959  22.624  0.00  0.00    +0.149 HD
BRANCH   9  28
ATOM     28  C   UNL     1      -4.353  -2.779  23.872  0.00  0.00    +0.119 C 
BRANCH  28  29
ATOM     29  C   UNL     1      -3.387  -3.741  24.545  0.00  0.00    +0.103 C 
BRANCH  29  11
ATOM      7  O   UNL     1      -1.033  -0.627  26.090  0.00  0.00    -0.377 OA
ATOM     11  N   UNL     1      -2.413  -3.004  25.348  0.00  0.00    -0.297 NA
ATOM     31  C   UNL     1      -3.070  -1.944  26.126  0.00  0.00    +0.112 C 
ATOM     32  C   UNL     1      -1.364  -2.426  24.496  0.00  0.00    +0.112 C 
ATOM     33  C   UNL     1      -2.033  -1.183  26.945  0.00  0.00    +0.175 C 
ATOM     34  C   UNL     1      -0.367  -1.653  25.354  0.00  0.00    +0.175 C 
ENDBRANCH  29  11
ENDBRANCH  28  29
ENDBRANCH   9  28
ENDBRANCH  25  26
ENDBRANCH  15  25
TORSDOF 11
ENDMDL
MODEL 2
REMARK VINA RESULT:       4.8      2.573      3.747
REMARK  Name = 11885063
REMARK  13 active torsions:
REMARK  status: ('A' for Active; 'I' for Inactive)
REMARK    1  A    between atoms: O_2  and  C_17
REMARK    2  A    between atoms: O_3  and  C_22
REMARK    3  A    between atoms: O_5  and  C_30
REMARK    4  A    between atoms: O_5  and  C_35
REMARK    5  A    between atoms: N_9  and  C_28
REMARK    6  A    between atoms: N_11  and  C_29
REMARK    7  A    between atoms: C_12  and  C_20
REMARK    8  A    between atoms: C_14  and  C_22
REMARK    9  A    between atoms: C_14  and  C_23
REMARK   10  A    between atoms: C_15  and  C_25
REMARK   11  A    between atoms: C_25  and  C_26
REMARK   12  A    between atoms: C_28  and  C_29
REMARK   13  A    between atoms: C_35  and  C_36
REMARK                            x       y       z     vdW  Elec       q    Type
REMARK                         _______ _______ _______ _____ _____    ______ ____
ROOT
ATOM      1  S   UNL     1       0.312   2.978  24.048  0.00  0.00    -0.057 S 
ATOM      6  O   UNL     1       2.898  -0.599  22.555  0.00  0.00    -0.226 OA
ATOM      8  N   UNL     1       0.256   0.473  23.404  0.00  0.00    -0.229 NA
ATOM     10  N   UNL     1       2.385   1.591  23.241  0.00  0.00    -0.230 N 
ATOM     12  C   UNL     1      -3.411   0.382  24.591  0.00  0.00    -0.019 C 
ATOM     13  C   UNL     1      -3.660   1.903  24.190  0.00  0.00    +0.011 C 
ATOM     14  C   UNL     1      -5.060   2.523  24.571  0.00  0.00    +0.021 C 
ATOM     15  C   UNL     1      -2.164  -0.151  23.747  0.00  0.00    +0.054 C 
ATOM     16  C   UNL     1      -4.655  -0.462  24.211  0.00  0.00    +0.010 C 
ATOM     17  C   UNL     1      -6.188   1.533  24.165  0.00  0.00    +0.123 C 
ATOM     18  C   UNL     1      -2.449   2.800  24.581  0.00  0.00    +0.049 C 
ATOM     19  C   UNL     1      -5.971   0.123  24.704  0.00  0.00    +0.032 C 
ATOM     20  C   UNL     1      -3.128   0.197  26.102  0.00  0.00    +0.012 C 
ATOM     21  C   UNL     1      -1.023   0.834  23.784  0.00  0.00    +0.058 A 
ATOM     23  C   UNL     1      -5.275   3.829  23.755  0.00  0.00    +0.016 C 
ATOM     24  C   UNL     1      -1.178   2.157  24.143  0.00  0.00    +0.015 A 
ATOM     27  C   UNL     1       1.045   1.520  23.511  0.00  0.00    +0.167 A 
ATOM     30  C   UNL     1       3.215   0.560  22.792  0.00  0.00    +0.406 C 
ATOM     41  H   UNL     1       2.816   2.500  23.388  0.00  0.00    +0.160 HD
ENDROOT
BRANCH  17   2
ATOM      2  O   UNL     1      -7.458   2.005  24.613  0.00  0.00    -0.391 OA
ATOM     38  H   UNL     1      -7.332   2.906  24.958  0.00  0.00    +0.210 HD
ENDBRANCH  17   2
BRANCH  30   5
ATOM      5  O   UNL     1       4.491   1.038  22.644  0.00  0.00    -0.446 OA
BRANCH   5  35
ATOM     35  C   UNL     1       5.353   0.893  23.779  0.00  0.00    +0.261 C 
BRANCH  35  36
ATOM     36  C   UNL     1       5.983  -0.458  23.734  0.00  0.00    +0.006 C 
ATOM     37  C   UNL     1       5.387  -1.575  24.166  0.00  0.00    +0.007 C 
ENDBRANCH  35  36
ENDBRANCH   5  35
ENDBRANCH  30   5
BRANCH  14  22
ATOM     22  C   UNL     1      -5.196   2.934  26.054  0.00  0.00    +0.165 C 
BRANCH  22   3
ATOM      3  O   UNL     1      -6.193   3.927  26.138  0.00  0.00    -0.394 OA
ATOM     39  H   UNL     1      -6.075   4.386  26.986  0.00  0.00    +0.209 HD
ENDBRANCH  22   3
ENDBRANCH  14  22
BRANCH  15  25
ATOM     25  C   UNL     1      -1.697  -1.565  24.122  0.00  0.00    +0.106 C 
BRANCH  25  26
ATOM      4  O   UNL     1      -0.028  -2.481  25.614  0.00  0.00    -0.276 OA
ATOM      9  N   UNL     1      -0.938  -0.388  26.056  0.00  0.00    -0.314 N 
ATOM     26  C   UNL     1      -0.789  -1.560  25.329  0.00  0.00    +0.214 C 
ATOM     40  H   UNL     1      -1.591   0.319  25.731  0.00  0.00    +0.149 HD
BRANCH   9  28
ATOM     28  C   UNL     1      -0.196  -0.109  27.264  0.00  0.00    +0.119 C 
BRANCH  28  29
ATOM     29  C   UNL     1      -0.203   1.377  27.584  0.00  0.00    +0.103 C 
BRANCH  29  11
ATOM      7  O   UNL     1       2.577   3.586  29.823  0.00  0.00    -0.377 OA
ATOM     11  N   UNL     1       0.979   1.735  28.365  0.00  0.00    -0.297 NA
ATOM     31  C   UNL     1       0.600   2.183  29.712  0.00  0.00    +0.112 C 
ATOM     32  C   UNL     1       1.755   2.783  27.686  0.00  0.00    +0.112 C 
ATOM     33  C   UNL     1       1.849   2.562  30.503  0.00  0.00    +0.175 C 
ATOM     34  C   UNL     1       2.977   3.148  28.525  0.00  0.00    +0.175 C 
ENDBRANCH  29  11
ENDBRANCH  28  29
ENDBRANCH   9  28
ENDBRANCH  25  26
ENDBRANCH  15  25
TORSDOF 11
ENDMDL
MODEL 3
REMARK VINA RESULT:       6.1      1.190      2.006
REMARK  Name = 11885063
REMARK  13 active torsions:
REMARK  status: ('A' for Active; 'I' for Inactive)
REMARK    1  A    between atoms: O_2  and  C_17
REMARK    2  A    between atoms: O_3  and  C_22
REMARK    3  A    between atoms: O_5  and  C_30
REMARK    4  A    between atoms: O_5  and  C_35
REMARK    5  A    between atoms: N_9  and  C_28
REMARK    6  A    between atoms: N_11  and  C_29
REMARK    7  A    between atoms: C_12  and  C_20
REMARK    8  A    between atoms: C_14  and  C_22
REMARK    9  A    between atoms: C_14  and  C_23
REMARK   10  A    between atoms: C_15  and  C_25
REMARK   11  A    between atoms: C_25  and  C_26
REMARK   12  A    between atoms: C_28  and  C_29
REMARK   13  A    between atoms: C_35  and  C_36
REMARK                            x       y       z     vdW  Elec       q    Type
REMARK                         _______ _______ _______ _____ _____    ______ ____
ROOT
ATOM      1  S   UNL     1       1.270   2.775  25.176  0.00  0.00    -0.057 S 
ATOM      6  O   UNL     1       2.580   0.125  21.574  0.00  0.00    -0.226 OA
ATOM      8  N   UNL     1       0.410   1.409  23.154  0.00  0.00    -0.229 NA
ATOM     10  N   UNL     1       2.796   1.464  23.495  0.00  0.00    -0.230 N 
ATOM     12  C   UNL     1      -3.178   2.074  24.395  0.00  0.00    -0.019 C 
ATOM     13  C   UNL     1      -2.784   3.481  25.027  0.00  0.00    +0.011 C 
ATOM     14  C   UNL     1      -3.902   4.239  25.841  0.00  0.00    +0.021 C 
ATOM     15  C   UNL     1      -2.091   1.710  23.284  0.00  0.00    +0.054 C 
ATOM     16  C   UNL     1      -4.563   2.188  23.706  0.00  0.00    +0.010 C 
ATOM     17  C   UNL     1      -5.229   4.220  25.031  0.00  0.00    +0.123 C 
ATOM     18  C   UNL     1      -1.412   3.411  25.760  0.00  0.00    +0.049 C 
ATOM     19  C   UNL     1      -5.637   2.822  24.579  0.00  0.00    +0.032 C 
ATOM     20  C   UNL     1      -3.240   0.939  25.447  0.00  0.00    +0.012 C 
ATOM     21  C   UNL     1      -0.692   1.938  23.798  0.00  0.00    +0.058 A 
ATOM     23  C   UNL     1      -3.485   5.727  26.011  0.00  0.00    +0.016 C 
ATOM     24  C   UNL     1      -0.410   2.720  24.899  0.00  0.00    +0.015 A 
ATOM     27  C   UNL     1       1.498   1.778  23.796  0.00  0.00    +0.167 A 
ATOM     30  C   UNL     1       3.254   0.680  22.433  0.00  0.00    +0.406 C 
ATOM     41  H   UNL     1       3.498   1.852  24.120  0.00  0.00    +0.160 HD
ENDROOT
BRANCH  17   2
ATOM      2  O   UNL     1      -6.294   4.784  25.796  0.00  0.00    -0.391 OA
ATOM     38  H   UNL     1      -7.130   4.498  25.391  0.00  0.00    +0.210 HD
ENDBRANCH  17   2
BRANCH  30   5
ATOM      5  O   UNL     1       4.621   0.607  22.481  0.00  0.00    -0.446 OA
BRANCH   5  35
ATOM     35  C   UNL     1       5.209   0.657  23.787  0.00  0.00    +0.261 C 
BRANCH  35  36
ATOM     36  C   UNL     1       5.477  -0.737  24.247  0.00  0.00    +0.006 C 
ATOM     37  C   UNL     1       4.724  -1.791  23.914  0.00  0.00    +0.007 C 
ENDBRANCH  35  36
ENDBRANCH   5  35
ENDBRANCH  30   5
BRANCH  14  22
ATOM     22  C   UNL     1      -4.124   3.705  27.274  0.00  0.00    +0.165 C 
BRANCH  22   3
ATOM      3  O   UNL     1      -5.268   2.881  27.255  0.00  0.00    -0.394 OA
ATOM     39  H   UNL     1      -5.135   2.216  26.559  0.00  0.00    +0.209 HD
ENDBRANCH  22   3
ENDBRANCH  14  22
BRANCH  15  25
ATOM     25  C   UNL     1      -2.244   0.308  22.675  0.00  0.00    +0.106 C 
BRANCH  25  26
ATOM      4  O   UNL     1      -0.302  -1.043  22.168  0.00  0.00    -0.276 OA
ATOM      9  N   UNL     1      -0.993  -0.809  24.375  0.00  0.00    -0.314 N 
ATOM     26  C   UNL     1      -1.071  -0.584  23.008  0.00  0.00    +0.214 C 
ATOM     40  H   UNL     1      -1.675  -0.376  24.991  0.00  0.00    +0.149 HD
BRANCH   9  28
ATOM     28  C   UNL     1       0.029  -1.631  24.982  0.00  0.00    +0.119 C 
BRANCH  28  29
ATOM     29  C   UNL     1      -0.537  -2.967  25.438  0.00  0.00    +0.103 C 
BRANCH  29  11
ATOM      7  O   UNL     1      -4.451  -1.919  24.345  0.00  0.00    -0.377 OA
ATOM     11  N   UNL     1      -1.995  -2.965  25.330  0.00  0.00    -0.297 NA
ATOM     31  C   UNL     1      -2.415  -3.173  23.937  0.00  0.00    +0.112 C 
ATOM     32  C   UNL     1      -2.554  -1.707  25.842  0.00  0.00    +0.112 C 
ATOM     33  C   UNL     1      -3.938  -3.155  23.847  0.00  0.00    +0.175 C 
ATOM     34  C   UNL     1      -4.075  -1.723  25.708  0.00  0.00    +0.175 C 
ENDBRANCH  29  11
ENDBRANCH  28  29
ENDBRANCH   9  28
ENDBRANCH  25  26
ENDBRANCH  15  25
TORSDOF 11
ENDMDL
MODEL 4
REMARK VINA RESULT:       6.3      3.113      4.725
REMARK  Name = 11885063
REMARK  13 active torsions:
REMARK  status: ('A' for Active; 'I' for Inactive)
REMARK    1  A    between atoms: O_2  and  C_17
REMARK    2  A    between atoms: O_3  and  C_22
REMARK    3  A    between atoms: O_5  and  C_30
REMARK    4  A    between atoms: O_5  and  C_35
REMARK    5  A    between atoms: N_9  and  C_28
REMARK    6  A    between atoms: N_11  and  C_29
REMARK    7  A    between atoms: C_12  and  C_20
REMARK    8  A    between atoms: C_14  and  C_22
REMARK    9  A    between atoms: C_14  and  C_23
REMARK   10  A    between atoms: C_15  and  C_25
REMARK   11  A    between atoms: C_25  and  C_26
REMARK   12  A    between atoms: C_28  and  C_29
REMARK   13  A    between atoms: C_35  and  C_36
REMARK                            x       y       z     vdW  Elec       q    Type
REMARK                         _______ _______ _______ _____ _____    ______ ____
ROOT
ATOM      1  S   UNL     1      -1.053  -1.128  23.616  0.00  0.00    -0.057 S 
ATOM      6  O   UNL     1       2.883   1.346  23.301  0.00  0.00    -0.226 OA
ATOM      8  N   UNL     1      -0.022   1.224  23.932  0.00  0.00    -0.229 NA
ATOM     10  N   UNL     1       1.461  -0.523  23.183  0.00  0.00    -0.230 N 
ATOM     12  C   UNL     1      -3.576   2.547  24.628  0.00  0.00    -0.019 C 
ATOM     13  C   UNL     1      -4.050   1.165  25.262  0.00  0.00    +0.011 C 
ATOM     14  C   UNL     1      -5.572   1.047  25.662  0.00  0.00    +0.021 C 
ATOM     15  C   UNL     1      -1.982   2.606  24.714  0.00  0.00    +0.054 C 
ATOM     16  C   UNL     1      -4.154   3.722  25.459  0.00  0.00    +0.010 C 
ATOM     17  C   UNL     1      -5.998   2.322  26.444  0.00  0.00    +0.123 C 
ATOM     18  C   UNL     1      -3.521  -0.048  24.443  0.00  0.00    +0.049 C 
ATOM     19  C   UNL     1      -5.650   3.616  25.718  0.00  0.00    +0.032 C 
ATOM     20  C   UNL     1      -4.019   2.716  23.154  0.00  0.00    +0.012 C 
ATOM     21  C   UNL     1      -1.365   1.312  24.247  0.00  0.00    +0.058 A 
ATOM     23  C   UNL     1      -5.752  -0.165  26.619  0.00  0.00    +0.016 C 
ATOM     24  C   UNL     1      -2.070   0.130  24.151  0.00  0.00    +0.015 A 
ATOM     27  C   UNL     1       0.253  -0.013  23.578  0.00  0.00    +0.167 A 
ATOM     30  C   UNL     1       2.673   0.162  23.070  0.00  0.00    +0.406 C 
ATOM     41  H   UNL     1       1.465  -1.512  22.950  0.00  0.00    +0.160 HD
ENDROOT
BRANCH  17   2
ATOM      2  O   UNL     1      -7.400   2.305  26.708  0.00  0.00    -0.391 OA
ATOM     38  H   UNL     1      -7.531   1.895  27.580  0.00  0.00    +0.210 HD
ENDBRANCH  17   2
BRANCH  30   5
ATOM      5  O   UNL     1       3.645  -0.705  22.645  0.00  0.00    -0.446 OA
BRANCH   5  35
ATOM     35  C   UNL     1       4.300  -1.467  23.667  0.00  0.00    +0.261 C 
BRANCH  35  36
ATOM     36  C   UNL     1       5.442  -0.670  24.203  0.00  0.00    +0.006 C 
ATOM     37  C   UNL     1       6.172   0.176  23.468  0.00  0.00    +0.007 C 
ENDBRANCH  35  36
ENDBRANCH   5  35
ENDBRANCH  30   5
BRANCH  14  22
ATOM     22  C   UNL     1      -6.527   0.785  24.476  0.00  0.00    +0.165 C 
BRANCH  22   3
ATOM      3  O   UNL     1      -7.380   1.900  24.354  0.00  0.00    -0.394 OA
ATOM     39  H   UNL     1      -7.311   2.220  23.439  0.00  0.00    +0.209 HD
ENDBRANCH  22   3
ENDBRANCH  14  22
BRANCH  15  25
ATOM     25  C   UNL     1      -1.349   3.816  24.011  0.00  0.00    +0.106 C 
BRANCH  25  26
ATOM      4  O   UNL     1       0.114   5.619  24.691  0.00  0.00    -0.276 OA
ATOM      9  N   UNL     1       0.178   3.597  25.835  0.00  0.00    -0.314 N 
ATOM     26  C   UNL     1      -0.282   4.469  24.859  0.00  0.00    +0.214 C 
ATOM     40  H   UNL     1      -0.222   2.664  25.897  0.00  0.00    +0.149 HD
BRANCH   9  28
ATOM     28  C   UNL     1       1.203   3.950  26.790  0.00  0.00    +0.119 C 
BRANCH  28  29
ATOM     29  C   UNL     1       1.795   2.712  27.446  0.00  0.00    +0.103 C 
BRANCH  29  11
ATOM      7  O   UNL     1       0.993   1.915  31.488  0.00  0.00    -0.377 OA
ATOM     11  N   UNL     1       1.744   2.835  28.902  0.00  0.00    -0.297 NA
ATOM     31  C   UNL     1       2.432   1.708  29.546  0.00  0.00    +0.112 C 
ATOM     32  C   UNL     1       0.353   2.911  29.371  0.00  0.00    +0.112 C 
ATOM     33  C   UNL     1       2.355   1.852  31.063  0.00  0.00    +0.175 C 
ATOM     34  C   UNL     1       0.326   3.027  30.893  0.00  0.00    +0.175 C 
ENDBRANCH  29  11
ENDBRANCH  28  29
ENDBRANCH   9  28
ENDBRANCH  25  26
ENDBRANCH  15  25
TORSDOF 11
ENDMDL
MODEL 5
REMARK VINA RESULT:       6.8      2.295      5.218
REMARK  Name = 11885063
REMARK  13 active torsions:
REMARK  status: ('A' for Active; 'I' for Inactive)
REMARK    1  A    between atoms: O_2  and  C_17
REMARK    2  A    between atoms: O_3  and  C_22
REMARK    3  A    between atoms: O_5  and  C_30
REMARK    4  A    between atoms: O_5  and  C_35
REMARK    5  A    between atoms: N_9  and  C_28
REMARK    6  A    between atoms: N_11  and  C_29
REMARK    7  A    between atoms: C_12  and  C_20
REMARK    8  A    between atoms: C_14  and  C_22
REMARK    9  A    between atoms: C_14  and  C_23
REMARK   10  A    between atoms: C_15  and  C_25
REMARK   11  A    between atoms: C_25  and  C_26
REMARK   12  A    between atoms: C_28  and  C_29
REMARK   13  A    between atoms: C_35  and  C_36
REMARK                            x       y       z     vdW  Elec       q    Type
REMARK                         _______ _______ _______ _____ _____    ______ ____
ROOT
ATOM      1  S   UNL     1       1.458  -1.869  23.774  0.00  0.00    -0.057 S 
ATOM      6  O   UNL     1       4.630   1.453  22.985  0.00  0.00    -0.226 OA
ATOM      8  N   UNL     1       1.798   0.678  23.470  0.00  0.00    -0.229 NA
ATOM     10  N   UNL     1       3.765  -0.708  23.323  0.00  0.00    -0.230 N 
ATOM     12  C   UNL     1      -2.035   1.072  23.576  0.00  0.00    -0.019 C 
ATOM     13  C   UNL     1      -2.215  -0.177  24.547  0.00  0.00    +0.011 C 
ATOM     14  C   UNL     1      -3.693  -0.615  24.882  0.00  0.00    +0.021 C 
ATOM     15  C   UNL     1      -0.535   1.600  23.726  0.00  0.00    +0.054 C 
ATOM     16  C   UNL     1      -2.999   2.207  24.011  0.00  0.00    +0.010 C 
ATOM     17  C   UNL     1      -4.530   0.643  25.251  0.00  0.00    +0.123 C 
ATOM     18  C   UNL     1      -1.290  -1.358  24.133  0.00  0.00    +0.049 C 
ATOM     19  C   UNL     1      -4.438   1.752  24.209  0.00  0.00    +0.032 C 
ATOM     20  C   UNL     1      -2.313   0.726  22.093  0.00  0.00    +0.012 C 
ATOM     21  C   UNL     1       0.449   0.460  23.676  0.00  0.00    +0.058 A 
ATOM     23  C   UNL     1      -3.676  -1.541  26.131  0.00  0.00    +0.016 C 
ATOM     24  C   UNL     1       0.091  -0.857  23.880  0.00  0.00    +0.015 A 
ATOM     27  C   UNL     1       2.426  -0.478  23.493  0.00  0.00    +0.167 A 
ATOM     30  C   UNL     1       4.764   0.240  23.086  0.00  0.00    +0.406 C 
ATOM     41  H   UNL     1       4.054  -1.681  23.379  0.00  0.00    +0.160 HD
ENDROOT
BRANCH  17   2
ATOM      2  O   UNL     1      -5.903   0.298  25.434  0.00  0.00    -0.391 OA
ATOM     38  H   UNL     1      -6.083   0.305  26.389  0.00  0.00    +0.210 HD
ENDBRANCH  17   2
BRANCH  30   5
ATOM      5  O   UNL     1       5.973  -0.396  22.975  0.00  0.00    -0.446 OA
BRANCH   5  35
ATOM     35  C   UNL     1       7.072   0.217  23.660  0.00  0.00    +0.261 C 
BRANCH  35  36
ATOM     36  C   UNL     1       8.347  -0.335  23.115  0.00  0.00    +0.006 C 
ATOM     37  C   UNL     1       9.522   0.300  23.177  0.00  0.00    +0.007 C 
ENDBRANCH  35  36
ENDBRANCH   5  35
ENDBRANCH  30   5
BRANCH  14  22
ATOM     22  C   UNL     1      -4.387  -1.431  23.770  0.00  0.00    +0.165 C 
BRANCH  22   3
ATOM      3  O   UNL     1      -4.181  -2.799  24.044  0.00  0.00    -0.394 OA
ATOM     39  H   UNL     1      -4.967  -3.122  24.516  0.00  0.00    +0.209 HD
ENDBRANCH  22   3
ENDBRANCH  14  22
BRANCH  15  25
ATOM     25  C   UNL     1      -0.151   2.718  22.746  0.00  0.00    +0.106 C 
BRANCH  25  26
ATOM      4  O   UNL     1       0.259   5.098  22.885  0.00  0.00    -0.276 OA
ATOM      9  N   UNL     1      -0.847   4.022  24.622  0.00  0.00    -0.314 N 
ATOM     26  C   UNL     1      -0.207   4.082  23.392  0.00  0.00    +0.214 C 
ATOM     40  H   UNL     1      -1.207   3.131  24.952  0.00  0.00    +0.149 HD
BRANCH   9  28
ATOM     28  C   UNL     1      -1.044   5.177  25.467  0.00  0.00    +0.119 C 
BRANCH  28  29
ATOM     29  C   UNL     1      -2.322   5.916  25.103  0.00  0.00    +0.103 C 
BRANCH  29  11
ATOM      7  O   UNL     1      -5.288   3.256  26.423  0.00  0.00    -0.377 OA
ATOM     11  N   UNL     1      -3.459   5.354  25.830  0.00  0.00    -0.297 NA
ATOM     31  C   UNL     1      -3.051   4.176  26.608  0.00  0.00    +0.112 C 
ATOM     32  C   UNL     1      -4.543   4.995  24.905  0.00  0.00    +0.112 C 
ATOM     33  C   UNL     1      -4.256   3.601  27.348  0.00  0.00    +0.175 C 
ATOM     34  C   UNL     1      -5.713   4.401  25.685  0.00  0.00    +0.175 C 
ENDBRANCH  29  11
ENDBRANCH  28  29
ENDBRANCH   9  28
ENDBRANCH  25  26
ENDBRANCH  15  25
TORSDOF 11
ENDMDL
MODEL 6
REMARK VINA RESULT:       7.0      2.448      5.443
REMARK  Name = 11885063
REMARK  13 active torsions:
REMARK  status: ('A' for Active; 'I' for Inactive)
REMARK    1  A    between atoms: O_2  and  C_17
REMARK    2  A    between atoms: O_3  and  C_22
REMARK    3  A    between atoms: O_5  and  C_30
REMARK    4  A    between atoms: O_5  and  C_35
REMARK    5  A    between atoms: N_9  and  C_28
REMARK    6  A    between atoms: N_11  and  C_29
REMARK    7  A    between atoms: C_12  and  C_20
REMARK    8  A    between atoms: C_14  and  C_22
REMARK    9  A    between atoms: C_14  and  C_23
REMARK   10  A    between atoms: C_15  and  C_25
REMARK   11  A    between atoms: C_25  and  C_26
REMARK   12  A    between atoms: C_28  and  C_29
REMARK   13  A    between atoms: C_35  and  C_36
REMARK                            x       y       z     vdW  Elec       q    Type
REMARK                         _______ _______ _______ _____ _____    ______ ____
ROOT
ATOM      1  S   UNL     1       1.945  -1.575  22.455  0.00  0.00    -0.057 S 
ATOM      6  O   UNL     1       5.230   1.481  23.712  0.00  0.00    -0.226 OA
ATOM      8  N   UNL     1       2.401   0.568  23.831  0.00  0.00    -0.229 NA
ATOM     10  N   UNL     1       4.275  -0.390  22.656  0.00  0.00    -0.230 N 
ATOM     12  C   UNL     1      -1.389   0.788  24.502  0.00  0.00    -0.019 C 
ATOM     13  C   UNL     1      -1.570  -0.793  24.453  0.00  0.00    +0.011 C 
ATOM     14  C   UNL     1      -3.042  -1.349  24.556  0.00  0.00    +0.021 C 
ATOM     15  C   UNL     1       0.144   1.099  24.825  0.00  0.00    +0.054 C 
ATOM     16  C   UNL     1      -2.258   1.371  25.647  0.00  0.00    +0.010 C 
ATOM     17  C   UNL     1      -3.783  -0.629  25.719  0.00  0.00    +0.123 C 
ATOM     18  C   UNL     1      -0.740  -1.425  23.297  0.00  0.00    +0.049 C 
ATOM     19  C   UNL     1      -3.702   0.891  25.631  0.00  0.00    +0.032 C 
ATOM     20  C   UNL     1      -1.787   1.480  23.175  0.00  0.00    +0.012 C 
ATOM     21  C   UNL     1       1.059   0.264  23.966  0.00  0.00    +0.058 A 
ATOM     23  C   UNL     1      -2.989  -2.863  24.908  0.00  0.00    +0.016 C 
ATOM     24  C   UNL     1       0.645  -0.874  23.305  0.00  0.00    +0.015 A 
ATOM     27  C   UNL     1       2.965  -0.328  23.050  0.00  0.00    +0.167 A 
ATOM     30  C   UNL     1       5.305   0.490  22.997  0.00  0.00    +0.406 C 
ATOM     41  H   UNL     1       4.514  -1.168  22.047  0.00  0.00    +0.160 HD
ENDROOT
BRANCH  17   2
ATOM      2  O   UNL     1      -5.156  -1.015  25.756  0.00  0.00    -0.391 OA
ATOM     38  H   UNL     1      -5.503  -0.784  26.635  0.00  0.00    +0.210 HD
ENDBRANCH  17   2
BRANCH  30   5
ATOM      5  O   UNL     1       6.467   0.081  22.398  0.00  0.00    -0.446 OA
BRANCH   5  35
ATOM     35  C   UNL     1       7.391  -0.628  23.233  0.00  0.00    +0.261 C 
BRANCH  35  36
ATOM     36  C   UNL     1       8.780  -0.306  22.794  0.00  0.00    +0.006 C 
ATOM     37  C   UNL     1       9.695   0.274  23.578  0.00  0.00    +0.007 C 
ENDBRANCH  35  36
ENDBRANCH   5  35
ENDBRANCH  30   5
BRANCH  14  22
ATOM     22  C   UNL     1      -3.855  -1.257  23.245  0.00  0.00    +0.165 C 
BRANCH  22   3
ATOM      3  O   UNL     1      -4.667  -2.406  23.159  0.00  0.00    -0.394 OA
ATOM     39  H   UNL     1      -4.597  -2.875  24.007  0.00  0.00    +0.209 HD
ENDBRANCH  22   3
ENDBRANCH  14  22
BRANCH  15  25
ATOM     25  C   UNL     1       0.520   2.587  24.764  0.00  0.00    +0.106 C 
BRANCH  25  26
ATOM      4  O   UNL     1      -0.693   3.253  26.748  0.00  0.00    -0.276 OA
ATOM      9  N   UNL     1      -0.964   4.458  24.780  0.00  0.00    -0.314 N 
ATOM     26  C   UNL     1      -0.433   3.444  25.564  0.00  0.00    +0.214 C 
ATOM     40  H   UNL     1      -0.678   4.537  23.808  0.00  0.00    +0.149 HD
BRANCH   9  28
ATOM     28  C   UNL     1      -1.909   5.430  25.280  0.00  0.00    +0.119 C 
BRANCH  28  29
ATOM     29  C   UNL     1      -3.219   5.373  24.508  0.00  0.00    +0.103 C 
BRANCH  29  11
ATOM      7  O   UNL     1      -6.233   2.464  24.760  0.00  0.00    -0.377 OA
ATOM     11  N   UNL     1      -3.920   4.122  24.787  0.00  0.00    -0.297 NA
ATOM     31  C   UNL     1      -4.413   3.511  23.545  0.00  0.00    +0.112 C 
ATOM     32  C   UNL     1      -5.036   4.345  25.716  0.00  0.00    +0.112 C 
ATOM     33  C   UNL     1      -5.151   2.213  23.862  0.00  0.00    +0.175 C 
ATOM     34  C   UNL     1      -5.759   3.027  25.983  0.00  0.00    +0.175 C 
ENDBRANCH  29  11
ENDBRANCH  28  29
ENDBRANCH   9  28
ENDBRANCH  25  26
ENDBRANCH  15  25
TORSDOF 11
ENDMDL
MODEL 7
REMARK VINA RESULT:       7.3      3.243      6.054
REMARK  Name = 11885063
REMARK  13 active torsions:
REMARK  status: ('A' for Active; 'I' for Inactive)
REMARK    1  A    between atoms: O_2  and  C_17
REMARK    2  A    between atoms: O_3  and  C_22
REMARK    3  A    between atoms: O_5  and  C_30
REMARK    4  A    between atoms: O_5  and  C_35
REMARK    5  A    between atoms: N_9  and  C_28
REMARK    6  A    between atoms: N_11  and  C_29
REMARK    7  A    between atoms: C_12  and  C_20
REMARK    8  A    between atoms: C_14  and  C_22
REMARK    9  A    between atoms: C_14  and  C_23
REMARK   10  A    between atoms: C_15  and  C_25
REMARK   11  A    between atoms: C_25  and  C_26
REMARK   12  A    between atoms: C_28  and  C_29
REMARK   13  A    between atoms: C_35  and  C_36
REMARK                            x       y       z     vdW  Elec       q    Type
REMARK                         _______ _______ _______ _____ _____    ______ ____
ROOT
ATOM      1  S   UNL     1      -0.258   0.020  22.661  0.00  0.00    -0.057 S 
ATOM      6  O   UNL     1       3.930   1.828  23.614  0.00  0.00    -0.226 OA
ATOM      8  N   UNL     1       0.984   1.830  24.030  0.00  0.00    -0.229 NA
ATOM     10  N   UNL     1       2.334   0.411  22.626  0.00  0.00    -0.230 N 
ATOM     12  C   UNL     1      -2.458   3.174  25.131  0.00  0.00    -0.019 C 
ATOM     13  C   UNL     1      -3.130   1.732  25.063  0.00  0.00    +0.011 C 
ATOM     14  C   UNL     1      -4.685   1.654  25.319  0.00  0.00    +0.021 C 
ATOM     15  C   UNL     1      -0.880   2.974  25.286  0.00  0.00    +0.054 C 
ATOM     16  C   UNL     1      -2.980   3.928  26.382  0.00  0.00    +0.010 C 
ATOM     17  C   UNL     1      -5.041   2.498  26.576  0.00  0.00    +0.123 C 
ATOM     18  C   UNL     1      -2.661   0.944  23.805  0.00  0.00    +0.049 C 
ATOM     19  C   UNL     1      -4.496   3.921  26.518  0.00  0.00    +0.032 C 
ATOM     20  C   UNL     1      -2.749   4.032  23.876  0.00  0.00    +0.012 C 
ATOM     21  C   UNL     1      -0.365   1.949  24.309  0.00  0.00    +0.058 A 
ATOM     23  C   UNL     1      -5.075   0.181  25.625  0.00  0.00    +0.016 C 
ATOM     24  C   UNL     1      -1.180   1.037  23.671  0.00  0.00    +0.015 A 
ATOM     27  C   UNL     1       1.157   0.851  23.168  0.00  0.00    +0.167 A 
ATOM     30  C   UNL     1       3.617   0.906  22.870  0.00  0.00    +0.406 C 
ATOM     41  H   UNL     1       2.254  -0.366  21.974  0.00  0.00    +0.160 HD
ENDROOT
BRANCH  17   2
ATOM      2  O   UNL     1      -6.455   2.555  26.760  0.00  0.00    -0.391 OA
ATOM     38  H   UNL     1      -6.715   3.491  26.752  0.00  0.00    +0.210 HD
ENDBRANCH  17   2
BRANCH  30   5
ATOM      5  O   UNL     1       4.526   0.193  22.132  0.00  0.00    -0.446 OA
BRANCH   5  35
ATOM     35  C   UNL     1       5.750  -0.144  22.796  0.00  0.00    +0.261 C 
BRANCH  35  36
ATOM     36  C   UNL     1       5.430  -0.936  24.020  0.00  0.00    +0.006 C 
ATOM     37  C   UNL     1       4.624  -2.003  24.029  0.00  0.00    +0.007 C 
ENDBRANCH  35  36
ENDBRANCH   5  35
ENDBRANCH  30   5
BRANCH  14  22
ATOM     22  C   UNL     1      -5.554   2.071  24.112  0.00  0.00    +0.165 C 
BRANCH  22   3
ATOM      3  O   UNL     1      -6.880   1.674  24.377  0.00  0.00    -0.394 OA
ATOM     39  H   UNL     1      -6.886   1.248  25.251  0.00  0.00    +0.209 HD
ENDBRANCH  22   3
ENDBRANCH  14  22
BRANCH  15  25
ATOM     25  C   UNL     1      -0.064   4.274  25.220  0.00  0.00    +0.106 C 
BRANCH  25  26
ATOM      4  O   UNL     1      -1.349   5.806  23.858  0.00  0.00    -0.276 OA
ATOM      9  N   UNL     1       0.593   4.860  23.000  0.00  0.00    -0.314 N 
ATOM     26  C   UNL     1      -0.371   5.073  23.975  0.00  0.00    +0.214 C 
ATOM     40  H   UNL     1       1.372   4.239  23.198  0.00  0.00    +0.149 HD
BRANCH   9  28
ATOM     28  C   UNL     1       0.555   5.493  21.702  0.00  0.00    +0.119 C 
BRANCH  28  29
ATOM     29  C   UNL     1       1.878   6.171  21.380  0.00  0.00    +0.103 C 
BRANCH  29  11
ATOM      7  O   UNL     1       4.175   5.381  17.957  0.00  0.00    -0.377 OA
ATOM     11  N   UNL     1       2.564   5.461  20.302  0.00  0.00    -0.297 NA
ATOM     31  C   UNL     1       4.013   5.704  20.356  0.00  0.00    +0.112 C 
ATOM     32  C   UNL     1       2.034   5.863  18.992  0.00  0.00    +0.112 C 
ATOM     33  C   UNL     1       4.706   4.964  19.216  0.00  0.00    +0.175 C 
ATOM     34  C   UNL     1       2.774   5.119  17.884  0.00  0.00    +0.175 C 
ENDBRANCH  29  11
ENDBRANCH  28  29
ENDBRANCH   9  28
ENDBRANCH  25  26
ENDBRANCH  15  25
TORSDOF 11
ENDMDL
