MODEL 1
REMARK VINA RESULT:      13.5      0.000      0.000
REMARK  Name = 11883067
REMARK  11 active torsions:
REMARK  status: ('A' for Active; 'I' for Inactive)
REMARK    1  A    between atoms: O_2  and  C_15
REMARK    2  A    between atoms: O_3  and  C_20
REMARK    3  A    between atoms: N_8  and  C_26
REMARK    4  A    between atoms: N_8  and  C_27
REMARK    5  A    between atoms: C_10  and  C_18
REMARK    6  A    between atoms: C_12  and  C_20
REMARK    7  A    between atoms: C_12  and  C_21
REMARK    8  A    between atoms: C_13  and  C_23
REMARK    9  A    between atoms: C_23  and  C_24
REMARK   10  A    between atoms: C_26  and  C_29
REMARK   11  A    between atoms: C_28  and  C_30
REMARK                            x       y       z     vdW  Elec       q    Type
REMARK                         _______ _______ _______ _____ _____    ______ ____
ROOT
ATOM      1  S   UNL     1       0.347   2.263  25.851  0.00  0.00    -0.057 S 
ATOM      5  O   UNL     1       1.843   0.190  22.000  0.00  0.00    -0.266 OA
ATOM      7  N   UNL     1      -0.327   1.443  23.492  0.00  0.00    -0.229 NA
ATOM      9  N   UNL     1       1.960   1.078  24.158  0.00  0.00    -0.258 N 
ATOM     10  C   UNL     1      -3.966   2.391  24.345  0.00  0.00    -0.019 C 
ATOM     11  C   UNL     1      -3.515   3.581  25.303  0.00  0.00    +0.011 C 
ATOM     12  C   UNL     1      -4.653   4.331  26.098  0.00  0.00    +0.021 C 
ATOM     13  C   UNL     1      -2.763   2.084  23.340  0.00  0.00    +0.054 C 
ATOM     14  C   UNL     1      -5.196   2.837  23.513  0.00  0.00    +0.010 C 
ATOM     15  C   UNL     1      -5.822   4.662  25.127  0.00  0.00    +0.123 C 
ATOM     16  C   UNL     1      -2.300   3.172  26.184  0.00  0.00    +0.049 C 
ATOM     17  C   UNL     1      -6.315   3.450  24.344  0.00  0.00    +0.032 C 
ATOM     18  C   UNL     1      -4.332   1.101  25.121  0.00  0.00    +0.012 C 
ATOM     19  C   UNL     1      -1.450   2.001  24.076  0.00  0.00    +0.058 A 
ATOM     21  C   UNL     1      -4.094   5.683  26.626  0.00  0.00    +0.016 C 
ATOM     22  C   UNL     1      -1.259   2.512  25.343  0.00  0.00    +0.015 A 
ATOM     25  C   UNL     1       0.676   1.520  24.338  0.00  0.00    +0.165 A 
ATOM     28  C   UNL     1       2.491   0.438  23.014  0.00  0.00    +0.285 C 
ATOM     41  H   UNL     1       2.582   1.231  24.947  0.00  0.00    +0.157 HD
ENDROOT
BRANCH  28  30
ATOM      6  O   UNL     1       4.173  -1.190  23.659  0.00  0.00    -0.458 OA
ATOM     30  C   UNL     1       3.903   0.031  23.126  0.00  0.00    +0.189 A 
ATOM     33  C   UNL     1       5.068   0.676  22.780  0.00  0.00    +0.054 A 
ATOM     37  C   UNL     1       6.121  -0.206  23.123  0.00  0.00    +0.042 A 
ATOM     38  C   UNL     1       5.524  -1.326  23.653  0.00  0.00    +0.196 A 
ENDBRANCH  28  30
BRANCH  15   2
ATOM      2  O   UNL     1      -6.923   5.226  25.841  0.00  0.00    -0.391 OA
ATOM     39  H   UNL     1      -7.342   4.511  26.348  0.00  0.00    +0.210 HD
ENDBRANCH  15   2
BRANCH  12  20
ATOM     20  C   UNL     1      -5.167   3.578  27.343  0.00  0.00    +0.165 C 
BRANCH  20   3
ATOM      3  O   UNL     1      -6.194   2.706  26.928  0.00  0.00    -0.394 OA
ATOM     40  H   UNL     1      -5.963   1.815  27.243  0.00  0.00    +0.209 HD
ENDBRANCH  20   3
ENDBRANCH  12  20
BRANCH  13  23
ATOM     23  C   UNL     1      -2.981   0.859  22.441  0.00  0.00    +0.106 C 
BRANCH  23  24
ATOM      4  O   UNL     1      -1.264  -0.687  23.082  0.00  0.00    -0.276 OA
ATOM      8  N   UNL     1      -3.443  -1.244  23.649  0.00  0.00    -0.300 N 
ATOM     24  C   UNL     1      -2.468  -0.418  23.079  0.00  0.00    +0.216 C 
ATOM     27  C   UNL     1      -4.860  -0.905  23.634  0.00  0.00    +0.132 C 
BRANCH   8  26
ATOM     26  C   UNL     1      -3.113  -2.507  24.304  0.00  0.00    +0.142 C 
BRANCH  26  29
ATOM     29  C   UNL     1      -1.846  -2.410  25.106  0.00  0.00    -0.030 A 
ATOM     31  C   UNL     1      -0.789  -3.283  24.848  0.00  0.00    +0.005 A 
ATOM     32  C   UNL     1      -1.728  -1.446  26.107  0.00  0.00    +0.005 A 
ATOM     34  C   UNL     1       0.387  -3.192  25.592  0.00  0.00    +0.000 A 
ATOM     35  C   UNL     1      -0.551  -1.355  26.851  0.00  0.00    +0.000 A 
ATOM     36  C   UNL     1       0.506  -2.229  26.594  0.00  0.00    +0.000 A 
ENDBRANCH  26  29
ENDBRANCH   8  26
ENDBRANCH  23  24
ENDBRANCH  13  23
TORSDOF 8
ENDMDL
MODEL 2
REMARK VINA RESULT:      13.8      2.468      5.352
REMARK  Name = 11883067
REMARK  11 active torsions:
REMARK  status: ('A' for Active; 'I' for Inactive)
REMARK    1  A    between atoms: O_2  and  C_15
REMARK    2  A    between atoms: O_3  and  C_20
REMARK    3  A    between atoms: N_8  and  C_26
REMARK    4  A    between atoms: N_8  and  C_27
REMARK    5  A    between atoms: C_10  and  C_18
REMARK    6  A    between atoms: C_12  and  C_20
REMARK    7  A    between atoms: C_12  and  C_21
REMARK    8  A    between atoms: C_13  and  C_23
REMARK    9  A    between atoms: C_23  and  C_24
REMARK   10  A    between atoms: C_26  and  C_29
REMARK   11  A    between atoms: C_28  and  C_30
REMARK                            x       y       z     vdW  Elec       q    Type
REMARK                         _______ _______ _______ _____ _____    ______ ____
ROOT
ATOM      1  S   UNL     1       2.083  -1.849  23.413  0.00  0.00    -0.057 S 
ATOM      5  O   UNL     1       5.061   1.676  23.681  0.00  0.00    -0.266 OA
ATOM      7  N   UNL     1       2.315   0.701  23.789  0.00  0.00    -0.229 NA
ATOM      9  N   UNL     1       4.350  -0.532  23.401  0.00  0.00    -0.258 N 
ATOM     10  C   UNL     1      -1.535   0.920  23.782  0.00  0.00    -0.019 C 
ATOM     11  C   UNL     1      -1.698  -0.543  24.390  0.00  0.00    +0.011 C 
ATOM     12  C   UNL     1      -3.166  -1.105  24.521  0.00  0.00    +0.021 C 
ATOM     13  C   UNL     1      -0.070   1.443  24.145  0.00  0.00    +0.054 C 
ATOM     14  C   UNL     1      -2.570   1.869  24.440  0.00  0.00    +0.010 C 
ATOM     15  C   UNL     1      -4.078  -0.015  25.153  0.00  0.00    +0.123 C 
ATOM     16  C   UNL     1      -0.700  -1.544  23.740  0.00  0.00    +0.049 C 
ATOM     17  C   UNL     1      -3.993   1.329  24.436  0.00  0.00    +0.032 C 
ATOM     18  C   UNL     1      -1.731   0.957  22.246  0.00  0.00    +0.012 C 
ATOM     19  C   UNL     1       0.969   0.389  23.858  0.00  0.00    +0.058 A 
ATOM     21  C   UNL     1      -3.159  -2.320  25.491  0.00  0.00    +0.016 C 
ATOM     22  C   UNL     1       0.666  -0.947  23.699  0.00  0.00    +0.015 A 
ATOM     25  C   UNL     1       2.994  -0.400  23.551  0.00  0.00    +0.165 A 
ATOM     28  C   UNL     1       5.320   0.494  23.470  0.00  0.00    +0.285 C 
ATOM     41  H   UNL     1       4.672  -1.478  23.215  0.00  0.00    +0.157 HD
ENDROOT
BRANCH  28  30
ATOM      6  O   UNL     1       6.902  -0.984  22.370  0.00  0.00    -0.458 OA
ATOM     30  C   UNL     1       6.706   0.058  23.220  0.00  0.00    +0.189 A 
ATOM     33  C   UNL     1       7.909   0.520  23.704  0.00  0.00    +0.054 A 
ATOM     37  C   UNL     1       8.907  -0.290  23.112  0.00  0.00    +0.042 A 
ATOM     38  C   UNL     1       8.244  -1.189  22.310  0.00  0.00    +0.196 A 
ENDBRANCH  28  30
BRANCH  15   2
ATOM      2  O   UNL     1      -5.439  -0.443  25.167  0.00  0.00    -0.391 OA
ATOM     39  H   UNL     1      -5.495  -1.229  25.736  0.00  0.00    +0.210 HD
ENDBRANCH  15   2
BRANCH  12  20
ATOM     20  C   UNL     1      -3.771  -1.631  23.201  0.00  0.00    +0.165 C 
BRANCH  20   3
ATOM      3  O   UNL     1      -4.672  -2.667  23.521  0.00  0.00    -0.394 OA
ATOM     40  H   UNL     1      -5.430  -2.262  23.976  0.00  0.00    +0.209 HD
ENDBRANCH  20   3
ENDBRANCH  12  20
BRANCH  13  23
ATOM     23  C   UNL     1       0.303   2.788  23.504  0.00  0.00    +0.106 C 
BRANCH  23  24
ATOM      4  O   UNL     1      -1.148   4.654  23.104  0.00  0.00    -0.276 OA
ATOM      8  N   UNL     1      -0.849   4.013  25.312  0.00  0.00    -0.300 N 
ATOM     24  C   UNL     1      -0.629   3.904  23.935  0.00  0.00    +0.216 C 
ATOM     27  C   UNL     1      -0.225   3.115  26.276  0.00  0.00    +0.132 C 
BRANCH   8  26
ATOM     26  C   UNL     1      -1.721   5.034  25.889  0.00  0.00    +0.142 C 
BRANCH  26  29
ATOM     29  C   UNL     1      -3.169   4.638  25.821  0.00  0.00    -0.030 A 
ATOM     31  C   UNL     1      -3.945   5.018  24.726  0.00  0.00    +0.005 A 
ATOM     32  C   UNL     1      -3.735   3.890  26.852  0.00  0.00    +0.005 A 
ATOM     34  C   UNL     1      -5.288   4.650  24.663  0.00  0.00    +0.000 A 
ATOM     35  C   UNL     1      -5.080   3.522  26.789  0.00  0.00    +0.000 A 
ATOM     36  C   UNL     1      -5.856   3.903  25.695  0.00  0.00    +0.000 A 
ENDBRANCH  26  29
ENDBRANCH   8  26
ENDBRANCH  23  24
ENDBRANCH  13  23
TORSDOF 8
ENDMDL
