MODEL 1
REMARK VINA RESULT:      -7.1      0.000      0.000
REMARK  Name = 51137946
REMARK  8 active torsions:
REMARK  status: ('A' for Active; 'I' for Inactive)
REMARK    1  A    between atoms: N_3  and  C_19
REMARK    2  A    between atoms: N_5  and  C_23
REMARK    3  A    between atoms: C_6  and  C_9
REMARK    4  A    between atoms: C_7  and  C_20
REMARK    5  A    between atoms: C_9  and  C_13
REMARK    6  A    between atoms: C_13  and  C_24
REMARK    7  A    between atoms: C_13  and  C_25
REMARK    8  A    between atoms: C_19  and  C_23
REMARK                            x       y       z     vdW  Elec       q    Type
REMARK                         _______ _______ _______ _____ _____    ______ ____
ROOT
ATOM      2  N   UNL     1      -1.627  -0.058  24.810  0.00  0.00    -0.299 NA
ATOM      4  N   UNL     1      -2.699   4.830  25.486  0.00  0.00    -0.360 N 
ATOM      6  C   UNL     1      -3.089   0.047  24.702  0.00  0.00    +0.085 C 
ATOM      7  C   UNL     1      -0.886   0.791  23.889  0.00  0.00    +0.145 C 
ATOM      8  C   UNL     1      -3.688   1.412  25.053  0.00  0.00    -0.021 A 
ATOM     10  C   UNL     1      -0.447   2.093  24.555  0.00  0.00    +0.065 C 
ATOM     11  C   UNL     1      -2.957   2.633  25.137  0.00  0.00    +0.008 A 
ATOM     12  C   UNL     1      -1.578   2.988  24.937  0.00  0.00    -0.020 A 
ATOM     18  C   UNL     1      -3.630   3.819  25.455  0.00  0.00    +0.047 A 
ATOM     21  C   UNL     1      -1.464   4.344  25.172  0.00  0.00    +0.087 A 
ATOM     22  C   UNL     1      -5.091   1.510  25.238  0.00  0.00    +0.006 A 
ATOM     26  C   UNL     1      -5.006   3.885  25.680  0.00  0.00    +0.026 A 
ATOM     27  C   UNL     1      -5.730   2.708  25.553  0.00  0.00    +0.002 A 
ATOM     28  H   UNL     1      -1.322   0.086  25.771  0.00  0.00    +0.123 HD
ATOM     29  H   UNL     1      -2.905   5.797  25.695  0.00  0.00    +0.165 HD
ENDROOT
BRANCH   7  20
ATOM      1  O   UNL     1       0.637  -1.033  24.107  0.00  0.00    -0.274 OA
ATOM      5  N   UNL     1       1.031   0.575  22.471  0.00  0.00    -0.313 N 
ATOM     20  C   UNL     1       0.329  -0.003  23.514  0.00  0.00    +0.230 C 
ATOM     30  H   UNL     1       0.675   1.424  22.039  0.00  0.00    +0.149 HD
BRANCH   5  23
ATOM     23  C   UNL     1       2.252   0.018  21.935  0.00  0.00    +0.119 C 
BRANCH  23  19
ATOM     19  C   UNL     1       3.456   0.872  22.306  0.00  0.00    +0.103 C 
BRANCH  19   3
ATOM      3  N   UNL     1       4.538   0.031  22.798  0.00  0.00    -0.301 NA
ATOM     14  C   UNL     1       5.366   0.713  23.792  0.00  0.00    +0.084 C 
ATOM     15  C   UNL     1       4.048  -1.171  23.472  0.00  0.00    +0.084 C 
ATOM     16  C   UNL     1       6.142  -0.429  24.431  0.00  0.00    +0.017 C 
ATOM     17  C   UNL     1       5.278  -1.668  24.217  0.00  0.00    +0.017 C 
ENDBRANCH  19   3
ENDBRANCH  23  19
ENDBRANCH   5  23
ENDBRANCH   7  20
BRANCH   6   9
ATOM      9  C   UNL     1      -3.628  -1.083  25.598  0.00  0.00    +0.026 C 
BRANCH   9  13
ATOM     13  C   UNL     1      -3.664  -2.441  24.891  0.00  0.00    -0.015 C 
ATOM     24  C   UNL     1      -2.233  -2.902  24.609  0.00  0.00    +0.007 C 
ATOM     25  C   UNL     1      -4.462  -2.404  23.586  0.00  0.00    +0.007 C 
ENDBRANCH   9  13
ENDBRANCH   6   9
TORSDOF 6
ENDMDL
MODEL 2
REMARK VINA RESULT:      -3.3      1.491      3.734
REMARK  Name = 51137946
REMARK  8 active torsions:
REMARK  status: ('A' for Active; 'I' for Inactive)
REMARK    1  A    between atoms: N_3  and  C_19
REMARK    2  A    between atoms: N_5  and  C_23
REMARK    3  A    between atoms: C_6  and  C_9
REMARK    4  A    between atoms: C_7  and  C_20
REMARK    5  A    between atoms: C_9  and  C_13
REMARK    6  A    between atoms: C_13  and  C_24
REMARK    7  A    between atoms: C_13  and  C_25
REMARK    8  A    between atoms: C_19  and  C_23
REMARK                            x       y       z     vdW  Elec       q    Type
REMARK                         _______ _______ _______ _____ _____    ______ ____
ROOT
ATOM      2  N   UNL     1      -1.541   1.233  23.887  0.00  0.00    -0.299 NA
ATOM      4  N   UNL     1      -6.452   0.823  24.991  0.00  0.00    -0.360 N 
ATOM      6  C   UNL     1      -1.888   2.459  24.620  0.00  0.00    +0.085 C 
ATOM      7  C   UNL     1      -1.835  -0.004  24.597  0.00  0.00    +0.145 C 
ATOM      8  C   UNL     1      -3.377   2.664  24.912  0.00  0.00    -0.021 A 
ATOM     10  C   UNL     1      -3.176  -0.594  24.164  0.00  0.00    +0.065 C 
ATOM     11  C   UNL     1      -4.375   1.648  24.844  0.00  0.00    +0.008 A 
ATOM     12  C   UNL     1      -4.352   0.245  24.532  0.00  0.00    -0.020 A 
ATOM     18  C   UNL     1      -5.703   1.966  25.151  0.00  0.00    +0.047 A 
ATOM     21  C   UNL     1      -5.650  -0.218  24.626  0.00  0.00    +0.087 A 
ATOM     22  C   UNL     1      -3.811   3.937  25.363  0.00  0.00    +0.006 A 
ATOM     26  C   UNL     1      -6.118   3.238  25.547  0.00  0.00    +0.026 A 
ATOM     27  C   UNL     1      -5.143   4.219  25.661  0.00  0.00    +0.002 A 
ATOM     28  H   UNL     1      -1.959   1.234  22.959  0.00  0.00    +0.123 HD
ATOM     29  H   UNL     1      -7.449   0.762  25.142  0.00  0.00    +0.165 HD
ENDROOT
BRANCH   7  20
ATOM      1  O   UNL     1      -0.799  -2.149  24.460  0.00  0.00    -0.274 OA
ATOM      5  N   UNL     1       0.320  -0.299  23.596  0.00  0.00    -0.313 N 
ATOM     20  C   UNL     1      -0.735  -0.947  24.214  0.00  0.00    +0.230 C 
ATOM     30  H   UNL     1       0.261   0.702  23.426  0.00  0.00    +0.149 HD
BRANCH   5  23
ATOM     23  C   UNL     1       1.514  -0.980  23.149  0.00  0.00    +0.119 C 
BRANCH  23  19
ATOM     19  C   UNL     1       2.389  -0.062  22.308  0.00  0.00    +0.103 C 
BRANCH  19   3
ATOM      3  N   UNL     1       3.794  -0.275  22.625  0.00  0.00    -0.301 NA
ATOM     14  C   UNL     1       4.467   0.958  23.030  0.00  0.00    +0.084 C 
ATOM     15  C   UNL     1       3.979  -1.195  23.747  0.00  0.00    +0.084 C 
ATOM     16  C   UNL     1       5.751   0.451  23.670  0.00  0.00    +0.017 C 
ATOM     17  C   UNL     1       5.432  -0.965  24.138  0.00  0.00    +0.017 C 
ENDBRANCH  19   3
ENDBRANCH  23  19
ENDBRANCH   5  23
ENDBRANCH   7  20
BRANCH   6   9
ATOM      9  C   UNL     1      -1.289   3.599  23.777  0.00  0.00    +0.026 C 
BRANCH   9  13
ATOM     13  C   UNL     1      -0.341   4.499  24.575  0.00  0.00    -0.015 C 
ATOM     24  C   UNL     1       0.123   3.757  25.831  0.00  0.00    +0.007 C 
ATOM     25  C   UNL     1      -0.985   5.829  24.969  0.00  0.00    +0.007 C 
ENDBRANCH   9  13
ENDBRANCH   6   9
TORSDOF 6
ENDMDL
