MODEL 1
REMARK VINA RESULT:       1.5      0.000      0.000
REMARK  Name = 45783986
REMARK  18 active torsions:
REMARK  status: ('A' for Active; 'I' for Inactive)
REMARK    1  A    between atoms: O_2  and  C_25
REMARK    2  A    between atoms: O_2  and  C_29
REMARK    3  A    between atoms: O_3  and  C_26
REMARK    4  A    between atoms: O_3  and  C_30
REMARK    5  A    between atoms: N_6  and  C_16
REMARK    6  A    between atoms: N_6  and  C_22
REMARK    7  A    between atoms: N_6  and  C_23
REMARK    8  A    between atoms: N_9  and  C_35
REMARK    9  A    between atoms: C_10  and  C_14
REMARK   10  A    between atoms: C_11  and  C_16
REMARK   11  A    between atoms: C_13  and  C_18
REMARK   12  A    between atoms: C_14  and  C_19
REMARK   13  A    between atoms: C_14  and  C_20
REMARK   14  A    between atoms: C_15  and  C_21
REMARK   15  A    between atoms: C_18  and  C_24
REMARK   16  A    between atoms: C_22  and  C_25
REMARK   17  A    between atoms: C_23  and  C_26
REMARK   18  A    between atoms: C_27  and  C_28
REMARK                            x       y       z     vdW  Elec       q    Type
REMARK                         _______ _______ _______ _____ _____    ______ ____
ROOT
ATOM     10  C   UNL     1      -3.022   2.757  24.096  0.00  0.00    +0.000 C 
ATOM     11  C   UNL     1      -3.428   3.566  25.350  0.00  0.00    +0.029 C 
ATOM     12  C   UNL     1      -3.188   1.252  24.350  0.00  0.00    +0.012 C 
ATOM     13  C   UNL     1      -4.620   0.859  24.774  0.00  0.00    +0.024 C 
ATOM     15  C   UNL     1      -5.256   1.861  25.725  0.00  0.00    -0.073 C 
ATOM     17  C   UNL     1      -4.702   3.061  25.978  0.00  0.00    -0.023 C 
ATOM     21  C   UNL     1      -6.578   1.491  26.342  0.00  0.00    +0.039 C 
ENDROOT
BRANCH  10  14
ATOM     14  C   UNL     1      -3.815   3.203  22.861  0.00  0.00    -0.013 C 
ATOM     19  C   UNL     1      -3.102   2.767  21.584  0.00  0.00    +0.007 C 
ATOM     20  C   UNL     1      -4.020   4.714  22.877  0.00  0.00    +0.007 C 
ENDBRANCH  10  14
BRANCH  11  16
ATOM     16  C   UNL     1      -2.315   3.574  26.403  0.00  0.00    +0.092 C 
BRANCH  16   6
ATOM      6  N   UNL     1      -1.130   2.900  25.903  0.00  0.00    -0.297 NA
BRANCH   6  22
ATOM     22  C   UNL     1      -0.565   2.013  26.925  0.00  0.00    +0.112 C 
BRANCH  22  25
ATOM     25  C   UNL     1       0.800   2.513  27.373  0.00  0.00    +0.174 C 
BRANCH  25   2
ATOM      2  O   UNL     1       0.923   2.308  28.774  0.00  0.00    -0.382 OA
ATOM     29  C   UNL     1       2.224   2.645  29.238  0.00  0.00    +0.194 C 
ENDBRANCH  25   2
ENDBRANCH  22  25
ENDBRANCH   6  22
BRANCH   6  23
ATOM     23  C   UNL     1      -0.122   3.872  25.468  0.00  0.00    +0.112 C 
BRANCH  23  26
ATOM     26  C   UNL     1      -0.105   3.985  23.952  0.00  0.00    +0.174 C 
BRANCH  26   3
ATOM      3  O   UNL     1      -0.416   5.324  23.591  0.00  0.00    -0.382 OA
ATOM     30  C   UNL     1      -1.033   6.023  24.663  0.00  0.00    +0.194 C 
ENDBRANCH  26   3
ENDBRANCH  23  26
ENDBRANCH   6  23
ENDBRANCH  16   6
ENDBRANCH  11  16
BRANCH  13  18
ATOM     18  C   UNL     1      -4.587  -0.566  25.344  0.00  0.00    +0.105 C 
BRANCH  18  24
ATOM      1  O   UNL     1      -2.254  -0.467  24.640  0.00  0.00    -0.420 OA
ATOM      7  N   UNL     1      -2.998  -2.534  25.055  0.00  0.00    -0.112 NA
ATOM      8  N   UNL     1      -1.674  -2.627  24.670  0.00  0.00    -0.107 NA
ATOM     24  C   UNL     1      -3.293  -1.256  25.023  0.00  0.00    +0.218 A 
ATOM     27  C   UNL     1      -1.280  -1.397  24.437  0.00  0.00    +0.248 A 
BRANCH  27  28
ATOM     28  C   UNL     1      -0.008  -0.892  24.012  0.00  0.00    +0.039 A 
ATOM     31  C   UNL     1       1.126  -1.700  24.094  0.00  0.00    +0.015 A 
ATOM     32  C   UNL     1       0.096   0.407  23.515  0.00  0.00    +0.015 A 
ATOM     33  C   UNL     1       2.365  -1.208  23.681  0.00  0.00    +0.033 A 
ATOM     34  C   UNL     1       1.334   0.900  23.101  0.00  0.00    +0.033 A 
ATOM     35  C   UNL     1       2.468   0.092  23.184  0.00  0.00    +0.126 A 
BRANCH  35   9
ATOM      4  O   UNL     1       3.925   0.786  21.536  0.00  0.00    -0.126 OA
ATOM      5  O   UNL     1       4.610   0.825  23.621  0.00  0.00    -0.126 OA
ATOM      9  N   UNL     1       3.728   0.591  22.760  0.00  0.00    +0.056 N 
ENDBRANCH  35   9
ENDBRANCH  27  28
ENDBRANCH  18  24
ENDBRANCH  13  18
TORSDOF 13
ENDMDL
MODEL 2
REMARK VINA RESULT:       2.5      0.654      2.447
REMARK  Name = 45783986
REMARK  18 active torsions:
REMARK  status: ('A' for Active; 'I' for Inactive)
REMARK    1  A    between atoms: O_2  and  C_25
REMARK    2  A    between atoms: O_2  and  C_29
REMARK    3  A    between atoms: O_3  and  C_26
REMARK    4  A    between atoms: O_3  and  C_30
REMARK    5  A    between atoms: N_6  and  C_16
REMARK    6  A    between atoms: N_6  and  C_22
REMARK    7  A    between atoms: N_6  and  C_23
REMARK    8  A    between atoms: N_9  and  C_35
REMARK    9  A    between atoms: C_10  and  C_14
REMARK   10  A    between atoms: C_11  and  C_16
REMARK   11  A    between atoms: C_13  and  C_18
REMARK   12  A    between atoms: C_14  and  C_19
REMARK   13  A    between atoms: C_14  and  C_20
REMARK   14  A    between atoms: C_15  and  C_21
REMARK   15  A    between atoms: C_18  and  C_24
REMARK   16  A    between atoms: C_22  and  C_25
REMARK   17  A    between atoms: C_23  and  C_26
REMARK   18  A    between atoms: C_27  and  C_28
REMARK                            x       y       z     vdW  Elec       q    Type
REMARK                         _______ _______ _______ _____ _____    ______ ____
ROOT
ATOM     10  C   UNL     1      -3.060   2.812  24.232  0.00  0.00    +0.000 C 
ATOM     11  C   UNL     1      -3.648   3.614  25.416  0.00  0.00    +0.029 C 
ATOM     12  C   UNL     1      -3.150   1.304  24.507  0.00  0.00    +0.012 C 
ATOM     13  C   UNL     1      -4.588   0.820  24.791  0.00  0.00    +0.024 C 
ATOM     15  C   UNL     1      -5.387   1.793  25.645  0.00  0.00    -0.073 C 
ATOM     17  C   UNL     1      -4.944   3.034  25.923  0.00  0.00    -0.023 C 
ATOM     21  C   UNL     1      -6.737   1.344  26.132  0.00  0.00    +0.039 C 
ENDROOT
BRANCH  10  14
ATOM     14  C   UNL     1      -3.748   3.179  22.911  0.00  0.00    -0.013 C 
ATOM     19  C   UNL     1      -2.911   2.708  21.726  0.00  0.00    +0.007 C 
ATOM     20  C   UNL     1      -3.992   4.682  22.837  0.00  0.00    +0.007 C 
ENDBRANCH  10  14
BRANCH  11  16
ATOM     16  C   UNL     1      -2.654   3.719  26.578  0.00  0.00    +0.092 C 
BRANCH  16   6
ATOM      6  N   UNL     1      -1.387   4.261  26.122  0.00  0.00    -0.297 NA
BRANCH   6  22
ATOM     22  C   UNL     1      -1.597   5.282  25.091  0.00  0.00    +0.112 C 
BRANCH  22  25
ATOM     25  C   UNL     1      -0.289   5.615  24.391  0.00  0.00    +0.174 C 
BRANCH  25   2
ATOM      2  O   UNL     1      -0.217   4.871  23.182  0.00  0.00    -0.382 OA
ATOM     29  C   UNL     1       0.850   5.319  22.357  0.00  0.00    +0.194 C 
ENDBRANCH  25   2
ENDBRANCH  22  25
ENDBRANCH   6  22
BRANCH   6  23
ATOM     23  C   UNL     1      -0.520   3.197  25.606  0.00  0.00    +0.112 C 
BRANCH  23  26
ATOM     26  C   UNL     1      -0.057   2.288  26.733  0.00  0.00    +0.174 C 
BRANCH  26   3
ATOM      3  O   UNL     1       1.199   2.753  27.208  0.00  0.00    -0.382 OA
ATOM     30  C   UNL     1       1.346   2.522  28.602  0.00  0.00    +0.194 C 
ENDBRANCH  26   3
ENDBRANCH  23  26
ENDBRANCH   6  23
ENDBRANCH  16   6
ENDBRANCH  11  16
BRANCH  13  18
ATOM     18  C   UNL     1      -4.519  -0.587  25.397  0.00  0.00    +0.105 C 
BRANCH  18  24
ATOM      1  O   UNL     1      -2.193  -0.478  24.670  0.00  0.00    -0.420 OA
ATOM      7  N   UNL     1      -2.939  -2.553  25.049  0.00  0.00    -0.112 NA
ATOM      8  N   UNL     1      -1.618  -2.640  24.647  0.00  0.00    -0.107 NA
ATOM     24  C   UNL     1      -3.231  -1.273  25.048  0.00  0.00    +0.218 A 
ATOM     27  C   UNL     1      -1.224  -1.407  24.437  0.00  0.00    +0.248 A 
BRANCH  27  28
ATOM     28  C   UNL     1       0.045  -0.895  24.008  0.00  0.00    +0.039 A 
ATOM     31  C   UNL     1       1.186  -1.691  24.104  0.00  0.00    +0.015 A 
ATOM     32  C   UNL     1       0.138   0.399  23.496  0.00  0.00    +0.015 A 
ATOM     33  C   UNL     1       2.421  -1.194  23.687  0.00  0.00    +0.033 A 
ATOM     34  C   UNL     1       1.373   0.898  23.080  0.00  0.00    +0.033 A 
ATOM     35  C   UNL     1       2.514   0.101  23.175  0.00  0.00    +0.126 A 
BRANCH  35   9
ATOM      4  O   UNL     1       4.644   0.871  23.610  0.00  0.00    -0.126 OA
ATOM      5  O   UNL     1       3.974   0.775  21.522  0.00  0.00    -0.126 OA
ATOM      9  N   UNL     1       3.770   0.607  22.748  0.00  0.00    +0.056 N 
ENDBRANCH  35   9
ENDBRANCH  27  28
ENDBRANCH  18  24
ENDBRANCH  13  18
TORSDOF 13
ENDMDL
MODEL 3
REMARK VINA RESULT:       2.8      1.254      2.979
REMARK  Name = 45783986
REMARK  18 active torsions:
REMARK  status: ('A' for Active; 'I' for Inactive)
REMARK    1  A    between atoms: O_2  and  C_25
REMARK    2  A    between atoms: O_2  and  C_29
REMARK    3  A    between atoms: O_3  and  C_26
REMARK    4  A    between atoms: O_3  and  C_30
REMARK    5  A    between atoms: N_6  and  C_16
REMARK    6  A    between atoms: N_6  and  C_22
REMARK    7  A    between atoms: N_6  and  C_23
REMARK    8  A    between atoms: N_9  and  C_35
REMARK    9  A    between atoms: C_10  and  C_14
REMARK   10  A    between atoms: C_11  and  C_16
REMARK   11  A    between atoms: C_13  and  C_18
REMARK   12  A    between atoms: C_14  and  C_19
REMARK   13  A    between atoms: C_14  and  C_20
REMARK   14  A    between atoms: C_15  and  C_21
REMARK   15  A    between atoms: C_18  and  C_24
REMARK   16  A    between atoms: C_22  and  C_25
REMARK   17  A    between atoms: C_23  and  C_26
REMARK   18  A    between atoms: C_27  and  C_28
REMARK                            x       y       z     vdW  Elec       q    Type
REMARK                         _______ _______ _______ _____ _____    ______ ____
ROOT
ATOM     10  C   UNL     1      -4.114   2.183  23.980  0.00  0.00    +0.000 C 
ATOM     11  C   UNL     1      -2.946   2.280  24.989  0.00  0.00    +0.029 C 
ATOM     12  C   UNL     1      -4.226   0.757  23.423  0.00  0.00    +0.012 C 
ATOM     13  C   UNL     1      -4.405  -0.315  24.520  0.00  0.00    +0.024 C 
ATOM     15  C   UNL     1      -3.558  -0.051  25.755  0.00  0.00    -0.073 C 
ATOM     17  C   UNL     1      -2.904   1.111  25.940  0.00  0.00    -0.023 C 
ATOM     21  C   UNL     1      -3.516  -1.121  26.811  0.00  0.00    +0.039 C 
ENDROOT
BRANCH  10  14
ATOM     14  C   UNL     1      -5.436   2.640  24.610  0.00  0.00    -0.013 C 
ATOM     19  C   UNL     1      -5.173   3.413  25.899  0.00  0.00    +0.007 C 
ATOM     20  C   UNL     1      -6.342   1.442  24.874  0.00  0.00    +0.007 C 
ENDBRANCH  10  14
BRANCH  11  16
ATOM     16  C   UNL     1      -1.593   2.400  24.279  0.00  0.00    +0.092 C 
BRANCH  16   6
ATOM      6  N   UNL     1      -0.672   3.204  25.064  0.00  0.00    -0.297 NA
BRANCH   6  22
ATOM     22  C   UNL     1      -0.070   4.258  24.242  0.00  0.00    +0.112 C 
BRANCH  22  25
ATOM     25  C   UNL     1      -0.533   5.631  24.706  0.00  0.00    +0.174 C 
BRANCH  25   2
ATOM      2  O   UNL     1      -1.781   5.490  25.371  0.00  0.00    -0.382 OA
ATOM     29  C   UNL     1      -2.870   5.765  24.500  0.00  0.00    +0.194 C 
ENDBRANCH  25   2
ENDBRANCH  22  25
ENDBRANCH   6  22
BRANCH   6  23
ATOM     23  C   UNL     1       0.377   2.367  25.655  0.00  0.00    +0.112 C 
BRANCH  23  26
ATOM     26  C   UNL     1       0.323   2.433  27.173  0.00  0.00    +0.174 C 
BRANCH  26   3
ATOM      3  O   UNL     1       1.605   2.804  27.660  0.00  0.00    -0.382 OA
ATOM     30  C   UNL     1       1.718   2.576  29.058  0.00  0.00    +0.194 C 
ENDBRANCH  26   3
ENDBRANCH  23  26
ENDBRANCH   6  23
ENDBRANCH  16   6
ENDBRANCH  11  16
BRANCH  13  18
ATOM     18  C   UNL     1      -4.144  -1.694  23.901  0.00  0.00    +0.105 C 
BRANCH  18  24
ATOM      1  O   UNL     1      -1.758  -1.230  23.694  0.00  0.00    -0.420 OA
ATOM      7  N   UNL     1      -2.228  -3.234  24.567  0.00  0.00    -0.112 NA
ATOM      8  N   UNL     1      -0.853  -3.106  24.509  0.00  0.00    -0.107 NA
ATOM     24  C   UNL     1      -2.715  -2.116  24.082  0.00  0.00    +0.218 A 
ATOM     27  C   UNL     1      -0.624  -1.922  23.993  0.00  0.00    +0.248 A 
BRANCH  27  28
ATOM     28  C   UNL     1       0.612  -1.256  23.701  0.00  0.00    +0.039 A 
ATOM     31  C   UNL     1       1.820  -1.816  24.117  0.00  0.00    +0.015 A 
ATOM     32  C   UNL     1       0.607  -0.050  23.002  0.00  0.00    +0.015 A 
ATOM     33  C   UNL     1       3.023  -1.169  23.833  0.00  0.00    +0.033 A 
ATOM     34  C   UNL     1       1.810   0.598  22.718  0.00  0.00    +0.033 A 
ATOM     35  C   UNL     1       3.017   0.038  23.133  0.00  0.00    +0.126 A 
BRANCH  35   9
ATOM      4  O   UNL     1       4.212   1.867  22.395  0.00  0.00    -0.126 OA
ATOM      5  O   UNL     1       5.321   0.087  23.043  0.00  0.00    -0.126 OA
ATOM      9  N   UNL     1       4.242   0.695  22.843  0.00  0.00    +0.056 N 
ENDBRANCH  35   9
ENDBRANCH  27  28
ENDBRANCH  18  24
ENDBRANCH  13  18
TORSDOF 13
ENDMDL
MODEL 4
REMARK VINA RESULT:       2.9      1.231      2.101
REMARK  Name = 45783986
REMARK  18 active torsions:
REMARK  status: ('A' for Active; 'I' for Inactive)
REMARK    1  A    between atoms: O_2  and  C_25
REMARK    2  A    between atoms: O_2  and  C_29
REMARK    3  A    between atoms: O_3  and  C_26
REMARK    4  A    between atoms: O_3  and  C_30
REMARK    5  A    between atoms: N_6  and  C_16
REMARK    6  A    between atoms: N_6  and  C_22
REMARK    7  A    between atoms: N_6  and  C_23
REMARK    8  A    between atoms: N_9  and  C_35
REMARK    9  A    between atoms: C_10  and  C_14
REMARK   10  A    between atoms: C_11  and  C_16
REMARK   11  A    between atoms: C_13  and  C_18
REMARK   12  A    between atoms: C_14  and  C_19
REMARK   13  A    between atoms: C_14  and  C_20
REMARK   14  A    between atoms: C_15  and  C_21
REMARK   15  A    between atoms: C_18  and  C_24
REMARK   16  A    between atoms: C_22  and  C_25
REMARK   17  A    between atoms: C_23  and  C_26
REMARK   18  A    between atoms: C_27  and  C_28
REMARK                            x       y       z     vdW  Elec       q    Type
REMARK                         _______ _______ _______ _____ _____    ______ ____
ROOT
ATOM     10  C   UNL     1      -3.949   2.314  23.897  0.00  0.00    +0.000 C 
ATOM     11  C   UNL     1      -2.717   2.370  24.829  0.00  0.00    +0.029 C 
ATOM     12  C   UNL     1      -4.182   0.880  23.400  0.00  0.00    +0.012 C 
ATOM     13  C   UNL     1      -4.357  -0.142  24.544  0.00  0.00    +0.024 C 
ATOM     15  C   UNL     1      -3.421   0.109  25.716  0.00  0.00    -0.073 C 
ATOM     17  C   UNL     1      -2.687   1.234  25.819  0.00  0.00    -0.023 C 
ATOM     21  C   UNL     1      -3.379  -0.926  26.807  0.00  0.00    +0.039 C 
ENDROOT
BRANCH  10  14
ATOM     14  C   UNL     1      -5.200   2.873  24.587  0.00  0.00    -0.013 C 
ATOM     19  C   UNL     1      -4.819   3.590  25.879  0.00  0.00    +0.007 C 
ATOM     20  C   UNL     1      -6.200   1.756  24.864  0.00  0.00    +0.007 C 
ENDBRANCH  10  14
BRANCH  11  16
ATOM     16  C   UNL     1      -1.406   2.382  24.036  0.00  0.00    +0.092 C 
BRANCH  16   6
ATOM      6  N   UNL     1      -0.375   3.103  24.762  0.00  0.00    -0.297 NA
BRANCH   6  22
ATOM     22  C   UNL     1       0.382   2.195  25.629  0.00  0.00    +0.112 C 
BRANCH  22  25
ATOM     25  C   UNL     1       0.279   2.632  27.083  0.00  0.00    +0.174 C 
BRANCH  25   2
ATOM      2  O   UNL     1       1.586   2.669  27.641  0.00  0.00    -0.382 OA
ATOM     29  C   UNL     1       1.562   2.417  29.039  0.00  0.00    +0.194 C 
ENDBRANCH  25   2
ENDBRANCH  22  25
ENDBRANCH   6  22
BRANCH   6  23
ATOM     23  C   UNL     1      -0.957   4.188  25.556  0.00  0.00    +0.112 C 
BRANCH  23  26
ATOM     26  C   UNL     1      -0.900   5.502  24.794  0.00  0.00    +0.174 C 
BRANCH  26   3
ATOM      3  O   UNL     1      -2.154   6.158  24.921  0.00  0.00    -0.382 OA
ATOM     30  C   UNL     1      -3.001   5.881  23.814  0.00  0.00    +0.194 C 
ENDBRANCH  26   3
ENDBRANCH  23  26
ENDBRANCH   6  23
ENDBRANCH  16   6
ENDBRANCH  11  16
BRANCH  13  18
ATOM     18  C   UNL     1      -4.219  -1.555  23.963  0.00  0.00    +0.105 C 
BRANCH  18  24
ATOM      1  O   UNL     1      -1.819  -1.179  23.736  0.00  0.00    -0.420 OA
ATOM      7  N   UNL     1      -2.363  -3.235  24.427  0.00  0.00    -0.112 NA
ATOM      8  N   UNL     1      -0.985  -3.164  24.345  0.00  0.00    -0.107 NA
ATOM     24  C   UNL     1      -2.807  -2.055  24.064  0.00  0.00    +0.218 A 
ATOM     27  C   UNL     1      -0.712  -1.946  23.938  0.00  0.00    +0.248 A 
BRANCH  27  28
ATOM     28  C   UNL     1       0.547  -1.311  23.677  0.00  0.00    +0.039 A 
ATOM     31  C   UNL     1       0.591  -0.129  22.939  0.00  0.00    +0.015 A 
ATOM     32  C   UNL     1       1.726  -1.875  24.163  0.00  0.00    +0.015 A 
ATOM     33  C   UNL     1       1.815   0.489  22.685  0.00  0.00    +0.033 A 
ATOM     34  C   UNL     1       2.951  -1.257  23.910  0.00  0.00    +0.033 A 
ATOM     35  C   UNL     1       2.996  -0.075  23.171  0.00  0.00    +0.126 A 
BRANCH  35   9
ATOM      4  O   UNL     1       5.282   0.079  23.430  0.00  0.00    -0.126 OA
ATOM      5  O   UNL     1       4.269   1.572  22.180  0.00  0.00    -0.126 OA
ATOM      9  N   UNL     1       4.242   0.556  22.915  0.00  0.00    +0.056 N 
ENDBRANCH  35   9
ENDBRANCH  27  28
ENDBRANCH  18  24
ENDBRANCH  13  18
TORSDOF 13
ENDMDL
MODEL 5
REMARK VINA RESULT:       3.2      2.040      5.925
REMARK  Name = 45783986
REMARK  18 active torsions:
REMARK  status: ('A' for Active; 'I' for Inactive)
REMARK    1  A    between atoms: O_2  and  C_25
REMARK    2  A    between atoms: O_2  and  C_29
REMARK    3  A    between atoms: O_3  and  C_26
REMARK    4  A    between atoms: O_3  and  C_30
REMARK    5  A    between atoms: N_6  and  C_16
REMARK    6  A    between atoms: N_6  and  C_22
REMARK    7  A    between atoms: N_6  and  C_23
REMARK    8  A    between atoms: N_9  and  C_35
REMARK    9  A    between atoms: C_10  and  C_14
REMARK   10  A    between atoms: C_11  and  C_16
REMARK   11  A    between atoms: C_13  and  C_18
REMARK   12  A    between atoms: C_14  and  C_19
REMARK   13  A    between atoms: C_14  and  C_20
REMARK   14  A    between atoms: C_15  and  C_21
REMARK   15  A    between atoms: C_18  and  C_24
REMARK   16  A    between atoms: C_22  and  C_25
REMARK   17  A    between atoms: C_23  and  C_26
REMARK   18  A    between atoms: C_27  and  C_28
REMARK                            x       y       z     vdW  Elec       q    Type
REMARK                         _______ _______ _______ _____ _____    ______ ____
ROOT
ATOM     10  C   UNL     1      -4.431   1.970  25.736  0.00  0.00    +0.000 C 
ATOM     11  C   UNL     1      -4.030   0.730  24.904  0.00  0.00    +0.029 C 
ATOM     12  C   UNL     1      -3.452   3.125  25.484  0.00  0.00    +0.012 C 
ATOM     13  C   UNL     1      -3.342   3.519  23.996  0.00  0.00    +0.024 C 
ATOM     15  C   UNL     1      -3.352   2.320  23.060  0.00  0.00    -0.073 C 
ATOM     17  C   UNL     1      -3.652   1.079  23.487  0.00  0.00    -0.023 C 
ATOM     21  C   UNL     1      -3.072   2.573  21.603  0.00  0.00    +0.039 C 
ENDROOT
BRANCH  10  14
ATOM     14  C   UNL     1      -5.878   2.394  25.447  0.00  0.00    -0.013 C 
ATOM     19  C   UNL     1      -6.012   3.912  25.522  0.00  0.00    +0.007 C 
ATOM     20  C   UNL     1      -6.836   1.717  26.421  0.00  0.00    +0.007 C 
ENDBRANCH  10  14
BRANCH  11  16
ATOM     16  C   UNL     1      -2.879  -0.042  25.557  0.00  0.00    +0.092 C 
BRANCH  16   6
ATOM      6  N   UNL     1      -1.952  -0.530  24.551  0.00  0.00    -0.297 NA
BRANCH   6  22
ATOM     22  C   UNL     1      -1.961  -1.995  24.500  0.00  0.00    +0.112 C 
BRANCH  22  25
ATOM     25  C   UNL     1      -3.119  -2.553  25.314  0.00  0.00    +0.174 C 
BRANCH  25   2
ATOM      2  O   UNL     1      -3.932  -3.349  24.462  0.00  0.00    -0.382 OA
ATOM     29  C   UNL     1      -4.505  -2.577  23.416  0.00  0.00    +0.194 C 
ENDBRANCH  25   2
ENDBRANCH  22  25
ENDBRANCH   6  22
BRANCH   6  23
ATOM     23  C   UNL     1      -0.594  -0.044  24.815  0.00  0.00    +0.112 C 
BRANCH  23  26
ATOM     26  C   UNL     1       0.418  -0.793  23.962  0.00  0.00    +0.174 C 
BRANCH  26   3
ATOM      3  O   UNL     1       0.758   0.014  22.843  0.00  0.00    -0.382 OA
ATOM     30  C   UNL     1       2.159   0.011  22.605  0.00  0.00    +0.194 C 
ENDBRANCH  26   3
ENDBRANCH  23  26
ENDBRANCH   6  23
ENDBRANCH  16   6
ENDBRANCH  11  16
BRANCH  13  18
ATOM     18  C   UNL     1      -2.102   4.405  23.815  0.00  0.00    +0.105 C 
BRANCH  18  24
ATOM      1  O   UNL     1      -0.826   3.632  25.745  0.00  0.00    -0.420 OA
ATOM      7  N   UNL     1       0.184   3.284  23.779  0.00  0.00    -0.112 NA
ATOM      8  N   UNL     1       1.012   2.801  24.776  0.00  0.00    -0.107 NA
ATOM     24  C   UNL     1      -0.876   3.759  24.391  0.00  0.00    +0.218 A 
ATOM     27  C   UNL     1       0.383   3.025  25.905  0.00  0.00    +0.248 A 
BRANCH  27  28
ATOM     28  C   UNL     1       0.765   2.735  27.257  0.00  0.00    +0.039 A 
ATOM     31  C   UNL     1      -0.196   2.313  28.177  0.00  0.00    +0.015 A 
ATOM     32  C   UNL     1       2.095   2.874  27.652  0.00  0.00    +0.015 A 
ATOM     33  C   UNL     1       0.175   2.031  29.492  0.00  0.00    +0.033 A 
ATOM     34  C   UNL     1       2.466   2.592  28.967  0.00  0.00    +0.033 A 
ATOM     35  C   UNL     1       1.506   2.170  29.886  0.00  0.00    +0.126 A 
BRANCH  35   9
ATOM      4  O   UNL     1       3.034   1.432  31.449  0.00  0.00    -0.126 OA
ATOM      5  O   UNL     1       1.056   2.081  32.146  0.00  0.00    -0.126 OA
ATOM      9  N   UNL     1       1.883   1.880  31.224  0.00  0.00    +0.056 N 
ENDBRANCH  35   9
ENDBRANCH  27  28
ENDBRANCH  18  24
ENDBRANCH  13  18
TORSDOF 13
ENDMDL
MODEL 6
REMARK VINA RESULT:       3.3      2.252      5.353
REMARK  Name = 45783986
REMARK  18 active torsions:
REMARK  status: ('A' for Active; 'I' for Inactive)
REMARK    1  A    between atoms: O_2  and  C_25
REMARK    2  A    between atoms: O_2  and  C_29
REMARK    3  A    between atoms: O_3  and  C_26
REMARK    4  A    between atoms: O_3  and  C_30
REMARK    5  A    between atoms: N_6  and  C_16
REMARK    6  A    between atoms: N_6  and  C_22
REMARK    7  A    between atoms: N_6  and  C_23
REMARK    8  A    between atoms: N_9  and  C_35
REMARK    9  A    between atoms: C_10  and  C_14
REMARK   10  A    between atoms: C_11  and  C_16
REMARK   11  A    between atoms: C_13  and  C_18
REMARK   12  A    between atoms: C_14  and  C_19
REMARK   13  A    between atoms: C_14  and  C_20
REMARK   14  A    between atoms: C_15  and  C_21
REMARK   15  A    between atoms: C_18  and  C_24
REMARK   16  A    between atoms: C_22  and  C_25
REMARK   17  A    between atoms: C_23  and  C_26
REMARK   18  A    between atoms: C_27  and  C_28
REMARK                            x       y       z     vdW  Elec       q    Type
REMARK                         _______ _______ _______ _____ _____    ______ ____
ROOT
ATOM     10  C   UNL     1      -1.130   3.887  23.816  0.00  0.00    +0.000 C 
ATOM     11  C   UNL     1      -0.773   2.679  24.713  0.00  0.00    +0.029 C 
ATOM     12  C   UNL     1      -2.586   4.316  24.048  0.00  0.00    +0.012 C 
ATOM     13  C   UNL     1      -2.895   4.660  25.521  0.00  0.00    +0.024 C 
ATOM     15  C   UNL     1      -2.218   3.720  26.507  0.00  0.00    -0.073 C 
ATOM     17  C   UNL     1      -1.280   2.834  26.124  0.00  0.00    -0.023 C 
ATOM     21  C   UNL     1      -2.590   3.851  27.959  0.00  0.00    +0.039 C 
ENDROOT
BRANCH  10  14
ATOM     14  C   UNL     1      -0.164   5.057  24.042  0.00  0.00    -0.013 C 
ATOM     19  C   UNL     1      -0.906   6.256  24.626  0.00  0.00    +0.007 C 
ATOM     20  C   UNL     1       0.531   5.434  22.738  0.00  0.00    +0.007 C 
ENDBRANCH  10  14
BRANCH  11  16
ATOM     16  C   UNL     1      -1.301   1.364  24.129  0.00  0.00    +0.092 C 
BRANCH  16   6
ATOM      6  N   UNL     1      -0.224   0.603  23.522  0.00  0.00    -0.297 NA
BRANCH   6  22
ATOM     22  C   UNL     1      -0.204  -0.771  24.033  0.00  0.00    +0.112 C 
BRANCH  22  25
ATOM     25  C   UNL     1      -0.594  -0.802  25.503  0.00  0.00    +0.174 C 
BRANCH  25   2
ATOM      2  O   UNL     1      -0.515  -2.143  25.968  0.00  0.00    -0.382 OA
ATOM     29  C   UNL     1       0.572  -2.837  25.372  0.00  0.00    +0.194 C 
ENDBRANCH  25   2
ENDBRANCH  22  25
ENDBRANCH   6  22
BRANCH   6  23
ATOM     23  C   UNL     1       1.071   1.247  23.764  0.00  0.00    +0.112 C 
BRANCH  23  26
ATOM     26  C   UNL     1       2.196   0.448  23.125  0.00  0.00    +0.174 C 
BRANCH  26   3
ATOM      3  O   UNL     1       3.374   1.244  23.118  0.00  0.00    -0.382 OA
ATOM     30  C   UNL     1       4.524   0.468  22.814  0.00  0.00    +0.194 C 
ENDBRANCH  26   3
ENDBRANCH  23  26
ENDBRANCH   6  23
ENDBRANCH  16   6
ENDBRANCH  11  16
BRANCH  13  18
ATOM     18  C   UNL     1      -4.417   4.717  25.700  0.00  0.00    +0.105 C 
BRANCH  18  24
ATOM      1  O   UNL     1      -4.239   2.326  25.249  0.00  0.00    -0.420 OA
ATOM      7  N   UNL     1      -6.221   2.957  26.071  0.00  0.00    -0.112 NA
ATOM      8  N   UNL     1      -6.260   1.591  25.864  0.00  0.00    -0.107 NA
ATOM     24  C   UNL     1      -5.023   3.343  25.698  0.00  0.00    +0.218 A 
ATOM     27  C   UNL     1      -5.083   1.266  25.384  0.00  0.00    +0.248 A 
BRANCH  27  28
ATOM     28  C   UNL     1      -4.558  -0.009  24.988  0.00  0.00    +0.039 A 
ATOM     31  C   UNL     1      -4.106  -0.907  25.955  0.00  0.00    +0.015 A 
ATOM     32  C   UNL     1      -4.500  -0.350  23.637  0.00  0.00    +0.015 A 
ATOM     33  C   UNL     1      -3.595  -2.147  25.570  0.00  0.00    +0.033 A 
ATOM     34  C   UNL     1      -3.989  -1.590  23.252  0.00  0.00    +0.033 A 
ATOM     35  C   UNL     1      -3.537  -2.488  24.218  0.00  0.00    +0.126 A 
BRANCH  35   9
ATOM      4  O   UNL     1      -1.825  -3.828  23.448  0.00  0.00    -0.126 OA
ATOM      5  O   UNL     1      -3.769  -4.756  23.870  0.00  0.00    -0.126 OA
ATOM      9  N   UNL     1      -3.019  -3.751  23.827  0.00  0.00    +0.056 N 
ENDBRANCH  35   9
ENDBRANCH  27  28
ENDBRANCH  18  24
ENDBRANCH  13  18
TORSDOF 13
ENDMDL
MODEL 7
REMARK VINA RESULT:       3.5      2.318      5.478
REMARK  Name = 45783986
REMARK  18 active torsions:
REMARK  status: ('A' for Active; 'I' for Inactive)
REMARK    1  A    between atoms: O_2  and  C_25
REMARK    2  A    between atoms: O_2  and  C_29
REMARK    3  A    between atoms: O_3  and  C_26
REMARK    4  A    between atoms: O_3  and  C_30
REMARK    5  A    between atoms: N_6  and  C_16
REMARK    6  A    between atoms: N_6  and  C_22
REMARK    7  A    between atoms: N_6  and  C_23
REMARK    8  A    between atoms: N_9  and  C_35
REMARK    9  A    between atoms: C_10  and  C_14
REMARK   10  A    between atoms: C_11  and  C_16
REMARK   11  A    between atoms: C_13  and  C_18
REMARK   12  A    between atoms: C_14  and  C_19
REMARK   13  A    between atoms: C_14  and  C_20
REMARK   14  A    between atoms: C_15  and  C_21
REMARK   15  A    between atoms: C_18  and  C_24
REMARK   16  A    between atoms: C_22  and  C_25
REMARK   17  A    between atoms: C_23  and  C_26
REMARK   18  A    between atoms: C_27  and  C_28
REMARK                            x       y       z     vdW  Elec       q    Type
REMARK                         _______ _______ _______ _____ _____    ______ ____
ROOT
ATOM     10  C   UNL     1      -1.298   4.012  24.457  0.00  0.00    +0.000 C 
ATOM     11  C   UNL     1      -0.880   3.002  25.551  0.00  0.00    +0.029 C 
ATOM     12  C   UNL     1      -2.821   4.203  24.456  0.00  0.00    +0.012 C 
ATOM     13  C   UNL     1      -3.379   4.663  25.820  0.00  0.00    +0.024 C 
ATOM     15  C   UNL     1      -2.704   3.983  27.001  0.00  0.00    -0.073 C 
ATOM     17  C   UNL     1      -1.594   3.235  26.858  0.00  0.00    -0.023 C 
ATOM     21  C   UNL     1      -3.287   4.221  28.367  0.00  0.00    +0.039 C 
ENDROOT
BRANCH  10  14
ATOM     14  C   UNL     1      -0.569   5.351  24.624  0.00  0.00    -0.013 C 
ATOM     19  C   UNL     1      -1.574   6.486  24.798  0.00  0.00    +0.007 C 
ATOM     20  C   UNL     1       0.343   5.614  23.431  0.00  0.00    +0.007 C 
ENDBRANCH  10  14
BRANCH  11  16
ATOM     16  C   UNL     1      -1.109   1.554  25.103  0.00  0.00    +0.092 C 
BRANCH  16   6
ATOM      6  N   UNL     1      -0.531   1.326  23.791  0.00  0.00    -0.297 NA
BRANCH   6  22
ATOM     22  C   UNL     1      -1.419   0.500  22.967  0.00  0.00    +0.112 C 
BRANCH  22  25
ATOM     25  C   UNL     1      -2.695   1.256  22.628  0.00  0.00    +0.174 C 
BRANCH  25   2
ATOM      2  O   UNL     1      -2.437   2.111  21.523  0.00  0.00    -0.382 OA
ATOM     29  C   UNL     1      -3.480   3.059  21.343  0.00  0.00    +0.194 C 
ENDBRANCH  25   2
ENDBRANCH  22  25
ENDBRANCH   6  22
BRANCH   6  23
ATOM     23  C   UNL     1       0.785   0.691  23.904  0.00  0.00    +0.112 C 
BRANCH  23  26
ATOM     26  C   UNL     1       0.975  -0.350  22.811  0.00  0.00    +0.174 C 
BRANCH  26   3
ATOM      3  O   UNL     1       2.054   0.053  21.979  0.00  0.00    -0.382 OA
ATOM     30  C   UNL     1       3.213   0.360  22.742  0.00  0.00    +0.194 C 
ENDBRANCH  26   3
ENDBRANCH  23  26
ENDBRANCH   6  23
ENDBRANCH  16   6
ENDBRANCH  11  16
BRANCH  13  18
ATOM     18  C   UNL     1      -4.902   4.474  25.814  0.00  0.00    +0.105 C 
BRANCH  18  24
ATOM      1  O   UNL     1      -4.438   2.128  25.334  0.00  0.00    -0.420 OA
ATOM      7  N   UNL     1      -6.311   2.470  26.507  0.00  0.00    -0.112 NA
ATOM      8  N   UNL     1      -6.174   1.109  26.310  0.00  0.00    -0.107 NA
ATOM     24  C   UNL     1      -5.276   3.024  25.921  0.00  0.00    +0.218 A 
ATOM     27  C   UNL     1      -5.068   0.955  25.621  0.00  0.00    +0.248 A 
BRANCH  27  28
ATOM     28  C   UNL     1      -4.432  -0.234  25.134  0.00  0.00    +0.039 A 
ATOM     31  C   UNL     1      -4.887  -0.837  23.961  0.00  0.00    +0.015 A 
ATOM     32  C   UNL     1      -3.358  -0.787  25.831  0.00  0.00    +0.015 A 
ATOM     33  C   UNL     1      -4.268  -1.994  23.486  0.00  0.00    +0.033 A 
ATOM     34  C   UNL     1      -2.739  -1.944  25.357  0.00  0.00    +0.033 A 
ATOM     35  C   UNL     1      -3.194  -2.547  24.184  0.00  0.00    +0.126 A 
BRANCH  35   9
ATOM      4  O   UNL     1      -3.267  -4.729  23.443  0.00  0.00    -0.126 OA
ATOM      5  O   UNL     1      -1.318  -3.724  23.541  0.00  0.00    -0.126 OA
ATOM      9  N   UNL     1      -2.563  -3.723  23.700  0.00  0.00    +0.056 N 
ENDBRANCH  35   9
ENDBRANCH  27  28
ENDBRANCH  18  24
ENDBRANCH  13  18
TORSDOF 13
ENDMDL
MODEL 8
REMARK VINA RESULT:       3.7      2.434      4.806
REMARK  Name = 45783986
REMARK  18 active torsions:
REMARK  status: ('A' for Active; 'I' for Inactive)
REMARK    1  A    between atoms: O_2  and  C_25
REMARK    2  A    between atoms: O_2  and  C_29
REMARK    3  A    between atoms: O_3  and  C_26
REMARK    4  A    between atoms: O_3  and  C_30
REMARK    5  A    between atoms: N_6  and  C_16
REMARK    6  A    between atoms: N_6  and  C_22
REMARK    7  A    between atoms: N_6  and  C_23
REMARK    8  A    between atoms: N_9  and  C_35
REMARK    9  A    between atoms: C_10  and  C_14
REMARK   10  A    between atoms: C_11  and  C_16
REMARK   11  A    between atoms: C_13  and  C_18
REMARK   12  A    between atoms: C_14  and  C_19
REMARK   13  A    between atoms: C_14  and  C_20
REMARK   14  A    between atoms: C_15  and  C_21
REMARK   15  A    between atoms: C_18  and  C_24
REMARK   16  A    between atoms: C_22  and  C_25
REMARK   17  A    between atoms: C_23  and  C_26
REMARK   18  A    between atoms: C_27  and  C_28
REMARK                            x       y       z     vdW  Elec       q    Type
REMARK                         _______ _______ _______ _____ _____    ______ ____
ROOT
ATOM     10  C   UNL     1      -1.780   3.252  25.590  0.00  0.00    +0.000 C 
ATOM     11  C   UNL     1      -3.294   3.538  25.460  0.00  0.00    +0.029 C 
ATOM     12  C   UNL     1      -1.375   2.079  24.687  0.00  0.00    +0.012 C 
ATOM     13  C   UNL     1      -1.730   2.301  23.201  0.00  0.00    +0.024 C 
ATOM     15  C   UNL     1      -3.079   2.975  23.005  0.00  0.00    -0.073 C 
ATOM     17  C   UNL     1      -3.768   3.511  24.029  0.00  0.00    -0.023 C 
ATOM     21  C   UNL     1      -3.605   3.079  21.599  0.00  0.00    +0.039 C 
ENDROOT
BRANCH  10  14
ATOM     14  C   UNL     1      -0.946   4.503  25.284  0.00  0.00    -0.013 C 
ATOM     19  C   UNL     1      -1.855   5.713  25.086  0.00  0.00    +0.007 C 
ATOM     20  C   UNL     1      -0.075   4.275  24.054  0.00  0.00    +0.007 C 
ENDBRANCH  10  14
BRANCH  11  16
ATOM     16  C   UNL     1      -4.130   2.553  26.285  0.00  0.00    +0.092 C 
BRANCH  16   6
ATOM      6  N   UNL     1      -4.839   1.629  25.418  0.00  0.00    -0.297 NA
BRANCH   6  22
ATOM     22  C   UNL     1      -6.277   1.649  25.700  0.00  0.00    +0.112 C 
BRANCH  22  25
ATOM     25  C   UNL     1      -6.903   2.945  25.204  0.00  0.00    +0.174 C 
BRANCH  25   2
ATOM      2  O   UNL     1      -6.528   3.997  26.083  0.00  0.00    -0.382 OA
ATOM     29  C   UNL     1      -6.335   5.218  25.382  0.00  0.00    +0.194 C 
ENDBRANCH  25   2
ENDBRANCH  22  25
ENDBRANCH   6  22
BRANCH   6  23
ATOM     23  C   UNL     1      -4.316   0.268  25.569  0.00  0.00    +0.112 C 
BRANCH  23  26
ATOM     26  C   UNL     1      -4.373  -0.479  24.246  0.00  0.00    +0.174 C 
BRANCH  26   3
ATOM      3  O   UNL     1      -4.025  -1.838  24.473  0.00  0.00    -0.382 OA
ATOM     30  C   UNL     1      -3.353  -2.003  25.714  0.00  0.00    +0.194 C 
ENDBRANCH  26   3
ENDBRANCH  23  26
ENDBRANCH   6  23
ENDBRANCH  16   6
ENDBRANCH  11  16
BRANCH  13  18
ATOM     18  C   UNL     1      -1.621   0.958  22.467  0.00  0.00    +0.105 C 
BRANCH  18  24
ATOM      1  O   UNL     1       0.745   0.454  22.783  0.00  0.00    -0.420 OA
ATOM      7  N   UNL     1      -0.641  -0.974  23.804  0.00  0.00    -0.112 NA
ATOM      8  N   UNL     1       0.656  -1.376  24.066  0.00  0.00    -0.107 NA
ATOM     24  C   UNL     1      -0.540   0.097  23.053  0.00  0.00    +0.218 A 
ATOM     27  C   UNL     1       1.431  -0.514  23.451  0.00  0.00    +0.248 A 
BRANCH  27  28
ATOM     28  C   UNL     1       2.860  -0.436  23.375  0.00  0.00    +0.039 A 
ATOM     31  C   UNL     1       3.469   0.702  22.845  0.00  0.00    +0.015 A 
ATOM     32  C   UNL     1       3.643  -1.497  23.830  0.00  0.00    +0.015 A 
ATOM     33  C   UNL     1       4.859   0.779  22.771  0.00  0.00    +0.033 A 
ATOM     34  C   UNL     1       5.034  -1.421  23.756  0.00  0.00    +0.033 A 
ATOM     35  C   UNL     1       5.642  -0.283  23.226  0.00  0.00    +0.126 A 
BRANCH  35   9
ATOM      4  O   UNL     1       7.660   0.622  23.882  0.00  0.00    -0.126 OA
ATOM      5  O   UNL     1       7.669  -0.961  22.361  0.00  0.00    -0.126 OA
ATOM      9  N   UNL     1       7.058  -0.203  23.153  0.00  0.00    +0.056 N 
ENDBRANCH  35   9
ENDBRANCH  27  28
ENDBRANCH  18  24
ENDBRANCH  13  18
TORSDOF 13
ENDMDL
MODEL 9
REMARK VINA RESULT:       3.8      2.269      5.155
REMARK  Name = 45783986
REMARK  18 active torsions:
REMARK  status: ('A' for Active; 'I' for Inactive)
REMARK    1  A    between atoms: O_2  and  C_25
REMARK    2  A    between atoms: O_2  and  C_29
REMARK    3  A    between atoms: O_3  and  C_26
REMARK    4  A    between atoms: O_3  and  C_30
REMARK    5  A    between atoms: N_6  and  C_16
REMARK    6  A    between atoms: N_6  and  C_22
REMARK    7  A    between atoms: N_6  and  C_23
REMARK    8  A    between atoms: N_9  and  C_35
REMARK    9  A    between atoms: C_10  and  C_14
REMARK   10  A    between atoms: C_11  and  C_16
REMARK   11  A    between atoms: C_13  and  C_18
REMARK   12  A    between atoms: C_14  and  C_19
REMARK   13  A    between atoms: C_14  and  C_20
REMARK   14  A    between atoms: C_15  and  C_21
REMARK   15  A    between atoms: C_18  and  C_24
REMARK   16  A    between atoms: C_22  and  C_25
REMARK   17  A    between atoms: C_23  and  C_26
REMARK   18  A    between atoms: C_27  and  C_28
REMARK                            x       y       z     vdW  Elec       q    Type
REMARK                         _______ _______ _______ _____ _____    ______ ____
ROOT
ATOM     10  C   UNL     1      -1.236   3.641  24.415  0.00  0.00    +0.000 C 
ATOM     11  C   UNL     1      -0.847   2.660  25.545  0.00  0.00    +0.029 C 
ATOM     12  C   UNL     1      -2.726   3.998  24.503  0.00  0.00    +0.012 C 
ATOM     13  C   UNL     1      -3.131   4.599  25.866  0.00  0.00    +0.024 C 
ATOM     15  C   UNL     1      -2.445   3.922  27.043  0.00  0.00    -0.073 C 
ATOM     17  C   UNL     1      -1.433   3.049  26.878  0.00  0.00    -0.023 C 
ATOM     21  C   UNL     1      -2.897   4.305  28.426  0.00  0.00    +0.039 C 
ENDROOT
BRANCH  10  14
ATOM     14  C   UNL     1      -0.360   4.900  24.440  0.00  0.00    -0.013 C 
ATOM     19  C   UNL     1      -1.207   6.132  24.749  0.00  0.00    +0.007 C 
ATOM     20  C   UNL     1       0.373   5.067  23.113  0.00  0.00    +0.007 C 
ENDBRANCH  10  14
BRANCH  11  16
ATOM     16  C   UNL     1      -1.259   1.222  25.214  0.00  0.00    +0.092 C 
BRANCH  16   6
ATOM      6  N   UNL     1      -0.268   0.588  24.362  0.00  0.00    -0.297 NA
BRANCH   6  22
ATOM     22  C   UNL     1       0.906   1.451  24.196  0.00  0.00    +0.112 C 
BRANCH  22  25
ATOM     25  C   UNL     1       1.879   0.845  23.197  0.00  0.00    +0.174 C 
BRANCH  25   2
ATOM      2  O   UNL     1       3.089   1.592  23.229  0.00  0.00    -0.382 OA
ATOM     29  C   UNL     1       4.207   0.788  22.878  0.00  0.00    +0.194 C 
ENDBRANCH  25   2
ENDBRANCH  22  25
ENDBRANCH   6  22
BRANCH   6  23
ATOM     23  C   UNL     1      -0.839   0.259  23.053  0.00  0.00    +0.112 C 
BRANCH  23  26
ATOM     26  C   UNL     1      -2.166   0.973  22.852  0.00  0.00    +0.174 C 
BRANCH  26   3
ATOM      3  O   UNL     1      -2.092   1.749  21.663  0.00  0.00    -0.382 OA
ATOM     30  C   UNL     1      -3.213   2.612  21.534  0.00  0.00    +0.194 C 
ENDBRANCH  26   3
ENDBRANCH  23  26
ENDBRANCH   6  23
ENDBRANCH  16   6
ENDBRANCH  11  16
BRANCH  13  18
ATOM     18  C   UNL     1      -4.661   4.578  25.975  0.00  0.00    +0.105 C 
BRANCH  18  24
ATOM      1  O   UNL     1      -4.357   2.218  25.438  0.00  0.00    -0.420 OA
ATOM      7  N   UNL     1      -6.379   2.719  26.251  0.00  0.00    -0.112 NA
ATOM      8  N   UNL     1      -6.348   1.361  25.993  0.00  0.00    -0.107 NA
ATOM     24  C   UNL     1      -5.197   3.177  25.912  0.00  0.00    +0.218 A 
ATOM     27  C   UNL     1      -5.149   1.113  25.520  0.00  0.00    +0.248 A 
BRANCH  27  28
ATOM     28  C   UNL     1      -4.556  -0.118  25.086  0.00  0.00    +0.039 A 
ATOM     31  C   UNL     1      -3.625  -0.768  25.897  0.00  0.00    +0.015 A 
ATOM     32  C   UNL     1      -4.909  -0.666  23.853  0.00  0.00    +0.015 A 
ATOM     33  C   UNL     1      -3.048  -1.965  25.475  0.00  0.00    +0.033 A 
ATOM     34  C   UNL     1      -4.331  -1.863  23.430  0.00  0.00    +0.033 A 
ATOM     35  C   UNL     1      -3.401  -2.513  24.241  0.00  0.00    +0.126 A 
BRANCH  35   9
ATOM      4  O   UNL     1      -3.549  -4.738  23.653  0.00  0.00    -0.126 OA
ATOM      5  O   UNL     1      -1.578  -3.773  23.603  0.00  0.00    -0.126 OA
ATOM      9  N   UNL     1      -2.815  -3.733  23.812  0.00  0.00    +0.056 N 
ENDBRANCH  35   9
ENDBRANCH  27  28
ENDBRANCH  18  24
ENDBRANCH  13  18
TORSDOF 13
ENDMDL
MODEL 10
REMARK VINA RESULT:       4.0      2.314      5.605
REMARK  Name = 45783986
REMARK  18 active torsions:
REMARK  status: ('A' for Active; 'I' for Inactive)
REMARK    1  A    between atoms: O_2  and  C_25
REMARK    2  A    between atoms: O_2  and  C_29
REMARK    3  A    between atoms: O_3  and  C_26
REMARK    4  A    between atoms: O_3  and  C_30
REMARK    5  A    between atoms: N_6  and  C_16
REMARK    6  A    between atoms: N_6  and  C_22
REMARK    7  A    between atoms: N_6  and  C_23
REMARK    8  A    between atoms: N_9  and  C_35
REMARK    9  A    between atoms: C_10  and  C_14
REMARK   10  A    between atoms: C_11  and  C_16
REMARK   11  A    between atoms: C_13  and  C_18
REMARK   12  A    between atoms: C_14  and  C_19
REMARK   13  A    between atoms: C_14  and  C_20
REMARK   14  A    between atoms: C_15  and  C_21
REMARK   15  A    between atoms: C_18  and  C_24
REMARK   16  A    between atoms: C_22  and  C_25
REMARK   17  A    between atoms: C_23  and  C_26
REMARK   18  A    between atoms: C_27  and  C_28
REMARK                            x       y       z     vdW  Elec       q    Type
REMARK                         _______ _______ _______ _____ _____    ______ ____
ROOT
ATOM     10  C   UNL     1      -1.262   3.991  24.065  0.00  0.00    +0.000 C 
ATOM     11  C   UNL     1      -0.870   2.906  25.094  0.00  0.00    +0.029 C 
ATOM     12  C   UNL     1      -2.767   4.283  24.139  0.00  0.00    +0.012 C 
ATOM     13  C   UNL     1      -3.237   4.715  25.545  0.00  0.00    +0.024 C 
ATOM     15  C   UNL     1      -2.562   3.937  26.664  0.00  0.00    -0.073 C 
ATOM     17  C   UNL     1      -1.512   3.124  26.440  0.00  0.00    -0.023 C 
ATOM     21  C   UNL     1      -3.071   4.149  28.064  0.00  0.00    +0.039 C 
ENDROOT
BRANCH  10  14
ATOM     14  C   UNL     1      -0.437   5.270  24.258  0.00  0.00    -0.013 C 
ATOM     19  C   UNL     1      -1.346   6.439  24.626  0.00  0.00    +0.007 C 
ATOM     20  C   UNL     1       0.363   5.583  22.999  0.00  0.00    +0.007 C 
ENDBRANCH  10  14
BRANCH  11  16
ATOM     16  C   UNL     1      -1.215   1.499  24.594  0.00  0.00    +0.092 C 
BRANCH  16   6
ATOM      6  N   UNL     1      -0.015   0.690  24.469  0.00  0.00    -0.297 NA
BRANCH   6  22
ATOM     22  C   UNL     1       0.697   1.003  23.226  0.00  0.00    +0.112 C 
BRANCH  22  25
ATOM     25  C   UNL     1       1.332  -0.250  22.642  0.00  0.00    +0.174 C 
BRANCH  25   2
ATOM      2  O   UNL     1       2.513   0.121  21.943  0.00  0.00    -0.382 OA
ATOM     29  C   UNL     1       3.435   0.787  22.795  0.00  0.00    +0.194 C 
ENDBRANCH  25   2
ENDBRANCH  22  25
ENDBRANCH   6  22
BRANCH   6  23
ATOM     23  C   UNL     1      -0.341  -0.738  24.515  0.00  0.00    +0.112 C 
BRANCH  23  26
ATOM     26  C   UNL     1      -0.690  -1.163  25.933  0.00  0.00    +0.174 C 
BRANCH  26   3
ATOM      3  O   UNL     1      -0.242  -2.497  26.133  0.00  0.00    -0.382 OA
ATOM     30  C   UNL     1       0.866  -2.804  25.298  0.00  0.00    +0.194 C 
ENDBRANCH  26   3
ENDBRANCH  23  26
ENDBRANCH   6  23
ENDBRANCH  16   6
ENDBRANCH  11  16
BRANCH  13  18
ATOM     18  C   UNL     1      -4.767   4.628  25.598  0.00  0.00    +0.105 C 
BRANCH  18  24
ATOM      1  O   UNL     1      -4.439   2.247  25.179  0.00  0.00    -0.420 OA
ATOM      7  N   UNL     1      -6.312   2.730  26.302  0.00  0.00    -0.112 NA
ATOM      8  N   UNL     1      -6.255   1.358  26.137  0.00  0.00    -0.107 NA
ATOM     24  C   UNL     1      -5.233   3.206  25.728  0.00  0.00    +0.218 A 
ATOM     27  C   UNL     1      -5.146   1.121  25.476  0.00  0.00    +0.248 A 
BRANCH  27  28
ATOM     28  C   UNL     1      -4.575  -0.115  25.029  0.00  0.00    +0.039 A 
ATOM     31  C   UNL     1      -4.525  -0.406  23.666  0.00  0.00    +0.015 A 
ATOM     32  C   UNL     1      -4.068  -1.026  25.956  0.00  0.00    +0.015 A 
ATOM     33  C   UNL     1      -3.969  -1.609  23.229  0.00  0.00    +0.033 A 
ATOM     34  C   UNL     1      -3.512  -2.229  25.520  0.00  0.00    +0.033 A 
ATOM     35  C   UNL     1      -3.462  -2.520  24.157  0.00  0.00    +0.126 A 
BRANCH  35   9
ATOM      4  O   UNL     1      -3.632  -4.752  23.602  0.00  0.00    -0.126 OA
ATOM      5  O   UNL     1      -1.669  -3.782  23.442  0.00  0.00    -0.126 OA
ATOM      9  N   UNL     1      -2.894  -3.744  23.713  0.00  0.00    +0.056 N 
ENDBRANCH  35   9
ENDBRANCH  27  28
ENDBRANCH  18  24
ENDBRANCH  13  18
TORSDOF 13
ENDMDL
