MODEL 1
REMARK VINA RESULT:      -2.8      0.000      0.000
REMARK  Name = 45361032
REMARK  8 active torsions:
REMARK  status: ('A' for Active; 'I' for Inactive)
REMARK    1  A    between atoms: N_5  and  C_20
REMARK    2  A    between atoms: N_6  and  C_19
REMARK    3  A    between atoms: N_9  and  C_25
REMARK    4  A    between atoms: C_15  and  C_18
REMARK    5  A    between atoms: C_18  and  C_21
REMARK    6  A    between atoms: C_19  and  C_22
REMARK    7  A    between atoms: C_21  and  C_23
REMARK    8  A    between atoms: C_25  and  C_26
REMARK                            x       y       z     vdW  Elec       q    Type
REMARK                         _______ _______ _______ _____ _____    ______ ____
ROOT
ATOM      3  O   UNL     1      -4.980  -8.782  16.536  0.00  0.00    -0.274 OA
ATOM      5  N   UNL     1      -6.358  -9.351  12.963  0.00  0.00    -0.296 NA
ATOM      6  N   UNL     1      -7.424  -9.926  16.416  0.00  0.00    -0.284 NA
ATOM      7  N   UNL     1      -4.143  -9.905  14.727  0.00  0.00    -0.312 N 
ATOM     11  C   UNL     1      -7.141 -10.047  14.009  0.00  0.00    +0.084 C 
ATOM     12  C   UNL     1      -6.457 -10.332  15.378  0.00  0.00    +0.161 C 
ATOM     13  C   UNL     1      -8.416  -9.298  14.436  0.00  0.00    +0.036 C 
ATOM     14  C   UNL     1      -8.740  -9.898  15.789  0.00  0.00    +0.087 C 
ATOM     15  C   UNL     1      -5.167 -10.104  12.480  0.00  0.00    +0.074 C 
ATOM     16  C   UNL     1      -5.149  -9.582  15.617  0.00  0.00    +0.232 C 
ATOM     17  C   UNL     1      -4.334 -10.780  13.586  0.00  0.00    +0.123 C 
ATOM     20  C   UNL     1      -7.218  -8.975  11.828  0.00  0.00    +0.105 C 
ATOM     30  H   UNL     1      -3.238  -9.458  14.844  0.00  0.00    +0.149 HD
ENDROOT
BRANCH  15  18
ATOM     18  C   UNL     1      -4.222  -9.173  11.692  0.00  0.00    +0.029 C 
BRANCH  18  21
ATOM     21  C   UNL     1      -3.464  -9.950  10.632  0.00  0.00    +0.097 C 
BRANCH  21  23
ATOM      4  O   UNL     1      -3.959 -10.774   8.410  0.00  0.00    -0.276 OA
ATOM      9  N   UNL     1      -5.218  -9.024   9.273  0.00  0.00    -0.311 N 
ATOM     23  C   UNL     1      -4.218  -9.984   9.315  0.00  0.00    +0.213 C 
ATOM     31  H   UNL     1      -5.371  -8.424  10.078  0.00  0.00    +0.149 HD
BRANCH   9  25
ATOM     25  C   UNL     1      -6.076  -8.854   8.124  0.00  0.00    +0.146 C 
BRANCH  25  26
ATOM      2  S   UNL     1      -8.271 -10.480   8.645  0.00  0.00    -0.100 S 
ATOM     26  C   UNL     1      -7.533  -8.943   8.494  0.00  0.00    +0.007 A 
ATOM     27  C   UNL     1      -8.417  -7.918   8.745  0.00  0.00    +0.013 A 
ATOM     28  C   UNL     1      -9.719  -8.400   9.066  0.00  0.00    +0.008 A 
ATOM     29  C   UNL     1      -9.779  -9.776   9.048  0.00  0.00    +0.045 A 
ENDBRANCH  25  26
ENDBRANCH   9  25
ENDBRANCH  21  23
ENDBRANCH  18  21
ENDBRANCH  15  18
BRANCH   6  19
ATOM     19  C   UNL     1      -7.397 -10.780  17.597  0.00  0.00    +0.143 C 
BRANCH  19  22
ATOM      1  S   UNL     1     -10.711  -9.847  19.586  0.00  0.00    +0.028 S 
ATOM      8  N   UNL     1      -8.402 -10.780  19.869  0.00  0.00    -0.145 NA
ATOM     10  N   UNL     1      -9.495 -10.478  20.552  0.00  0.00    -0.110 NA
ATOM     22  C   UNL     1      -8.550 -10.495  18.521  0.00  0.00    +0.086 A 
ATOM     24  C   UNL     1      -9.771  -9.965  18.156  0.00  0.00    +0.093 A 
ENDBRANCH  19  22
ENDBRANCH   6  19
TORSDOF 7
ENDMDL
MODEL 2
REMARK VINA RESULT:      -2.0     15.657     18.015
REMARK  Name = 45361032
REMARK  8 active torsions:
REMARK  status: ('A' for Active; 'I' for Inactive)
REMARK    1  A    between atoms: N_5  and  C_20
REMARK    2  A    between atoms: N_6  and  C_19
REMARK    3  A    between atoms: N_9  and  C_25
REMARK    4  A    between atoms: C_15  and  C_18
REMARK    5  A    between atoms: C_18  and  C_21
REMARK    6  A    between atoms: C_19  and  C_22
REMARK    7  A    between atoms: C_21  and  C_23
REMARK    8  A    between atoms: C_25  and  C_26
REMARK                            x       y       z     vdW  Elec       q    Type
REMARK                         _______ _______ _______ _____ _____    ______ ____
ROOT
ATOM      3  O   UNL     1      -0.484   1.987  23.827  0.00  0.00    -0.274 OA
ATOM      5  N   UNL     1      -2.820  -0.690  25.364  0.00  0.00    -0.296 NA
ATOM      6  N   UNL     1       0.506  -0.526  23.847  0.00  0.00    -0.284 NA
ATOM      7  N   UNL     1      -2.628   1.355  23.339  0.00  0.00    -0.312 N 
ATOM     11  C   UNL     1      -1.662  -1.268  24.646  0.00  0.00    +0.084 C 
ATOM     12  C   UNL     1      -0.939  -0.391  23.582  0.00  0.00    +0.161 C 
ATOM     13  C   UNL     1      -0.499  -1.682  25.565  0.00  0.00    +0.036 C 
ATOM     14  C   UNL     1       0.687  -1.746  24.626  0.00  0.00    +0.087 C 
ATOM     15  C   UNL     1      -3.985  -0.364  24.495  0.00  0.00    +0.074 C 
ATOM     16  C   UNL     1      -1.299   1.091  23.612  0.00  0.00    +0.232 C 
ATOM     17  C   UNL     1      -3.629   0.320  23.161  0.00  0.00    +0.123 C 
ATOM     20  C   UNL     1      -3.239  -1.566  26.472  0.00  0.00    +0.105 C 
ATOM     30  H   UNL     1      -2.930   2.324  23.320  0.00  0.00    +0.149 HD
ENDROOT
BRANCH  15  18
ATOM     18  C   UNL     1      -4.973   0.558  25.241  0.00  0.00    +0.029 C 
BRANCH  18  21
ATOM     21  C   UNL     1      -5.467   1.665  24.328  0.00  0.00    +0.097 C 
BRANCH  21  23
ATOM      4  O   UNL     1      -4.401   3.744  23.696  0.00  0.00    -0.276 OA
ATOM      9  N   UNL     1      -4.516   3.171  25.942  0.00  0.00    -0.311 N 
ATOM     23  C   UNL     1      -4.741   2.972  24.589  0.00  0.00    +0.213 C 
ATOM     31  H   UNL     1      -4.849   2.483  26.612  0.00  0.00    +0.149 HD
BRANCH   9  25
ATOM     25  C   UNL     1      -3.839   4.342  26.448  0.00  0.00    +0.146 C 
BRANCH  25  26
ATOM      2  S   UNL     1      -1.288   3.247  26.291  0.00  0.00    -0.100 S 
ATOM     26  C   UNL     1      -2.438   4.456  25.909  0.00  0.00    +0.007 A 
ATOM     27  C   UNL     1      -1.905   5.443  25.110  0.00  0.00    +0.013 A 
ATOM     28  C   UNL     1      -0.534   5.202  24.805  0.00  0.00    +0.008 A 
ATOM     29  C   UNL     1      -0.072   4.041  25.384  0.00  0.00    +0.045 A 
ENDBRANCH  25  26
ENDBRANCH   9  25
ENDBRANCH  21  23
ENDBRANCH  18  21
ENDBRANCH  15  18
BRANCH   6  19
ATOM     19  C   UNL     1       1.319  -0.522  22.638  0.00  0.00    +0.143 C 
BRANCH  19  22
ATOM      1  S   UNL     1       5.173  -0.142  23.541  0.00  0.00    +0.028 S 
ATOM      8  N   UNL     1       3.168   1.134  22.743  0.00  0.00    -0.145 NA
ATOM     10  N   UNL     1       4.450   1.284  23.038  0.00  0.00    -0.110 NA
ATOM     22  C   UNL     1       2.755  -0.176  22.928  0.00  0.00    +0.086 A 
ATOM     24  C   UNL     1       3.727  -1.050  23.372  0.00  0.00    +0.093 A 
ENDBRANCH  19  22
ENDBRANCH   6  19
TORSDOF 7
ENDMDL
MODEL 3
REMARK VINA RESULT:      -0.9     15.238     17.317
REMARK  Name = 45361032
REMARK  8 active torsions:
REMARK  status: ('A' for Active; 'I' for Inactive)
REMARK    1  A    between atoms: N_5  and  C_20
REMARK    2  A    between atoms: N_6  and  C_19
REMARK    3  A    between atoms: N_9  and  C_25
REMARK    4  A    between atoms: C_15  and  C_18
REMARK    5  A    between atoms: C_18  and  C_21
REMARK    6  A    between atoms: C_19  and  C_22
REMARK    7  A    between atoms: C_21  and  C_23
REMARK    8  A    between atoms: C_25  and  C_26
REMARK                            x       y       z     vdW  Elec       q    Type
REMARK                         _______ _______ _______ _____ _____    ______ ____
ROOT
ATOM      3  O   UNL     1      -2.815   2.190  22.513  0.00  0.00    -0.274 OA
ATOM      5  N   UNL     1      -2.292  -0.988  24.661  0.00  0.00    -0.296 NA
ATOM      6  N   UNL     1      -4.749   1.704  24.335  0.00  0.00    -0.284 NA
ATOM      7  N   UNL     1      -1.094   1.511  23.859  0.00  0.00    -0.312 N 
ATOM     11  C   UNL     1      -3.369  -0.110  25.170  0.00  0.00    +0.084 C 
ATOM     12  C   UNL     1      -3.367   1.387  24.743  0.00  0.00    +0.161 C 
ATOM     13  C   UNL     1      -4.785  -0.558  24.761  0.00  0.00    +0.036 C 
ATOM     14  C   UNL     1      -5.615   0.696  24.936  0.00  0.00    +0.087 C 
ATOM     15  C   UNL     1      -0.924  -0.615  25.120  0.00  0.00    +0.074 C 
ATOM     16  C   UNL     1      -2.431   1.729  23.587  0.00  0.00    +0.232 C 
ATOM     17  C   UNL     1      -0.617   0.895  25.083  0.00  0.00    +0.123 C 
ATOM     20  C   UNL     1      -2.570  -2.399  24.983  0.00  0.00    +0.105 C 
ATOM     30  H   UNL     1      -0.415   1.740  23.140  0.00  0.00    +0.149 HD
ENDROOT
BRANCH  15  18
ATOM     18  C   UNL     1       0.145  -1.327  24.264  0.00  0.00    +0.029 C 
BRANCH  18  21
ATOM     21  C   UNL     1      -0.099  -1.082  22.787  0.00  0.00    +0.097 C 
BRANCH  21  23
ATOM      4  O   UNL     1       1.352  -0.596  20.911  0.00  0.00    -0.276 OA
ATOM      9  N   UNL     1       1.913   0.215  23.012  0.00  0.00    -0.311 N 
ATOM     23  C   UNL     1       1.118  -0.476  22.111  0.00  0.00    +0.213 C 
ATOM     31  H   UNL     1       1.630   0.275  23.987  0.00  0.00    +0.149 HD
BRANCH   9  25
ATOM     25  C   UNL     1       3.131   0.880  22.614  0.00  0.00    +0.146 C 
BRANCH  25  26
ATOM      2  S   UNL     1       4.296  -1.386  23.731  0.00  0.00    -0.100 S 
ATOM     26  C   UNL     1       4.344   0.258  23.255  0.00  0.00    +0.007 A 
ATOM     27  C   UNL     1       5.559   0.842  23.535  0.00  0.00    +0.013 A 
ATOM     28  C   UNL     1       6.464  -0.072  24.148  0.00  0.00    +0.008 A 
ATOM     29  C   UNL     1       5.904  -1.320  24.313  0.00  0.00    +0.045 A 
ENDBRANCH  25  26
ENDBRANCH   9  25
ENDBRANCH  21  23
ENDBRANCH  18  21
ENDBRANCH  15  18
BRANCH   6  19
ATOM     19  C   UNL     1      -5.159   3.058  24.684  0.00  0.00    +0.143 C 
BRANCH  19  22
ATOM      1  S   UNL     1      -2.084   5.519  25.231  0.00  0.00    +0.028 S 
ATOM      8  N   UNL     1      -3.490   3.788  26.374  0.00  0.00    -0.145 NA
ATOM     10  N   UNL     1      -2.465   4.600  26.580  0.00  0.00    -0.110 NA
ATOM     22  C   UNL     1      -3.987   3.912  25.086  0.00  0.00    +0.086 A 
ATOM     24  C   UNL     1      -3.339   4.831  24.285  0.00  0.00    +0.093 A 
ENDBRANCH  19  22
ENDBRANCH   6  19
TORSDOF 7
ENDMDL
MODEL 4
REMARK VINA RESULT:      -0.7     14.816     17.645
REMARK  Name = 45361032
REMARK  8 active torsions:
REMARK  status: ('A' for Active; 'I' for Inactive)
REMARK    1  A    between atoms: N_5  and  C_20
REMARK    2  A    between atoms: N_6  and  C_19
REMARK    3  A    between atoms: N_9  and  C_25
REMARK    4  A    between atoms: C_15  and  C_18
REMARK    5  A    between atoms: C_18  and  C_21
REMARK    6  A    between atoms: C_19  and  C_22
REMARK    7  A    between atoms: C_21  and  C_23
REMARK    8  A    between atoms: C_25  and  C_26
REMARK                            x       y       z     vdW  Elec       q    Type
REMARK                         _______ _______ _______ _____ _____    ______ ____
ROOT
ATOM      3  O   UNL     1      -0.898   0.426  26.494  0.00  0.00    -0.274 OA
ATOM      5  N   UNL     1      -2.188   2.991  23.897  0.00  0.00    -0.296 NA
ATOM      6  N   UNL     1      -0.347  -0.172  23.918  0.00  0.00    -0.284 NA
ATOM      7  N   UNL     1      -0.557   2.676  26.256  0.00  0.00    -0.312 N 
ATOM     11  C   UNL     1      -1.246   2.003  23.324  0.00  0.00    +0.084 C 
ATOM     12  C   UNL     1      -0.281   1.254  24.290  0.00  0.00    +0.161 C 
ATOM     13  C   UNL     1      -1.934   0.838  22.590  0.00  0.00    +0.036 C 
ATOM     14  C   UNL     1      -0.866  -0.236  22.556  0.00  0.00    +0.087 C 
ATOM     15  C   UNL     1      -1.535   4.168  24.537  0.00  0.00    +0.074 C 
ATOM     16  C   UNL     1      -0.621   1.383  25.772  0.00  0.00    +0.232 C 
ATOM     17  C   UNL     1      -0.314   3.833  25.417  0.00  0.00    +0.123 C 
ATOM     20  C   UNL     1      -3.160   3.436  22.884  0.00  0.00    +0.105 C 
ATOM     30  H   UNL     1      -0.749   2.828  27.242  0.00  0.00    +0.149 HD
ENDROOT
BRANCH  15  18
ATOM     18  C   UNL     1      -2.544   4.934  25.417  0.00  0.00    +0.029 C 
BRANCH  18  21
ATOM     21  C   UNL     1      -3.191   4.004  26.426  0.00  0.00    +0.097 C 
BRANCH  21  23
ATOM      4  O   UNL     1      -5.436   3.795  25.546  0.00  0.00    -0.276 OA
ATOM      9  N   UNL     1      -4.081   1.913  25.642  0.00  0.00    -0.311 N 
ATOM     23  C   UNL     1      -4.368   3.257  25.826  0.00  0.00    +0.213 C 
ATOM     31  H   UNL     1      -3.160   1.559  25.889  0.00  0.00    +0.149 HD
BRANCH   9  25
ATOM     25  C   UNL     1      -5.041   0.988  25.087  0.00  0.00    +0.146 C 
BRANCH  25  26
ATOM      2  S   UNL     1      -3.466  -1.085  26.068  0.00  0.00    -0.100 S 
ATOM     26  C   UNL     1      -4.437  -0.372  24.852  0.00  0.00    +0.007 A 
ATOM     27  C   UNL     1      -4.550  -1.179  23.742  0.00  0.00    +0.013 A 
ATOM     28  C   UNL     1      -3.831  -2.400  23.892  0.00  0.00    +0.008 A 
ATOM     29  C   UNL     1      -3.196  -2.478  25.111  0.00  0.00    +0.045 A 
ENDBRANCH  25  26
ENDBRANCH   9  25
ENDBRANCH  21  23
ENDBRANCH  18  21
ENDBRANCH  15  18
BRANCH   6  19
ATOM     19  C   UNL     1       0.928  -0.864  24.051  0.00  0.00    +0.143 C 
BRANCH  19  22
ATOM      1  S   UNL     1       3.966   0.922  22.210  0.00  0.00    +0.028 S 
ATOM      8  N   UNL     1       1.885  -0.414  21.803  0.00  0.00    -0.145 NA
ATOM     10  N   UNL     1       2.888   0.173  21.168  0.00  0.00    -0.110 NA
ATOM     22  C   UNL     1       1.990  -0.256  23.176  0.00  0.00    +0.086 A 
ATOM     24  C   UNL     1       3.086   0.463  23.609  0.00  0.00    +0.093 A 
ENDBRANCH  19  22
ENDBRANCH   6  19
TORSDOF 7
ENDMDL
MODEL 5
REMARK VINA RESULT:      -0.3     16.336     19.051
REMARK  Name = 45361032
REMARK  8 active torsions:
REMARK  status: ('A' for Active; 'I' for Inactive)
REMARK    1  A    between atoms: N_5  and  C_20
REMARK    2  A    between atoms: N_6  and  C_19
REMARK    3  A    between atoms: N_9  and  C_25
REMARK    4  A    between atoms: C_15  and  C_18
REMARK    5  A    between atoms: C_18  and  C_21
REMARK    6  A    between atoms: C_19  and  C_22
REMARK    7  A    between atoms: C_21  and  C_23
REMARK    8  A    between atoms: C_25  and  C_26
REMARK                            x       y       z     vdW  Elec       q    Type
REMARK                         _______ _______ _______ _____ _____    ______ ____
ROOT
ATOM      3  O   UNL     1       0.740   2.385  23.932  0.00  0.00    -0.274 OA
ATOM      5  N   UNL     1      -2.719   0.878  24.797  0.00  0.00    -0.296 NA
ATOM      6  N   UNL     1       0.558  -0.297  23.668  0.00  0.00    -0.284 NA
ATOM      7  N   UNL     1      -1.363   2.809  23.138  0.00  0.00    -0.312 N 
ATOM     11  C   UNL     1      -1.817  -0.081  24.120  0.00  0.00    +0.084 C 
ATOM     12  C   UNL     1      -0.632   0.484  23.281  0.00  0.00    +0.161 C 
ATOM     13  C   UNL     1      -1.099  -1.048  25.079  0.00  0.00    +0.036 C 
ATOM     14  C   UNL     1       0.081  -1.538  24.266  0.00  0.00    +0.087 C 
ATOM     15  C   UNL     1      -3.484   1.763  23.875  0.00  0.00    +0.074 C 
ATOM     16  C   UNL     1      -0.332   1.964  23.501  0.00  0.00    +0.232 C 
ATOM     17  C   UNL     1      -2.666   2.342  22.705  0.00  0.00    +0.123 C 
ATOM     20  C   UNL     1      -3.638   0.176  25.710  0.00  0.00    +0.105 C 
ATOM     30  H   UNL     1      -1.219   3.810  23.237  0.00  0.00    +0.149 HD
ENDROOT
BRANCH  15  18
ATOM     18  C   UNL     1      -4.093   2.951  24.648  0.00  0.00    +0.029 C 
BRANCH  18  21
ATOM     21  C   UNL     1      -3.464   3.075  26.024  0.00  0.00    +0.097 C 
BRANCH  21  23
ATOM      4  O   UNL     1      -1.779   4.708  25.429  0.00  0.00    -0.276 OA
ATOM      9  N   UNL     1      -1.134   2.766  26.525  0.00  0.00    -0.311 N 
ATOM     23  C   UNL     1      -2.053   3.628  25.946  0.00  0.00    +0.213 C 
ATOM     31  H   UNL     1      -1.456   1.898  26.945  0.00  0.00    +0.149 HD
BRANCH   9  25
ATOM     25  C   UNL     1       0.278   3.065  26.576  0.00  0.00    +0.146 C 
BRANCH  25  26
ATOM      2  S   UNL     1       2.555   2.874  28.162  0.00  0.00    -0.100 S 
ATOM     26  C   UNL     1       0.860   2.790  27.938  0.00  0.00    +0.007 A 
ATOM     27  C   UNL     1       0.200   2.460  29.100  0.00  0.00    +0.013 A 
ATOM     28  C   UNL     1       1.098   2.274  30.191  0.00  0.00    +0.008 A 
ATOM     29  C   UNL     1       2.409   2.469  29.819  0.00  0.00    +0.045 A 
ENDBRANCH  25  26
ENDBRANCH   9  25
ENDBRANCH  21  23
ENDBRANCH  18  21
ENDBRANCH  15  18
BRANCH   6  19
ATOM     19  C   UNL     1       1.476  -0.538  22.562  0.00  0.00    +0.143 C 
BRANCH  19  22
ATOM      1  S   UNL     1       5.224   0.460  23.436  0.00  0.00    +0.028 S 
ATOM      8  N   UNL     1       3.559  -1.406  23.602  0.00  0.00    -0.145 NA
ATOM     10  N   UNL     1       4.810  -1.095  23.904  0.00  0.00    -0.110 NA
ATOM     22  C   UNL     1       2.911  -0.353  22.975  0.00  0.00    +0.086 A 
ATOM     24  C   UNL     1       3.670   0.785  22.787  0.00  0.00    +0.093 A 
ENDBRANCH  19  22
ENDBRANCH   6  19
TORSDOF 7
ENDMDL
MODEL 6
REMARK VINA RESULT:      -0.0     15.277     17.879
REMARK  Name = 45361032
REMARK  8 active torsions:
REMARK  status: ('A' for Active; 'I' for Inactive)
REMARK    1  A    between atoms: N_5  and  C_20
REMARK    2  A    between atoms: N_6  and  C_19
REMARK    3  A    between atoms: N_9  and  C_25
REMARK    4  A    between atoms: C_15  and  C_18
REMARK    5  A    between atoms: C_18  and  C_21
REMARK    6  A    between atoms: C_19  and  C_22
REMARK    7  A    between atoms: C_21  and  C_23
REMARK    8  A    between atoms: C_25  and  C_26
REMARK                            x       y       z     vdW  Elec       q    Type
REMARK                         _______ _______ _______ _____ _____    ______ ____
ROOT
ATOM      3  O   UNL     1       0.977   1.966  26.122  0.00  0.00    -0.274 OA
ATOM      5  N   UNL     1      -2.225   2.048  23.948  0.00  0.00    -0.296 NA
ATOM      6  N   UNL     1       1.306   1.168  23.562  0.00  0.00    -0.284 NA
ATOM      7  N   UNL     1      -0.499   3.641  25.623  0.00  0.00    -0.312 N 
ATOM     11  C   UNL     1      -0.989   1.849  23.159  0.00  0.00    +0.084 C 
ATOM     12  C   UNL     1       0.368   2.285  23.787  0.00  0.00    +0.161 C 
ATOM     13  C   UNL     1      -0.714   0.380  22.789  0.00  0.00    +0.036 C 
ATOM     14  C   UNL     1       0.766   0.369  22.469  0.00  0.00    +0.087 C 
ATOM     15  C   UNL     1      -2.548   3.473  24.240  0.00  0.00    +0.074 C 
ATOM     16  C   UNL     1       0.322   2.583  25.283  0.00  0.00    +0.232 C 
ATOM     17  C   UNL     1      -1.345   4.335  24.671  0.00  0.00    +0.123 C 
ATOM     20  C   UNL     1      -3.372   1.389  23.300  0.00  0.00    +0.105 C 
ATOM     30  H   UNL     1      -0.557   3.908  26.601  0.00  0.00    +0.149 HD
ENDROOT
BRANCH  15  18
ATOM     18  C   UNL     1      -3.610   3.569  25.356  0.00  0.00    +0.029 C 
BRANCH  18  21
ATOM     21  C   UNL     1      -5.002   3.360  24.791  0.00  0.00    +0.097 C 
BRANCH  21  23
ATOM      4  O   UNL     1      -6.707   1.653  24.982  0.00  0.00    -0.276 OA
ATOM      9  N   UNL     1      -4.506   1.112  25.481  0.00  0.00    -0.311 N 
ATOM     23  C   UNL     1      -5.524   1.966  25.086  0.00  0.00    +0.213 C 
ATOM     31  H   UNL     1      -3.550   1.456  25.523  0.00  0.00    +0.149 HD
BRANCH   9  25
ATOM     25  C   UNL     1      -4.747  -0.271  25.821  0.00  0.00    +0.146 C 
BRANCH  25  26
ATOM      2  S   UNL     1      -2.039  -0.889  25.962  0.00  0.00    -0.100 S 
ATOM     26  C   UNL     1      -3.621  -1.163  25.370  0.00  0.00    +0.007 A 
ATOM     27  C   UNL     1      -3.670  -2.230  24.500  0.00  0.00    +0.013 A 
ATOM     28  C   UNL     1      -2.391  -2.831  24.318  0.00  0.00    +0.008 A 
ATOM     29  C   UNL     1      -1.414  -2.199  25.055  0.00  0.00    +0.045 A 
ENDBRANCH  25  26
ENDBRANCH   9  25
ENDBRANCH  21  23
ENDBRANCH  18  21
ENDBRANCH  15  18
BRANCH   6  19
ATOM     19  C   UNL     1       2.671   1.604  23.300  0.00  0.00    +0.143 C 
BRANCH  19  22
ATOM      1  S   UNL     1       4.851  -1.693  23.734  0.00  0.00    +0.028 S 
ATOM      8  N   UNL     1       4.999   0.807  23.646  0.00  0.00    -0.145 NA
ATOM     10  N   UNL     1       5.745  -0.277  23.792  0.00  0.00    -0.110 NA
ATOM     22  C   UNL     1       3.661   0.485  23.480  0.00  0.00    +0.086 A 
ATOM     24  C   UNL     1       3.368  -0.863  23.499  0.00  0.00    +0.093 A 
ENDBRANCH  19  22
ENDBRANCH   6  19
TORSDOF 7
ENDMDL
MODEL 7
REMARK VINA RESULT:       0.1     15.367     17.907
REMARK  Name = 45361032
REMARK  8 active torsions:
REMARK  status: ('A' for Active; 'I' for Inactive)
REMARK    1  A    between atoms: N_5  and  C_20
REMARK    2  A    between atoms: N_6  and  C_19
REMARK    3  A    between atoms: N_9  and  C_25
REMARK    4  A    between atoms: C_15  and  C_18
REMARK    5  A    between atoms: C_18  and  C_21
REMARK    6  A    between atoms: C_19  and  C_22
REMARK    7  A    between atoms: C_21  and  C_23
REMARK    8  A    between atoms: C_25  and  C_26
REMARK                            x       y       z     vdW  Elec       q    Type
REMARK                         _______ _______ _______ _____ _____    ______ ____
ROOT
ATOM      3  O   UNL     1      -1.413  -2.717  23.567  0.00  0.00    -0.274 OA
ATOM      5  N   UNL     1      -3.018   0.804  23.705  0.00  0.00    -0.296 NA
ATOM      6  N   UNL     1       0.329  -0.655  23.467  0.00  0.00    -0.284 NA
ATOM      7  N   UNL     1      -2.813  -1.724  25.080  0.00  0.00    -0.312 N 
ATOM     11  C   UNL     1      -1.549   0.824  23.884  0.00  0.00    +0.084 C 
ATOM     12  C   UNL     1      -0.842  -0.484  24.347  0.00  0.00    +0.161 C 
ATOM     13  C   UNL     1      -0.769   1.174  22.603  0.00  0.00    +0.036 C 
ATOM     14  C   UNL     1       0.623   0.649  22.885  0.00  0.00    +0.087 C 
ATOM     15  C   UNL     1      -3.789   0.550  24.954  0.00  0.00    +0.074 C 
ATOM     16  C   UNL     1      -1.697  -1.745  24.266  0.00  0.00    +0.232 C 
ATOM     17  C   UNL     1      -3.218  -0.566  25.852  0.00  0.00    +0.123 C 
ATOM     20  C   UNL     1      -3.485   2.044  23.061  0.00  0.00    +0.105 C 
ATOM     30  H   UNL     1      -3.413  -2.543  25.091  0.00  0.00    +0.149 HD
ENDROOT
BRANCH  15  18
ATOM     18  C   UNL     1      -5.249   0.177  24.622  0.00  0.00    +0.029 C 
BRANCH  18  21
ATOM     21  C   UNL     1      -6.171   1.358  24.856  0.00  0.00    +0.097 C 
BRANCH  21  23
ATOM      4  O   UNL     1      -6.039   2.369  27.052  0.00  0.00    -0.276 OA
ATOM      9  N   UNL     1      -4.579   3.077  25.393  0.00  0.00    -0.311 N 
ATOM     23  C   UNL     1      -5.613   2.307  25.901  0.00  0.00    +0.213 C 
ATOM     31  H   UNL     1      -4.281   2.945  24.430  0.00  0.00    +0.149 HD
BRANCH   9  25
ATOM     25  C   UNL     1      -3.883   4.059  26.192  0.00  0.00    +0.146 C 
BRANCH  25  26
ATOM      2  S   UNL     1      -1.299   3.037  26.079  0.00  0.00    -0.100 S 
ATOM     26  C   UNL     1      -2.460   4.246  25.735  0.00  0.00    +0.007 A 
ATOM     27  C   UNL     1      -1.915   5.305  25.043  0.00  0.00    +0.013 A 
ATOM     28  C   UNL     1      -0.525   5.121  24.790  0.00  0.00    +0.008 A 
ATOM     29  C   UNL     1      -0.062   3.928  25.300  0.00  0.00    +0.045 A 
ENDBRANCH  25  26
ENDBRANCH   9  25
ENDBRANCH  21  23
ENDBRANCH  18  21
ENDBRANCH  15  18
BRANCH   6  19
ATOM     19  C   UNL     1       1.485  -1.225  24.147  0.00  0.00    +0.143 C 
BRANCH  19  22
ATOM      1  S   UNL     1       5.149  -0.123  23.068  0.00  0.00    +0.028 S 
ATOM      8  N   UNL     1       2.726   0.459  22.806  0.00  0.00    -0.145 NA
ATOM     10  N   UNL     1       3.936   0.844  22.433  0.00  0.00    -0.110 NA
ATOM     22  C   UNL     1       2.778  -0.654  23.630  0.00  0.00    +0.086 A 
ATOM     24  C   UNL     1       4.043  -1.136  23.900  0.00  0.00    +0.093 A 
ENDBRANCH  19  22
ENDBRANCH   6  19
TORSDOF 7
ENDMDL
MODEL 8
REMARK VINA RESULT:       0.8     15.165     17.723
REMARK  Name = 45361032
REMARK  8 active torsions:
REMARK  status: ('A' for Active; 'I' for Inactive)
REMARK    1  A    between atoms: N_5  and  C_20
REMARK    2  A    between atoms: N_6  and  C_19
REMARK    3  A    between atoms: N_9  and  C_25
REMARK    4  A    between atoms: C_15  and  C_18
REMARK    5  A    between atoms: C_18  and  C_21
REMARK    6  A    between atoms: C_19  and  C_22
REMARK    7  A    between atoms: C_21  and  C_23
REMARK    8  A    between atoms: C_25  and  C_26
REMARK                            x       y       z     vdW  Elec       q    Type
REMARK                         _______ _______ _______ _____ _____    ______ ____
ROOT
ATOM      3  O   UNL     1      -0.866  -0.865  21.874  0.00  0.00    -0.274 OA
ATOM      5  N   UNL     1      -1.167   0.376  25.529  0.00  0.00    -0.296 NA
ATOM      6  N   UNL     1       1.278   0.485  22.809  0.00  0.00    -0.284 NA
ATOM      7  N   UNL     1      -1.288  -1.959  23.838  0.00  0.00    -0.312 N 
ATOM     11  C   UNL     1       0.205   0.486  24.986  0.00  0.00    +0.084 C 
ATOM     12  C   UNL     1       0.592  -0.403  23.767  0.00  0.00    +0.161 C 
ATOM     13  C   UNL     1       0.567   1.895  24.483  0.00  0.00    +0.036 C 
ATOM     14  C   UNL     1       1.740   1.648  23.557  0.00  0.00    +0.087 C 
ATOM     15  C   UNL     1      -1.502  -0.960  26.096  0.00  0.00    +0.074 C 
ATOM     16  C   UNL     1      -0.582  -1.068  23.053  0.00  0.00    +0.232 C 
ATOM     17  C   UNL     1      -1.029  -2.160  25.251  0.00  0.00    +0.123 C 
ATOM     20  C   UNL     1      -1.422   1.431  26.525  0.00  0.00    +0.105 C 
ATOM     30  H   UNL     1      -2.068  -2.454  23.417  0.00  0.00    +0.149 HD
ENDROOT
BRANCH  15  18
ATOM     18  C   UNL     1      -3.027  -1.100  26.287  0.00  0.00    +0.029 C 
BRANCH  18  21
ATOM     21  C   UNL     1      -3.741  -1.062  24.949  0.00  0.00    +0.097 C 
BRANCH  21  23
ATOM      4  O   UNL     1      -5.291   0.792  25.093  0.00  0.00    -0.276 OA
ATOM      9  N   UNL     1      -3.409   0.994  23.749  0.00  0.00    -0.311 N 
ATOM     23  C   UNL     1      -4.253   0.330  24.625  0.00  0.00    +0.213 C 
ATOM     31  H   UNL     1      -2.561   0.537  23.426  0.00  0.00    +0.149 HD
BRANCH   9  25
ATOM     25  C   UNL     1      -3.679   2.336  23.286  0.00  0.00    +0.146 C 
BRANCH  25  26
ATOM      2  S   UNL     1      -4.071   3.878  25.567  0.00  0.00    -0.100 S 
ATOM     26  C   UNL     1      -3.131   3.374  24.228  0.00  0.00    +0.007 A 
ATOM     27  C   UNL     1      -1.916   4.022  24.176  0.00  0.00    +0.013 A 
ATOM     28  C   UNL     1      -1.755   4.945  25.251  0.00  0.00    +0.008 A 
ATOM     29  C   UNL     1      -2.854   4.966  26.081  0.00  0.00    +0.045 A 
ENDBRANCH  25  26
ENDBRANCH   9  25
ENDBRANCH  21  23
ENDBRANCH  18  21
ENDBRANCH  15  18
BRANCH   6  19
ATOM     19  C   UNL     1       2.364  -0.170  22.090  0.00  0.00    +0.143 C 
BRANCH  19  22
ATOM      1  S   UNL     1       5.818   0.330  23.994  0.00  0.00    +0.028 S 
ATOM      8  N   UNL     1       3.956  -1.306  23.622  0.00  0.00    -0.145 NA
ATOM     10  N   UNL     1       5.104  -1.161  24.266  0.00  0.00    -0.110 NA
ATOM     22  C   UNL     1       3.641  -0.175  22.885  0.00  0.00    +0.086 A 
ATOM     24  C   UNL     1       4.556   0.856  22.958  0.00  0.00    +0.093 A 
ENDBRANCH  19  22
ENDBRANCH   6  19
TORSDOF 7
ENDMDL
