MODEL 1
REMARK VINA RESULT:      -1.2      0.000      0.000
REMARK  Name = 40777423
REMARK  12 active torsions:
REMARK  status: ('A' for Active; 'I' for Inactive)
REMARK    1  A    between atoms: O_3  and  C_28
REMARK    2  A    between atoms: O_3  and  C_29
REMARK    3  A    between atoms: N_5  and  C_18
REMARK    4  A    between atoms: N_7  and  C_20
REMARK    5  A    between atoms: N_7  and  C_24
REMARK    6  A    between atoms: N_7  and  C_25
REMARK    7  A    between atoms: C_8  and  C_14
REMARK    8  A    between atoms: C_9  and  C_13
REMARK    9  A    between atoms: C_13  and  C_15
REMARK   10  A    between atoms: C_14  and  C_16
REMARK   11  A    between atoms: C_18  and  C_20
REMARK   12  A    between atoms: C_19  and  C_21
REMARK                            x       y       z     vdW  Elec       q    Type
REMARK                         _______ _______ _______ _____ _____    ______ ____
ROOT
ATOM      4  N   UNL     1      -2.175  -2.792  24.559  0.00  0.00    -0.316 NA
ATOM      8  C   UNL     1      -4.158  -0.684  23.984  0.00  0.00    +0.004 C 
ATOM      9  C   UNL     1      -2.650  -0.517  23.685  0.00  0.00    +0.012 C 
ATOM     10  C   UNL     1      -4.503  -2.182  24.002  0.00  0.00    +0.019 C 
ATOM     11  C   UNL     1      -1.786  -1.383  24.617  0.00  0.00    +0.085 C 
ATOM     12  C   UNL     1      -3.579  -2.984  24.918  0.00  0.00    +0.081 C 
ATOM     30  H   UNL     1      -1.588  -3.331  25.195  0.00  0.00    +0.122 HD
ENDROOT
BRANCH   9  13
ATOM     13  C   UNL     1      -2.188   0.940  23.725  0.00  0.00    +0.064 C 
BRANCH  13  15
ATOM      2  O   UNL     1       1.258   1.889  24.162  0.00  0.00    -0.354 OA
ATOM      6  N   UNL     1      -0.107   2.121  24.287  0.00  0.00    -0.083 NA
ATOM     15  C   UNL     1      -0.691   1.040  23.762  0.00  0.00    +0.085 A 
ATOM     17  C   UNL     1       0.246   0.102  23.294  0.00  0.00    +0.076 A 
ATOM     19  C   UNL     1       1.455   0.684  23.570  0.00  0.00    +0.167 A 
BRANCH  19  21
ATOM     21  C   UNL     1       2.824   0.306  23.373  0.00  0.00    +0.020 A 
ATOM     22  C   UNL     1       3.723   1.209  22.805  0.00  0.00    +0.015 A 
ATOM     23  C   UNL     1       3.257  -0.966  23.748  0.00  0.00    +0.015 A 
ATOM     26  C   UNL     1       5.054   0.841  22.614  0.00  0.00    +0.046 A 
ATOM     27  C   UNL     1       4.589  -1.335  23.557  0.00  0.00    +0.046 A 
ATOM     28  C   UNL     1       5.488  -0.431  22.989  0.00  0.00    +0.120 A 
BRANCH  28   3
ATOM      3  O   UNL     1       6.787  -0.790  22.804  0.00  0.00    -0.495 OA
ATOM     29  C   UNL     1       7.779   0.009  23.447  0.00  0.00    +0.277 C 
ENDBRANCH  28   3
ENDBRANCH  19  21
ENDBRANCH  13  15
ENDBRANCH   9  13
BRANCH   8  14
ATOM     14  C   UNL     1      -4.616  -0.004  25.281  0.00  0.00    +0.099 C 
BRANCH  14  16
ATOM      1  O   UNL     1      -6.445   1.455  24.664  0.00  0.00    -0.276 OA
ATOM      5  N   UNL     1      -4.392   2.380  25.241  0.00  0.00    -0.314 N 
ATOM     16  C   UNL     1      -5.277   1.333  25.022  0.00  0.00    +0.213 C 
ATOM     31  H   UNL     1      -3.445   2.174  25.545  0.00  0.00    +0.149 HD
BRANCH   5  18
ATOM     18  C   UNL     1      -4.754   3.768  25.068  0.00  0.00    +0.119 C 
BRANCH  18  20
ATOM     20  C   UNL     1      -3.599   4.569  24.486  0.00  0.00    +0.102 C 
BRANCH  20   7
ATOM      7  N   UNL     1      -2.365   4.269  25.197  0.00  0.00    -0.307 NA
ATOM     24  C   UNL     1      -1.382   5.337  25.001  0.00  0.00    +0.104 C 
ATOM     25  C   UNL     1      -2.624   4.077  26.626  0.00  0.00    +0.104 C 
ENDBRANCH  20   7
ENDBRANCH  18  20
ENDBRANCH   5  18
ENDBRANCH  14  16
ENDBRANCH   8  14
TORSDOF 9
ENDMDL
MODEL 2
REMARK VINA RESULT:      -0.9      1.725      4.462
REMARK  Name = 40777423
REMARK  12 active torsions:
REMARK  status: ('A' for Active; 'I' for Inactive)
REMARK    1  A    between atoms: O_3  and  C_28
REMARK    2  A    between atoms: O_3  and  C_29
REMARK    3  A    between atoms: N_5  and  C_18
REMARK    4  A    between atoms: N_7  and  C_20
REMARK    5  A    between atoms: N_7  and  C_24
REMARK    6  A    between atoms: N_7  and  C_25
REMARK    7  A    between atoms: C_8  and  C_14
REMARK    8  A    between atoms: C_9  and  C_13
REMARK    9  A    between atoms: C_13  and  C_15
REMARK   10  A    between atoms: C_14  and  C_16
REMARK   11  A    between atoms: C_18  and  C_20
REMARK   12  A    between atoms: C_19  and  C_21
REMARK                            x       y       z     vdW  Elec       q    Type
REMARK                         _______ _______ _______ _____ _____    ______ ____
ROOT
ATOM      4  N   UNL     1      -6.571   3.779  26.029  0.00  0.00    -0.316 NA
ATOM      8  C   UNL     1      -4.197   2.164  25.350  0.00  0.00    +0.004 C 
ATOM      9  C   UNL     1      -4.113   3.670  25.695  0.00  0.00    +0.012 C 
ATOM     10  C   UNL     1      -5.463   1.572  25.991  0.00  0.00    +0.019 C 
ATOM     11  C   UNL     1      -5.424   4.402  25.367  0.00  0.00    +0.085 C 
ATOM     12  C   UNL     1      -6.718   2.374  25.654  0.00  0.00    +0.081 C 
ATOM     30  H   UNL     1      -7.421   4.286  25.781  0.00  0.00    +0.122 HD
ENDROOT
BRANCH   9  13
ATOM     13  C   UNL     1      -2.926   4.371  25.034  0.00  0.00    +0.064 C 
BRANCH  13  15
ATOM      2  O   UNL     1      -0.147   2.188  25.725  0.00  0.00    -0.354 OA
ATOM      6  N   UNL     1      -1.247   2.940  26.119  0.00  0.00    -0.083 NA
ATOM     15  C   UNL     1      -1.718   3.480  24.991  0.00  0.00    +0.085 A 
ATOM     17  C   UNL     1      -0.963   3.108  23.866  0.00  0.00    +0.076 A 
ATOM     19  C   UNL     1       0.012   2.295  24.381  0.00  0.00    +0.167 A 
BRANCH  19  21
ATOM     21  C   UNL     1       1.116   1.568  23.826  0.00  0.00    +0.020 A 
ATOM     22  C   UNL     1       0.988   0.206  23.553  0.00  0.00    +0.015 A 
ATOM     23  C   UNL     1       2.318   2.222  23.559  0.00  0.00    +0.015 A 
ATOM     26  C   UNL     1       2.062  -0.501  23.013  0.00  0.00    +0.046 A 
ATOM     27  C   UNL     1       3.393   1.515  23.019  0.00  0.00    +0.046 A 
ATOM     28  C   UNL     1       3.264   0.153  22.746  0.00  0.00    +0.120 A 
BRANCH  28   3
ATOM      3  O   UNL     1       4.312  -0.536  22.217  0.00  0.00    -0.495 OA
ATOM     29  C   UNL     1       5.581  -0.374  22.848  0.00  0.00    +0.277 C 
ENDBRANCH  28   3
ENDBRANCH  19  21
ENDBRANCH  13  15
ENDBRANCH   9  13
BRANCH   8  14
ATOM     14  C   UNL     1      -4.157   1.866  23.846  0.00  0.00    +0.099 C 
BRANCH  14  16
ATOM      1  O   UNL     1      -2.496   0.382  22.902  0.00  0.00    -0.276 OA
ATOM      5  N   UNL     1      -4.283  -0.513  24.089  0.00  0.00    -0.314 N 
ATOM     16  C   UNL     1      -3.532   0.520  23.546  0.00  0.00    +0.213 C 
ATOM     31  H   UNL     1      -5.124  -0.293  24.614  0.00  0.00    +0.149 HD
BRANCH   5  18
ATOM     18  C   UNL     1      -3.921  -1.906  23.955  0.00  0.00    +0.119 C 
BRANCH  18  20
ATOM     20  C   UNL     1      -3.412  -2.471  25.273  0.00  0.00    +0.102 C 
BRANCH  20   7
ATOM      7  N   UNL     1      -1.958  -2.393  25.329  0.00  0.00    -0.307 NA
ATOM     24  C   UNL     1      -1.379  -2.567  23.995  0.00  0.00    +0.104 C 
ATOM     25  C   UNL     1      -1.531  -1.115  25.904  0.00  0.00    +0.104 C 
ENDBRANCH  20   7
ENDBRANCH  18  20
ENDBRANCH   5  18
ENDBRANCH  14  16
ENDBRANCH   8  14
TORSDOF 9
ENDMDL
MODEL 3
REMARK VINA RESULT:      -0.7      1.315      4.021
REMARK  Name = 40777423
REMARK  12 active torsions:
REMARK  status: ('A' for Active; 'I' for Inactive)
REMARK    1  A    between atoms: O_3  and  C_28
REMARK    2  A    between atoms: O_3  and  C_29
REMARK    3  A    between atoms: N_5  and  C_18
REMARK    4  A    between atoms: N_7  and  C_20
REMARK    5  A    between atoms: N_7  and  C_24
REMARK    6  A    between atoms: N_7  and  C_25
REMARK    7  A    between atoms: C_8  and  C_14
REMARK    8  A    between atoms: C_9  and  C_13
REMARK    9  A    between atoms: C_13  and  C_15
REMARK   10  A    between atoms: C_14  and  C_16
REMARK   11  A    between atoms: C_18  and  C_20
REMARK   12  A    between atoms: C_19  and  C_21
REMARK                            x       y       z     vdW  Elec       q    Type
REMARK                         _______ _______ _______ _____ _____    ______ ____
ROOT
ATOM      4  N   UNL     1      -1.340   5.351  25.004  0.00  0.00    -0.316 NA
ATOM      8  C   UNL     1      -2.933   2.900  25.407  0.00  0.00    +0.004 C 
ATOM      9  C   UNL     1      -1.714   2.959  24.456  0.00  0.00    +0.012 C 
ATOM     10  C   UNL     1      -2.788   3.995  26.476  0.00  0.00    +0.019 C 
ATOM     11  C   UNL     1      -1.481   4.380  23.918  0.00  0.00    +0.085 C 
ATOM     12  C   UNL     1      -2.517   5.372  25.870  0.00  0.00    +0.081 C 
ATOM     30  H   UNL     1      -1.196   6.281  24.609  0.00  0.00    +0.122 HD
ENDROOT
BRANCH   9  13
ATOM     13  C   UNL     1      -1.804   1.957  23.304  0.00  0.00    +0.064 C 
BRANCH  13  15
ATOM      2  O   UNL     1       0.826  -0.348  22.447  0.00  0.00    -0.354 OA
ATOM      6  N   UNL     1      -0.492   0.090  22.392  0.00  0.00    -0.083 NA
ATOM     15  C   UNL     1      -0.519   1.200  23.135  0.00  0.00    +0.085 A 
ATOM     17  C   UNL     1       0.740   1.508  23.679  0.00  0.00    +0.076 A 
ATOM     19  C   UNL     1       1.549   0.505  23.216  0.00  0.00    +0.167 A 
BRANCH  19  21
ATOM     21  C   UNL     1       2.938   0.180  23.367  0.00  0.00    +0.020 A 
ATOM     22  C   UNL     1       3.911   1.154  23.143  0.00  0.00    +0.015 A 
ATOM     23  C   UNL     1       3.315  -1.110  23.737  0.00  0.00    +0.015 A 
ATOM     26  C   UNL     1       5.261   0.837  23.290  0.00  0.00    +0.046 A 
ATOM     27  C   UNL     1       4.666  -1.428  23.884  0.00  0.00    +0.046 A 
ATOM     28  C   UNL     1       5.639  -0.453  23.661  0.00  0.00    +0.120 A 
BRANCH  28   3
ATOM      3  O   UNL     1       6.957  -0.762  23.806  0.00  0.00    -0.495 OA
ATOM     29  C   UNL     1       7.786  -0.627  22.653  0.00  0.00    +0.277 C 
ENDBRANCH  28   3
ENDBRANCH  19  21
ENDBRANCH  13  15
ENDBRANCH   9  13
BRANCH   8  14
ATOM     14  C   UNL     1      -4.287   3.011  24.694  0.00  0.00    +0.099 C 
BRANCH  14  16
ATOM      1  O   UNL     1      -6.271   1.633  24.817  0.00  0.00    -0.276 OA
ATOM      5  N   UNL     1      -4.191   0.621  24.595  0.00  0.00    -0.314 N 
ATOM     16  C   UNL     1      -5.051   1.704  24.711  0.00  0.00    +0.213 C 
ATOM     31  H   UNL     1      -3.193   0.785  24.504  0.00  0.00    +0.149 HD
BRANCH   5  18
ATOM     18  C   UNL     1      -4.648  -0.751  24.584  0.00  0.00    +0.119 C 
BRANCH  18  20
ATOM     20  C   UNL     1      -3.670  -1.661  25.312  0.00  0.00    +0.102 C 
BRANCH  20   7
ATOM      7  N   UNL     1      -2.305  -1.377  24.894  0.00  0.00    -0.307 NA
ATOM     24  C   UNL     1      -1.523  -0.841  26.010  0.00  0.00    +0.104 C 
ATOM     25  C   UNL     1      -1.665  -2.582  24.360  0.00  0.00    +0.104 C 
ENDBRANCH  20   7
ENDBRANCH  18  20
ENDBRANCH   5  18
ENDBRANCH  14  16
ENDBRANCH   8  14
TORSDOF 9
ENDMDL
MODEL 4
REMARK VINA RESULT:      -0.6      2.624      4.401
REMARK  Name = 40777423
REMARK  12 active torsions:
REMARK  status: ('A' for Active; 'I' for Inactive)
REMARK    1  A    between atoms: O_3  and  C_28
REMARK    2  A    between atoms: O_3  and  C_29
REMARK    3  A    between atoms: N_5  and  C_18
REMARK    4  A    between atoms: N_7  and  C_20
REMARK    5  A    between atoms: N_7  and  C_24
REMARK    6  A    between atoms: N_7  and  C_25
REMARK    7  A    between atoms: C_8  and  C_14
REMARK    8  A    between atoms: C_9  and  C_13
REMARK    9  A    between atoms: C_13  and  C_15
REMARK   10  A    between atoms: C_14  and  C_16
REMARK   11  A    between atoms: C_18  and  C_20
REMARK   12  A    between atoms: C_19  and  C_21
REMARK                            x       y       z     vdW  Elec       q    Type
REMARK                         _______ _______ _______ _____ _____    ______ ____
ROOT
ATOM      4  N   UNL     1      -6.569   3.213  25.071  0.00  0.00    -0.316 NA
ATOM      8  C   UNL     1      -3.712   2.569  24.708  0.00  0.00    +0.004 C 
ATOM      9  C   UNL     1      -4.840   1.539  24.460  0.00  0.00    +0.012 C 
ATOM     10  C   UNL     1      -4.283   3.987  24.544  0.00  0.00    +0.019 C 
ATOM     11  C   UNL     1      -6.088   1.851  25.301  0.00  0.00    +0.085 C 
ATOM     12  C   UNL     1      -5.544   4.210  25.377  0.00  0.00    +0.081 C 
ATOM     30  H   UNL     1      -7.390   3.385  25.651  0.00  0.00    +0.122 HD
ENDROOT
BRANCH   9  13
ATOM     13  C   UNL     1      -4.391   0.094  24.679  0.00  0.00    +0.064 C 
BRANCH  13  15
ATOM      2  O   UNL     1      -0.908  -0.587  25.291  0.00  0.00    -0.354 OA
ATOM      6  N   UNL     1      -2.254  -0.661  25.631  0.00  0.00    -0.083 NA
ATOM     15  C   UNL     1      -2.895  -0.026  24.645  0.00  0.00    +0.085 A 
ATOM     17  C   UNL     1      -2.014   0.464  23.666  0.00  0.00    +0.076 A 
ATOM     19  C   UNL     1      -0.778   0.084  24.119  0.00  0.00    +0.167 A 
BRANCH  19  21
ATOM     21  C   UNL     1       0.564   0.241  23.638  0.00  0.00    +0.020 A 
ATOM     22  C   UNL     1       1.206   1.474  23.750  0.00  0.00    +0.015 A 
ATOM     23  C   UNL     1       1.226  -0.841  23.058  0.00  0.00    +0.015 A 
ATOM     26  C   UNL     1       2.511   1.625  23.282  0.00  0.00    +0.046 A 
ATOM     27  C   UNL     1       2.532  -0.690  22.590  0.00  0.00    +0.046 A 
ATOM     28  C   UNL     1       3.174   0.544  22.702  0.00  0.00    +0.120 A 
BRANCH  28   3
ATOM      3  O   UNL     1       4.448   0.691  22.248  0.00  0.00    -0.495 OA
ATOM     29  C   UNL     1       5.494   0.169  23.066  0.00  0.00    +0.277 C 
ENDBRANCH  28   3
ENDBRANCH  19  21
ENDBRANCH  13  15
ENDBRANCH   9  13
BRANCH   8  14
ATOM     14  C   UNL     1      -3.015   2.416  26.065  0.00  0.00    +0.099 C 
BRANCH  14  16
ATOM      1  O   UNL     1      -1.370   4.125  25.593  0.00  0.00    -0.276 OA
ATOM      5  N   UNL     1      -0.711   2.174  26.670  0.00  0.00    -0.314 N 
ATOM     16  C   UNL     1      -1.628   3.024  26.068  0.00  0.00    +0.213 C 
ATOM     31  H   UNL     1      -1.027   1.283  27.041  0.00  0.00    +0.149 HD
BRANCH   5  18
ATOM     18  C   UNL     1       0.691   2.499  26.810  0.00  0.00    +0.119 C 
BRANCH  18  20
ATOM     20  C   UNL     1       0.988   3.075  28.186  0.00  0.00    +0.102 C 
BRANCH  20   7
ATOM      7  N   UNL     1       2.052   2.320  28.833  0.00  0.00    -0.307 NA
ATOM     24  C   UNL     1       3.330   3.025  28.716  0.00  0.00    +0.104 C 
ATOM     25  C   UNL     1       1.733   2.081  30.243  0.00  0.00    +0.104 C 
ENDBRANCH  20   7
ENDBRANCH  18  20
ENDBRANCH   5  18
ENDBRANCH  14  16
ENDBRANCH   8  14
TORSDOF 9
ENDMDL
MODEL 5
REMARK VINA RESULT:      -0.2     15.113     18.100
REMARK  Name = 40777423
REMARK  12 active torsions:
REMARK  status: ('A' for Active; 'I' for Inactive)
REMARK    1  A    between atoms: O_3  and  C_28
REMARK    2  A    between atoms: O_3  and  C_29
REMARK    3  A    between atoms: N_5  and  C_18
REMARK    4  A    between atoms: N_7  and  C_20
REMARK    5  A    between atoms: N_7  and  C_24
REMARK    6  A    between atoms: N_7  and  C_25
REMARK    7  A    between atoms: C_8  and  C_14
REMARK    8  A    between atoms: C_9  and  C_13
REMARK    9  A    between atoms: C_13  and  C_15
REMARK   10  A    between atoms: C_14  and  C_16
REMARK   11  A    between atoms: C_18  and  C_20
REMARK   12  A    between atoms: C_19  and  C_21
REMARK                            x       y       z     vdW  Elec       q    Type
REMARK                         _______ _______ _______ _____ _____    ______ ____
ROOT
ATOM      4  N   UNL     1      -0.112  -8.953  14.324  0.00  0.00    -0.316 NA
ATOM      8  C   UNL     1      -2.190 -10.412  12.821  0.00  0.00    +0.004 C 
ATOM      9  C   UNL     1      -1.020  -9.673  12.129  0.00  0.00    +0.012 C 
ATOM     10  C   UNL     1      -1.772 -10.780  14.254  0.00  0.00    +0.019 C 
ATOM     11  C   UNL     1      -0.498  -8.508  12.985  0.00  0.00    +0.085 C 
ATOM     12  C   UNL     1      -1.226  -9.583  15.030  0.00  0.00    +0.081 C 
ATOM     30  H   UNL     1       0.220  -8.153  14.863  0.00  0.00    +0.122 HD
ENDROOT
BRANCH   9  13
ATOM     13  C   UNL     1      -1.367  -9.191  10.719  0.00  0.00    +0.064 C 
BRANCH  13  15
ATOM      2  O   UNL     1      -4.551 -10.726  10.035  0.00  0.00    -0.354 OA
ATOM      6  N   UNL     1      -3.217 -10.781  10.421  0.00  0.00    -0.083 NA
ATOM     15  C   UNL     1      -2.788  -9.516  10.363  0.00  0.00    +0.085 A 
ATOM     17  C   UNL     1      -3.797  -8.630   9.950  0.00  0.00    +0.076 A 
ATOM     19  C   UNL     1      -4.885  -9.440   9.758  0.00  0.00    +0.167 A 
BRANCH  19  21
ATOM     21  C   UNL     1      -6.240  -9.226   9.342  0.00  0.00    +0.020 A 
ATOM     22  C   UNL     1      -6.877 -10.162   8.528  0.00  0.00    +0.015 A 
ATOM     23  C   UNL     1      -6.922  -8.080   9.752  0.00  0.00    +0.015 A 
ATOM     26  C   UNL     1      -8.195  -9.954   8.124  0.00  0.00    +0.046 A 
ATOM     27  C   UNL     1      -8.241  -7.871   9.349  0.00  0.00    +0.046 A 
ATOM     28  C   UNL     1      -8.878  -8.808   8.534  0.00  0.00    +0.120 A 
BRANCH  28   3
ATOM      3  O   UNL     1     -10.165  -8.606   8.142  0.00  0.00    -0.495 OA
ATOM     29  C   UNL     1     -10.686  -7.285   8.281  0.00  0.00    +0.277 C 
ENDBRANCH  28   3
ENDBRANCH  19  21
ENDBRANCH  13  15
ENDBRANCH   9  13
BRANCH   8  14
ATOM     14  C   UNL     1      -3.509  -9.630  12.822  0.00  0.00    +0.099 C 
BRANCH  14  16
ATOM      1  O   UNL     1      -4.234 -10.656  14.889  0.00  0.00    -0.276 OA
ATOM      5  N   UNL     1      -5.798 -10.197  13.233  0.00  0.00    -0.314 N 
ATOM     16  C   UNL     1      -4.523 -10.219  13.779  0.00  0.00    +0.213 C 
ATOM     31  H   UNL     1      -5.935  -9.805  12.305  0.00  0.00    +0.149 HD
BRANCH   5  18
ATOM     18  C   UNL     1      -6.963 -10.699  13.926  0.00  0.00    +0.119 C 
BRANCH  18  20
ATOM     20  C   UNL     1      -7.783  -9.563  14.519  0.00  0.00    +0.102 C 
BRANCH  20   7
ATOM      7  N   UNL     1      -8.368  -9.970  15.789  0.00  0.00    -0.307 NA
ATOM     24  C   UNL     1      -7.591  -9.438  16.910  0.00  0.00    +0.104 C 
ATOM     25  C   UNL     1      -9.761  -9.526  15.883  0.00  0.00    +0.104 C 
ENDBRANCH  20   7
ENDBRANCH  18  20
ENDBRANCH   5  18
ENDBRANCH  14  16
ENDBRANCH   8  14
TORSDOF 9
ENDMDL
MODEL 6
REMARK VINA RESULT:       1.1      1.392      1.714
REMARK  Name = 40777423
REMARK  12 active torsions:
REMARK  status: ('A' for Active; 'I' for Inactive)
REMARK    1  A    between atoms: O_3  and  C_28
REMARK    2  A    between atoms: O_3  and  C_29
REMARK    3  A    between atoms: N_5  and  C_18
REMARK    4  A    between atoms: N_7  and  C_20
REMARK    5  A    between atoms: N_7  and  C_24
REMARK    6  A    between atoms: N_7  and  C_25
REMARK    7  A    between atoms: C_8  and  C_14
REMARK    8  A    between atoms: C_9  and  C_13
REMARK    9  A    between atoms: C_13  and  C_15
REMARK   10  A    between atoms: C_14  and  C_16
REMARK   11  A    between atoms: C_18  and  C_20
REMARK   12  A    between atoms: C_19  and  C_21
REMARK                            x       y       z     vdW  Elec       q    Type
REMARK                         _______ _______ _______ _____ _____    ______ ____
ROOT
ATOM      4  N   UNL     1      -2.597  -2.775  24.869  0.00  0.00    -0.316 NA
ATOM      8  C   UNL     1      -3.922  -0.383  23.759  0.00  0.00    +0.004 C 
ATOM      9  C   UNL     1      -2.404  -0.645  23.610  0.00  0.00    +0.012 C 
ATOM     10  C   UNL     1      -4.643  -1.725  23.967  0.00  0.00    +0.019 C 
ATOM     11  C   UNL     1      -1.862  -1.516  24.755  0.00  0.00    +0.085 C 
ATOM     12  C   UNL     1      -4.025  -2.553  25.093  0.00  0.00    +0.081 C 
ATOM     30  H   UNL     1      -2.216  -3.320  25.643  0.00  0.00    +0.122 HD
ENDROOT
BRANCH   9  13
ATOM     13  C   UNL     1      -1.585   0.640  23.478  0.00  0.00    +0.064 C 
BRANCH  13  15
ATOM      2  O   UNL     1       1.542  -0.199  21.901  0.00  0.00    -0.354 OA
ATOM      6  N   UNL     1       0.166  -0.000  21.877  0.00  0.00    -0.083 NA
ATOM     15  C   UNL     1      -0.156   0.345  23.127  0.00  0.00    +0.085 A 
ATOM     17  C   UNL     1       0.964   0.380  23.975  0.00  0.00    +0.076 A 
ATOM     19  C   UNL     1       2.005   0.031  23.156  0.00  0.00    +0.167 A 
BRANCH  19  21
ATOM     21  C   UNL     1       3.418  -0.137  23.336  0.00  0.00    +0.020 A 
ATOM     22  C   UNL     1       3.927  -1.365  23.759  0.00  0.00    +0.015 A 
ATOM     23  C   UNL     1       4.283   0.929  23.090  0.00  0.00    +0.015 A 
ATOM     26  C   UNL     1       5.300  -1.527  23.934  0.00  0.00    +0.046 A 
ATOM     27  C   UNL     1       5.658   0.767  23.265  0.00  0.00    +0.046 A 
ATOM     28  C   UNL     1       6.167  -0.462  23.688  0.00  0.00    +0.120 A 
BRANCH  28   3
ATOM      3  O   UNL     1       7.507  -0.621  23.857  0.00  0.00    -0.495 OA
ATOM     29  C   UNL     1       8.363   0.236  23.103  0.00  0.00    +0.277 C 
ENDBRANCH  28   3
ENDBRANCH  19  21
ENDBRANCH  13  15
ENDBRANCH   9  13
BRANCH   8  14
ATOM     14  C   UNL     1      -4.277   0.606  24.876  0.00  0.00    +0.099 C 
BRANCH  14  16
ATOM      1  O   UNL     1      -4.248   2.447  23.307  0.00  0.00    -0.276 OA
ATOM      5  N   UNL     1      -3.659   2.826  25.523  0.00  0.00    -0.314 N 
ATOM     16  C   UNL     1      -4.071   2.044  24.453  0.00  0.00    +0.213 C 
ATOM     31  H   UNL     1      -3.549   2.398  26.438  0.00  0.00    +0.149 HD
BRANCH   5  18
ATOM     18  C   UNL     1      -3.384   4.240  25.407  0.00  0.00    +0.119 C 
BRANCH  18  20
ATOM     20  C   UNL     1      -1.935   4.550  25.751  0.00  0.00    +0.102 C 
BRANCH  20   7
ATOM      7  N   UNL     1      -1.051   3.555  25.159  0.00  0.00    -0.307 NA
ATOM     24  C   UNL     1      -0.175   4.171  24.160  0.00  0.00    +0.104 C 
ATOM     25  C   UNL     1      -0.251   2.893  26.193  0.00  0.00    +0.104 C 
ENDBRANCH  20   7
ENDBRANCH  18  20
ENDBRANCH   5  18
ENDBRANCH  14  16
ENDBRANCH   8  14
TORSDOF 9
ENDMDL
