MODEL 1
REMARK VINA RESULT:      -0.5      0.000      0.000
REMARK  Name = 11865833
REMARK  13 active torsions:
REMARK  status: ('A' for Active; 'I' for Inactive)
REMARK    1  A    between atoms: N_7  and  C_12
REMARK    2  A    between atoms: N_8  and  C_22
REMARK    3  A    between atoms: N_9  and  C_27
REMARK    4  A    between atoms: C_11  and  C_16
REMARK    5  A    between atoms: C_15  and  C_17
REMARK    6  A    between atoms: C_17  and  C_18
REMARK    7  A    between atoms: C_18  and  C_19
REMARK    8  A    between atoms: C_18  and  C_20
REMARK    9  A    between atoms: C_18  and  C_21
REMARK   10  A    between atoms: C_22  and  C_24
REMARK   11  A    between atoms: C_22  and  C_25
REMARK   12  A    between atoms: C_24  and  C_26
REMARK   13  A    between atoms: C_27  and  C_29
REMARK                            x       y       z     vdW  Elec       q    Type
REMARK                         _______ _______ _______ _____ _____    ______ ____
ROOT
ATOM      2  O   UNL     1      -1.535   0.164  26.275  0.00  0.00    -0.276 OA
ATOM      6  N   UNL     1      -0.375   0.050  24.275  0.00  0.00    -0.288 N 
ATOM     11  C   UNL     1       0.162   1.406  24.318  0.00  0.00    +0.182 C 
ATOM     12  C   UNL     1       1.262   1.430  23.258  0.00  0.00    +0.105 C 
ATOM     13  C   UNL     1       0.810   0.368  22.251  0.00  0.00    +0.043 C 
ATOM     14  C   UNL     1       0.124  -0.682  23.114  0.00  0.00    +0.110 C 
ATOM     15  C   UNL     1      -1.129  -0.484  25.308  0.00  0.00    +0.217 C 
ENDROOT
BRANCH  12   7
ATOM      4  O   UNL     1       3.661   0.683  21.840  0.00  0.00    -0.253 OA
ATOM      7  N   UNL     1       2.544   1.096  23.832  0.00  0.00    -0.294 N 
ATOM      9  N   UNL     1       4.757   0.474  23.874  0.00  0.00    -0.296 N 
ATOM     23  C   UNL     1       3.654   0.745  23.069  0.00  0.00    +0.300 C 
ATOM     33  H   UNL     1       2.662   1.182  24.838  0.00  0.00    +0.151 HD
ATOM     35  H   UNL     1       4.662   0.571  24.881  0.00  0.00    +0.151 HD
BRANCH   9  27
ATOM     27  C   UNL     1       6.041   0.085  23.339  0.00  0.00    +0.132 C 
BRANCH  27  29
ATOM     29  C   UNL     1       6.188  -1.396  23.453  0.00  0.00    -0.016 C 
ATOM     32  C   UNL     1       5.215  -2.211  23.878  0.00  0.00    +0.005 C 
ENDBRANCH  27  29
ENDBRANCH   9  27
ENDBRANCH  12   7
BRANCH  11  16
ATOM      3  O   UNL     1      -1.525   2.269  22.866  0.00  0.00    -0.274 OA
ATOM      8  N   UNL     1      -1.261   3.217  24.976  0.00  0.00    -0.302 N 
ATOM     16  C   UNL     1      -0.967   2.325  23.959  0.00  0.00    +0.236 C 
ATOM     34  H   UNL     1      -0.676   3.223  25.807  0.00  0.00    +0.150 HD
BRANCH   8  22
ATOM     22  C   UNL     1      -2.293   4.224  24.871  0.00  0.00    +0.163 C 
BRANCH  22  25
ATOM      5  O   UNL     1      -2.179   6.604  25.347  0.00  0.00    -0.274 OA
ATOM     10  N   UNL     1      -0.266   5.526  24.672  0.00  0.00    -0.328 N 
ATOM     25  C   UNL     1      -1.609   5.579  24.980  0.00  0.00    +0.231 C 
ATOM     36  H   UNL     1       0.311   6.358  24.720  0.00  0.00    +0.145 HD
ATOM     37  H   UNL     1       0.192   4.671  24.374  0.00  0.00    +0.145 HD
ENDBRANCH  22  25
BRANCH  22  24
ATOM     24  C   UNL     1      -3.363   4.075  25.959  0.00  0.00    +0.074 C 
BRANCH  24  26
ATOM      1  S   UNL     1      -6.081   3.533  25.686  0.00  0.00    -0.102 S 
ATOM     26  C   UNL     1      -4.434   3.079  25.580  0.00  0.00    -0.008 A 
ATOM     28  C   UNL     1      -4.281   1.784  25.138  0.00  0.00    +0.011 A 
ATOM     30  C   UNL     1      -5.533   1.156  24.881  0.00  0.00    +0.008 A 
ATOM     31  C   UNL     1      -6.596   1.995  25.137  0.00  0.00    +0.045 A 
ENDBRANCH  24  26
ENDBRANCH  22  24
ENDBRANCH   8  22
ENDBRANCH  11  16
BRANCH  15  17
ATOM     17  C   UNL     1      -1.454  -1.952  25.186  0.00  0.00    +0.102 C 
BRANCH  17  18
ATOM     18  C   UNL     1      -2.949  -2.216  24.938  0.00  0.00    -0.029 C 
ATOM     19  C   UNL     1      -3.459  -1.423  23.723  0.00  0.00    +0.011 C 
ATOM     20  C   UNL     1      -3.221  -3.714  24.721  0.00  0.00    +0.011 C 
ATOM     21  C   UNL     1      -3.724  -1.753  26.186  0.00  0.00    +0.011 C 
ENDBRANCH  17  18
ENDBRANCH  15  17
TORSDOF 10
ENDMDL
MODEL 2
REMARK VINA RESULT:      -0.0      2.721      4.145
REMARK  Name = 11865833
REMARK  13 active torsions:
REMARK  status: ('A' for Active; 'I' for Inactive)
REMARK    1  A    between atoms: N_7  and  C_12
REMARK    2  A    between atoms: N_8  and  C_22
REMARK    3  A    between atoms: N_9  and  C_27
REMARK    4  A    between atoms: C_11  and  C_16
REMARK    5  A    between atoms: C_15  and  C_17
REMARK    6  A    between atoms: C_17  and  C_18
REMARK    7  A    between atoms: C_18  and  C_19
REMARK    8  A    between atoms: C_18  and  C_20
REMARK    9  A    between atoms: C_18  and  C_21
REMARK   10  A    between atoms: C_22  and  C_24
REMARK   11  A    between atoms: C_22  and  C_25
REMARK   12  A    between atoms: C_24  and  C_26
REMARK   13  A    between atoms: C_27  and  C_29
REMARK                            x       y       z     vdW  Elec       q    Type
REMARK                         _______ _______ _______ _____ _____    ______ ____
ROOT
ATOM      2  O   UNL     1       0.289   3.396  26.537  0.00  0.00    -0.276 OA
ATOM      6  N   UNL     1      -0.224   1.261  25.802  0.00  0.00    -0.288 N 
ATOM     11  C   UNL     1      -0.250   1.578  24.378  0.00  0.00    +0.182 C 
ATOM     12  C   UNL     1      -0.219   0.224  23.670  0.00  0.00    +0.105 C 
ATOM     13  C   UNL     1      -0.869  -0.723  24.684  0.00  0.00    +0.043 C 
ATOM     14  C   UNL     1      -0.433  -0.166  26.033  0.00  0.00    +0.110 C 
ATOM     15  C   UNL     1       0.119   2.196  26.766  0.00  0.00    +0.217 C 
ENDROOT
BRANCH  12   7
ATOM      4  O   UNL     1       2.070   1.949  23.350  0.00  0.00    -0.253 OA
ATOM      7  N   UNL     1       1.136  -0.175  23.373  0.00  0.00    -0.294 N 
ATOM      9  N   UNL     1       3.381   0.078  22.951  0.00  0.00    -0.296 N 
ATOM     23  C   UNL     1       2.185   0.730  23.235  0.00  0.00    +0.300 C 
ATOM     33  H   UNL     1       1.350  -1.167  23.324  0.00  0.00    +0.151 HD
ATOM     35  H   UNL     1       3.383  -0.936  22.894  0.00  0.00    +0.151 HD
BRANCH   9  27
ATOM     27  C   UNL     1       4.629   0.780  22.758  0.00  0.00    +0.132 C 
BRANCH  27  29
ATOM     29  C   UNL     1       5.701   0.092  23.537  0.00  0.00    -0.016 C 
ATOM     32  C   UNL     1       5.477  -0.931  24.371  0.00  0.00    +0.005 C 
ENDBRANCH  27  29
ENDBRANCH   9  27
ENDBRANCH  12   7
BRANCH  11  16
ATOM      3  O   UNL     1      -1.588   3.314  23.432  0.00  0.00    -0.274 OA
ATOM      8  N   UNL     1      -2.610   1.706  24.769  0.00  0.00    -0.302 N 
ATOM     16  C   UNL     1      -1.539   2.301  24.125  0.00  0.00    +0.236 C 
ATOM     34  H   UNL     1      -2.435   0.915  25.383  0.00  0.00    +0.150 HD
BRANCH   8  22
ATOM     22  C   UNL     1      -3.958   2.223  24.704  0.00  0.00    +0.163 C 
BRANCH  22  25
ATOM      5  O   UNL     1      -3.066   3.857  26.266  0.00  0.00    -0.274 OA
ATOM     10  N   UNL     1      -5.314   3.901  25.794  0.00  0.00    -0.328 N 
ATOM     25  C   UNL     1      -4.039   3.389  25.678  0.00  0.00    +0.231 C 
ATOM     36  H   UNL     1      -5.504   4.691  26.401  0.00  0.00    +0.145 HD
ATOM     37  H   UNL     1      -6.108   3.507  25.300  0.00  0.00    +0.145 HD
ENDBRANCH  22  25
BRANCH  22  24
ATOM     24  C   UNL     1      -5.006   1.160  25.054  0.00  0.00    +0.074 C 
BRANCH  24  26
ATOM      1  S   UNL     1      -3.791  -1.085  26.169  0.00  0.00    -0.102 S 
ATOM     26  C   UNL     1      -4.489  -0.245  24.851  0.00  0.00    -0.008 A 
ATOM     28  C   UNL     1      -4.491  -1.001  23.698  0.00  0.00    +0.011 A 
ATOM     30  C   UNL     1      -3.913  -2.286  23.901  0.00  0.00    +0.008 A 
ATOM     31  C   UNL     1      -3.490  -2.465  25.200  0.00  0.00    +0.045 A 
ENDBRANCH  24  26
ENDBRANCH  22  24
ENDBRANCH   8  22
ENDBRANCH  11  16
BRANCH  15  17
ATOM     17  C   UNL     1       0.272   1.661  28.168  0.00  0.00    +0.102 C 
BRANCH  17  18
ATOM     18  C   UNL     1       1.276   2.467  29.010  0.00  0.00    -0.029 C 
ATOM     19  C   UNL     1       2.134   1.542  29.889  0.00  0.00    +0.011 C 
ATOM     20  C   UNL     1       2.195   3.318  28.115  0.00  0.00    +0.011 C 
ATOM     21  C   UNL     1       0.475   3.410  29.927  0.00  0.00    +0.011 C 
ENDBRANCH  17  18
ENDBRANCH  15  17
TORSDOF 10
ENDMDL
MODEL 3
REMARK VINA RESULT:       0.1      1.561      2.046
REMARK  Name = 11865833
REMARK  13 active torsions:
REMARK  status: ('A' for Active; 'I' for Inactive)
REMARK    1  A    between atoms: N_7  and  C_12
REMARK    2  A    between atoms: N_8  and  C_22
REMARK    3  A    between atoms: N_9  and  C_27
REMARK    4  A    between atoms: C_11  and  C_16
REMARK    5  A    between atoms: C_15  and  C_17
REMARK    6  A    between atoms: C_17  and  C_18
REMARK    7  A    between atoms: C_18  and  C_19
REMARK    8  A    between atoms: C_18  and  C_20
REMARK    9  A    between atoms: C_18  and  C_21
REMARK   10  A    between atoms: C_22  and  C_24
REMARK   11  A    between atoms: C_22  and  C_25
REMARK   12  A    between atoms: C_24  and  C_26
REMARK   13  A    between atoms: C_27  and  C_29
REMARK                            x       y       z     vdW  Elec       q    Type
REMARK                         _______ _______ _______ _____ _____    ______ ____
ROOT
ATOM      2  O   UNL     1      -0.846  -0.411  25.926  0.00  0.00    -0.276 OA
ATOM      6  N   UNL     1       0.068  -0.511  23.801  0.00  0.00    -0.288 N 
ATOM     11  C   UNL     1       1.071   0.529  24.004  0.00  0.00    +0.182 C 
ATOM     12  C   UNL     1       2.036   0.383  22.828  0.00  0.00    +0.105 C 
ATOM     13  C   UNL     1       1.163  -0.220  21.723  0.00  0.00    +0.043 C 
ATOM     14  C   UNL     1       0.190  -1.115  22.478  0.00  0.00    +0.110 C 
ATOM     15  C   UNL     1      -0.767  -0.946  24.818  0.00  0.00    +0.217 C 
ENDROOT
BRANCH  12   7
ATOM      4  O   UNL     1       4.711   1.162  23.577  0.00  0.00    -0.253 OA
ATOM      7  N   UNL     1       3.135  -0.491  23.164  0.00  0.00    -0.294 N 
ATOM      9  N   UNL     1       5.267  -1.080  23.792  0.00  0.00    -0.296 N 
ATOM     23  C   UNL     1       4.400  -0.027  23.516  0.00  0.00    +0.300 C 
ATOM     33  H   UNL     1       2.963  -1.491  23.209  0.00  0.00    +0.151 HD
ATOM     35  H   UNL     1       4.914  -2.031  23.734  0.00  0.00    +0.151 HD
BRANCH   9  27
ATOM     27  C   UNL     1       6.643  -0.880  24.182  0.00  0.00    +0.132 C 
BRANCH  27  29
ATOM     29  C   UNL     1       7.454  -0.571  22.967  0.00  0.00    -0.016 C 
ATOM     32  C   UNL     1       8.749  -0.235  23.000  0.00  0.00    +0.005 C 
ENDBRANCH  27  29
ENDBRANCH   9  27
ENDBRANCH  12   7
BRANCH  11  16
ATOM      3  O   UNL     1       0.932   2.912  24.080  0.00  0.00    -0.274 OA
ATOM      8  N   UNL     1      -1.020   1.678  23.788  0.00  0.00    -0.302 N 
ATOM     16  C   UNL     1       0.344   1.840  23.957  0.00  0.00    +0.236 C 
ATOM     34  H   UNL     1      -1.405   0.737  23.779  0.00  0.00    +0.150 HD
BRANCH   8  22
ATOM     22  C   UNL     1      -1.947   2.786  23.734  0.00  0.00    +0.163 C 
BRANCH  22  25
ATOM      5  O   UNL     1      -2.183   2.817  26.152  0.00  0.00    -0.274 OA
ATOM     10  N   UNL     1      -1.626   4.769  25.077  0.00  0.00    -0.328 N 
ATOM     25  C   UNL     1      -1.955   3.430  25.112  0.00  0.00    +0.231 C 
ATOM     36  H   UNL     1      -1.580   5.315  25.930  0.00  0.00    +0.145 HD
ATOM     37  H   UNL     1      -1.436   5.262  24.211  0.00  0.00    +0.145 HD
ENDBRANCH  22  25
BRANCH  22  24
ATOM     24  C   UNL     1      -3.362   2.341  23.343  0.00  0.00    +0.074 C 
BRANCH  24  26
ATOM      1  S   UNL     1      -5.262   1.575  25.230  0.00  0.00    -0.102 S 
ATOM     26  C   UNL     1      -4.398   2.767  24.356  0.00  0.00    -0.008 A 
ATOM     28  C   UNL     1      -4.781   4.044  24.705  0.00  0.00    +0.011 A 
ATOM     30  C   UNL     1      -5.795   4.043  25.705  0.00  0.00    +0.008 A 
ATOM     31  C   UNL     1      -6.151   2.766  26.082  0.00  0.00    +0.045 A 
ENDBRANCH  24  26
ENDBRANCH  22  24
ENDBRANCH   8  22
ENDBRANCH  11  16
BRANCH  15  17
ATOM     17  C   UNL     1      -1.619  -2.147  24.492  0.00  0.00    +0.102 C 
BRANCH  17  18
ATOM     18  C   UNL     1      -3.126  -1.862  24.614  0.00  0.00    -0.029 C 
ATOM     19  C   UNL     1      -3.488  -1.380  26.029  0.00  0.00    +0.011 C 
ATOM     20  C   UNL     1      -3.578  -0.811  23.585  0.00  0.00    +0.011 C 
ATOM     21  C   UNL     1      -3.880  -3.176  24.336  0.00  0.00    +0.011 C 
ENDBRANCH  17  18
ENDBRANCH  15  17
TORSDOF 10
ENDMDL
MODEL 4
REMARK VINA RESULT:       1.5      1.527      2.142
REMARK  Name = 11865833
REMARK  13 active torsions:
REMARK  status: ('A' for Active; 'I' for Inactive)
REMARK    1  A    between atoms: N_7  and  C_12
REMARK    2  A    between atoms: N_8  and  C_22
REMARK    3  A    between atoms: N_9  and  C_27
REMARK    4  A    between atoms: C_11  and  C_16
REMARK    5  A    between atoms: C_15  and  C_17
REMARK    6  A    between atoms: C_17  and  C_18
REMARK    7  A    between atoms: C_18  and  C_19
REMARK    8  A    between atoms: C_18  and  C_20
REMARK    9  A    between atoms: C_18  and  C_21
REMARK   10  A    between atoms: C_22  and  C_24
REMARK   11  A    between atoms: C_22  and  C_25
REMARK   12  A    between atoms: C_24  and  C_26
REMARK   13  A    between atoms: C_27  and  C_29
REMARK                            x       y       z     vdW  Elec       q    Type
REMARK                         _______ _______ _______ _____ _____    ______ ____
ROOT
ATOM      2  O   UNL     1      -1.388   0.202  26.466  0.00  0.00    -0.276 OA
ATOM      6  N   UNL     1      -0.347   0.140  24.400  0.00  0.00    -0.288 N 
ATOM     11  C   UNL     1       0.042   1.546  24.367  0.00  0.00    +0.182 C 
ATOM     12  C   UNL     1       1.066   1.648  23.238  0.00  0.00    +0.105 C 
ATOM     13  C   UNL     1       0.671   0.508  22.294  0.00  0.00    +0.043 C 
ATOM     14  C   UNL     1       0.157  -0.577  23.231  0.00  0.00    +0.110 C 
ATOM     15  C   UNL     1      -0.974  -0.434  25.495  0.00  0.00    +0.217 C 
ENDROOT
BRANCH  12   7
ATOM      4  O   UNL     1       3.267   0.353  21.895  0.00  0.00    -0.253 OA
ATOM      7  N   UNL     1       2.409   1.474  23.738  0.00  0.00    -0.294 N 
ATOM      9  N   UNL     1       4.609   0.805  23.733  0.00  0.00    -0.296 N 
ATOM     23  C   UNL     1       3.414   0.833  23.018  0.00  0.00    +0.300 C 
ATOM     33  H   UNL     1       2.653   1.893  24.630  0.00  0.00    +0.151 HD
ATOM     35  H   UNL     1       4.641   1.245  24.647  0.00  0.00    +0.151 HD
BRANCH   9  27
ATOM     27  C   UNL     1       5.815   0.198  23.218  0.00  0.00    +0.132 C 
BRANCH  27  29
ATOM     29  C   UNL     1       5.957  -1.171  23.797  0.00  0.00    -0.016 C 
ATOM     32  C   UNL     1       4.939  -2.028  23.941  0.00  0.00    +0.005 C 
ENDBRANCH  27  29
ENDBRANCH   9  27
ENDBRANCH  12   7
BRANCH  11  16
ATOM      3  O   UNL     1      -1.385   3.456  24.502  0.00  0.00    -0.274 OA
ATOM      8  N   UNL     1      -2.076   1.618  23.250  0.00  0.00    -0.302 N 
ATOM     16  C   UNL     1      -1.200   2.326  24.055  0.00  0.00    +0.236 C 
ATOM     34  H   UNL     1      -1.852   0.657  23.008  0.00  0.00    +0.150 HD
BRANCH   8  22
ATOM     22  C   UNL     1      -3.355   2.140  22.825  0.00  0.00    +0.163 C 
BRANCH  22  25
ATOM      5  O   UNL     1      -3.808   3.629  20.959  0.00  0.00    -0.274 OA
ATOM     10  N   UNL     1      -2.174   2.032  20.719  0.00  0.00    -0.328 N 
ATOM     25  C   UNL     1      -3.171   2.682  21.415  0.00  0.00    +0.231 C 
ATOM     36  H   UNL     1      -1.939   2.306  19.771  0.00  0.00    +0.145 HD
ATOM     37  H   UNL     1      -1.653   1.254  21.110  0.00  0.00    +0.145 HD
ENDBRANCH  22  25
BRANCH  22  24
ATOM     24  C   UNL     1      -3.873   3.240  23.758  0.00  0.00    +0.074 C 
BRANCH  24  26
ATOM      1  S   UNL     1      -5.276   3.688  26.123  0.00  0.00    -0.102 S 
ATOM     26  C   UNL     1      -4.852   2.713  24.781  0.00  0.00    -0.008 A 
ATOM     28  C   UNL     1      -5.494   1.494  24.804  0.00  0.00    +0.011 A 
ATOM     30  C   UNL     1      -6.346   1.360  25.937  0.00  0.00    +0.008 A 
ATOM     31  C   UNL     1      -6.323   2.481  26.739  0.00  0.00    +0.045 A 
ENDBRANCH  24  26
ENDBRANCH  22  24
ENDBRANCH   8  22
ENDBRANCH  11  16
BRANCH  15  17
ATOM     17  C   UNL     1      -1.144  -1.931  25.437  0.00  0.00    +0.102 C 
BRANCH  17  18
ATOM     18  C   UNL     1      -2.516  -2.357  24.886  0.00  0.00    -0.029 C 
ATOM     19  C   UNL     1      -3.335  -3.106  25.951  0.00  0.00    +0.011 C 
ATOM     20  C   UNL     1      -3.316  -1.141  24.388  0.00  0.00    +0.011 C 
ATOM     21  C   UNL     1      -2.274  -3.305  23.697  0.00  0.00    +0.011 C 
ENDBRANCH  17  18
ENDBRANCH  15  17
TORSDOF 10
ENDMDL
MODEL 5
REMARK VINA RESULT:       2.0      2.847      5.288
REMARK  Name = 11865833
REMARK  13 active torsions:
REMARK  status: ('A' for Active; 'I' for Inactive)
REMARK    1  A    between atoms: N_7  and  C_12
REMARK    2  A    between atoms: N_8  and  C_22
REMARK    3  A    between atoms: N_9  and  C_27
REMARK    4  A    between atoms: C_11  and  C_16
REMARK    5  A    between atoms: C_15  and  C_17
REMARK    6  A    between atoms: C_17  and  C_18
REMARK    7  A    between atoms: C_18  and  C_19
REMARK    8  A    between atoms: C_18  and  C_20
REMARK    9  A    between atoms: C_18  and  C_21
REMARK   10  A    between atoms: C_22  and  C_24
REMARK   11  A    between atoms: C_22  and  C_25
REMARK   12  A    between atoms: C_24  and  C_26
REMARK   13  A    between atoms: C_27  and  C_29
REMARK                            x       y       z     vdW  Elec       q    Type
REMARK                         _______ _______ _______ _____ _____    ______ ____
ROOT
ATOM      2  O   UNL     1      -0.146  -0.838  23.723  0.00  0.00    -0.276 OA
ATOM      6  N   UNL     1       0.036   1.467  23.608  0.00  0.00    -0.288 N 
ATOM     11  C   UNL     1      -0.856   1.760  24.724  0.00  0.00    +0.182 C 
ATOM     12  C   UNL     1      -0.604   3.230  25.059  0.00  0.00    +0.105 C 
ATOM     13  C   UNL     1      -0.143   3.825  23.725  0.00  0.00    +0.043 C 
ATOM     14  C   UNL     1       0.627   2.688  23.067  0.00  0.00    +0.110 C 
ATOM     15  C   UNL     1       0.374   0.173  23.246  0.00  0.00    +0.217 C 
ENDROOT
BRANCH  12   7
ATOM      4  O   UNL     1      -0.063   1.409  27.231  0.00  0.00    -0.253 OA
ATOM      7  N   UNL     1       0.416   3.363  26.073  0.00  0.00    -0.294 N 
ATOM      9  N   UNL     1       1.655   2.804  27.926  0.00  0.00    -0.296 N 
ATOM     23  C   UNL     1       0.607   2.431  27.090  0.00  0.00    +0.300 C 
ATOM     33  H   UNL     1       1.067   4.140  26.006  0.00  0.00    +0.151 HD
ATOM     35  H   UNL     1       2.165   3.657  27.719  0.00  0.00    +0.151 HD
BRANCH   9  27
ATOM     27  C   UNL     1       2.067   2.015  29.065  0.00  0.00    +0.132 C 
BRANCH  27  29
ATOM     29  C   UNL     1       1.566   2.663  30.313  0.00  0.00    -0.016 C 
ATOM     32  C   UNL     1       0.282   2.968  30.531  0.00  0.00    +0.005 C 
ENDBRANCH  27  29
ENDBRANCH   9  27
ENDBRANCH  12   7
BRANCH  11  16
ATOM      3  O   UNL     1      -2.480   1.181  23.072  0.00  0.00    -0.274 OA
ATOM      8  N   UNL     1      -3.205   1.817  25.190  0.00  0.00    -0.302 N 
ATOM     16  C   UNL     1      -2.253   1.543  24.224  0.00  0.00    +0.236 C 
ATOM     34  H   UNL     1      -2.902   2.189  26.086  0.00  0.00    +0.150 HD
BRANCH   8  22
ATOM     22  C   UNL     1      -4.627   1.708  24.952  0.00  0.00    +0.163 C 
BRANCH  22  25
ATOM      5  O   UNL     1      -5.063   4.061  25.379  0.00  0.00    -0.274 OA
ATOM     10  N   UNL     1      -6.213   2.491  26.600  0.00  0.00    -0.328 N 
ATOM     25  C   UNL     1      -5.290   2.885  25.655  0.00  0.00    +0.231 C 
ATOM     36  H   UNL     1      -6.738   3.177  27.131  0.00  0.00    +0.145 HD
ATOM     37  H   UNL     1      -6.393   1.515  26.815  0.00  0.00    +0.145 HD
ENDBRANCH  22  25
BRANCH  22  24
ATOM     24  C   UNL     1      -5.202   0.384  25.469  0.00  0.00    +0.074 C 
BRANCH  24  26
ATOM      1  S   UNL     1      -3.154  -1.383  26.132  0.00  0.00    -0.102 S 
ATOM     26  C   UNL     1      -4.361  -0.804  25.065  0.00  0.00    -0.008 A 
ATOM     28  C   UNL     1      -4.417  -1.537  23.900  0.00  0.00    +0.011 A 
ATOM     30  C   UNL     1      -3.457  -2.589  23.884  0.00  0.00    +0.008 A 
ATOM     31  C   UNL     1      -2.703  -2.620  25.037  0.00  0.00    +0.045 A 
ENDBRANCH  24  26
ENDBRANCH  22  24
ENDBRANCH   8  22
ENDBRANCH  11  16
BRANCH  15  17
ATOM     17  C   UNL     1       1.444   0.050  22.190  0.00  0.00    +0.102 C 
BRANCH  17  18
ATOM     18  C   UNL     1       2.868   0.118  22.770  0.00  0.00    -0.029 C 
ATOM     19  C   UNL     1       3.020   1.308  23.732  0.00  0.00    +0.011 C 
ATOM     20  C   UNL     1       3.230  -1.184  23.506  0.00  0.00    +0.011 C 
ATOM     21  C   UNL     1       3.848   0.307  21.597  0.00  0.00    +0.011 C 
ENDBRANCH  17  18
ENDBRANCH  15  17
TORSDOF 10
ENDMDL
MODEL 6
REMARK VINA RESULT:       2.1      2.785      5.679
REMARK  Name = 11865833
REMARK  13 active torsions:
REMARK  status: ('A' for Active; 'I' for Inactive)
REMARK    1  A    between atoms: N_7  and  C_12
REMARK    2  A    between atoms: N_8  and  C_22
REMARK    3  A    between atoms: N_9  and  C_27
REMARK    4  A    between atoms: C_11  and  C_16
REMARK    5  A    between atoms: C_15  and  C_17
REMARK    6  A    between atoms: C_17  and  C_18
REMARK    7  A    between atoms: C_18  and  C_19
REMARK    8  A    between atoms: C_18  and  C_20
REMARK    9  A    between atoms: C_18  and  C_21
REMARK   10  A    between atoms: C_22  and  C_24
REMARK   11  A    between atoms: C_22  and  C_25
REMARK   12  A    between atoms: C_24  and  C_26
REMARK   13  A    between atoms: C_27  and  C_29
REMARK                            x       y       z     vdW  Elec       q    Type
REMARK                         _______ _______ _______ _____ _____    ______ ____
ROOT
ATOM      2  O   UNL     1       0.789  -1.291  23.773  0.00  0.00    -0.276 OA
ATOM      6  N   UNL     1       0.293   0.969  23.706  0.00  0.00    -0.288 N 
ATOM     11  C   UNL     1      -0.547   0.989  24.898  0.00  0.00    +0.182 C 
ATOM     12  C   UNL     1      -0.699   2.469  25.251  0.00  0.00    +0.105 C 
ATOM     13  C   UNL     1      -0.544   3.175  23.900  0.00  0.00    +0.043 C 
ATOM     14  C   UNL     1       0.461   2.309  23.151  0.00  0.00    +0.110 C 
ATOM     15  C   UNL     1       0.956  -0.173  23.283  0.00  0.00    +0.217 C 
ENDROOT
BRANCH  12   7
ATOM      4  O   UNL     1      -0.112   1.308  27.826  0.00  0.00    -0.253 OA
ATOM      7  N   UNL     1       0.322   2.887  26.182  0.00  0.00    -0.294 N 
ATOM      9  N   UNL     1       1.581   2.868  28.105  0.00  0.00    -0.296 N 
ATOM     23  C   UNL     1       0.537   2.266  27.409  0.00  0.00    +0.300 C 
ATOM     33  H   UNL     1       0.958   3.630  25.903  0.00  0.00    +0.151 HD
ATOM     35  H   UNL     1       2.073   3.644  27.672  0.00  0.00    +0.151 HD
BRANCH   9  27
ATOM     27  C   UNL     1       2.014   2.421  29.409  0.00  0.00    +0.132 C 
BRANCH  27  29
ATOM     29  C   UNL     1       0.942   2.716  30.406  0.00  0.00    -0.016 C 
ATOM     32  C   UNL     1       0.893   2.177  31.630  0.00  0.00    +0.005 C 
ENDBRANCH  27  29
ENDBRANCH   9  27
ENDBRANCH  12   7
BRANCH  11  16
ATOM      3  O   UNL     1      -2.172   0.213  23.330  0.00  0.00    -0.274 OA
ATOM      8  N   UNL     1      -2.644   0.073  25.605  0.00  0.00    -0.302 N 
ATOM     16  C   UNL     1      -1.861   0.381  24.507  0.00  0.00    +0.236 C 
ATOM     34  H   UNL     1      -2.315   0.333  26.531  0.00  0.00    +0.150 HD
BRANCH   8  22
ATOM     22  C   UNL     1      -3.966  -0.503  25.497  0.00  0.00    +0.163 C 
BRANCH  22  25
ATOM      5  O   UNL     1      -3.312  -2.830  25.743  0.00  0.00    -0.274 OA
ATOM     10  N   UNL     1      -4.275  -2.162  23.767  0.00  0.00    -0.328 N 
ATOM     25  C   UNL     1      -3.791  -1.943  25.040  0.00  0.00    +0.231 C 
ATOM     36  H   UNL     1      -4.233  -3.084  23.347  0.00  0.00    +0.145 HD
ATOM     37  H   UNL     1      -4.672  -1.421  23.199  0.00  0.00    +0.145 HD
ENDBRANCH  22  25
BRANCH  22  24
ATOM     24  C   UNL     1      -4.855   0.267  24.513  0.00  0.00    +0.074 C 
BRANCH  24  26
ATOM      1  S   UNL     1      -5.864   2.339  26.078  0.00  0.00    -0.102 S 
ATOM     26  C   UNL     1      -4.885   1.749  24.803  0.00  0.00    -0.008 A 
ATOM     28  C   UNL     1      -4.206   2.761  24.160  0.00  0.00    +0.011 A 
ATOM     30  C   UNL     1      -4.492   4.038  24.723  0.00  0.00    +0.008 A 
ATOM     31  C   UNL     1      -5.380   3.954  25.774  0.00  0.00    +0.045 A 
ENDBRANCH  24  26
ENDBRANCH  22  24
ENDBRANCH   8  22
ENDBRANCH  11  16
BRANCH  15  17
ATOM     17  C   UNL     1       1.922   0.020  22.141  0.00  0.00    +0.102 C 
BRANCH  17  18
ATOM     18  C   UNL     1       3.377   0.188  22.610  0.00  0.00    -0.029 C 
ATOM     19  C   UNL     1       3.564   1.505  23.382  0.00  0.00    +0.011 C 
ATOM     20  C   UNL     1       3.814  -0.991  23.498  0.00  0.00    +0.011 C 
ATOM     21  C   UNL     1       4.277   0.220  21.360  0.00  0.00    +0.011 C 
ENDBRANCH  17  18
ENDBRANCH  15  17
TORSDOF 10
ENDMDL
MODEL 7
REMARK VINA RESULT:       2.1      2.113      4.856
REMARK  Name = 11865833
REMARK  13 active torsions:
REMARK  status: ('A' for Active; 'I' for Inactive)
REMARK    1  A    between atoms: N_7  and  C_12
REMARK    2  A    between atoms: N_8  and  C_22
REMARK    3  A    between atoms: N_9  and  C_27
REMARK    4  A    between atoms: C_11  and  C_16
REMARK    5  A    between atoms: C_15  and  C_17
REMARK    6  A    between atoms: C_17  and  C_18
REMARK    7  A    between atoms: C_18  and  C_19
REMARK    8  A    between atoms: C_18  and  C_20
REMARK    9  A    between atoms: C_18  and  C_21
REMARK   10  A    between atoms: C_22  and  C_24
REMARK   11  A    between atoms: C_22  and  C_25
REMARK   12  A    between atoms: C_24  and  C_26
REMARK   13  A    between atoms: C_27  and  C_29
REMARK                            x       y       z     vdW  Elec       q    Type
REMARK                         _______ _______ _______ _____ _____    ______ ____
ROOT
ATOM      2  O   UNL     1      -2.376   4.614  23.508  0.00  0.00    -0.276 OA
ATOM      6  N   UNL     1      -1.404   2.831  24.619  0.00  0.00    -0.288 N 
ATOM     11  C   UNL     1      -1.117   2.033  23.432  0.00  0.00    +0.182 C 
ATOM     12  C   UNL     1      -0.141   0.956  23.905  0.00  0.00    +0.105 C 
ATOM     13  C   UNL     1      -0.487   0.789  25.388  0.00  0.00    +0.043 C 
ATOM     14  C   UNL     1      -0.891   2.190  25.826  0.00  0.00    +0.110 C 
ATOM     15  C   UNL     1      -1.952   4.103  24.546  0.00  0.00    +0.217 C 
ENDROOT
BRANCH  12   7
ATOM      4  O   UNL     1       1.999  -0.532  22.668  0.00  0.00    -0.253 OA
ATOM      7  N   UNL     1       1.227   1.382  23.730  0.00  0.00    -0.294 N 
ATOM      9  N   UNL     1       3.428   1.248  23.080  0.00  0.00    -0.296 N 
ATOM     23  C   UNL     1       2.199   0.595  23.118  0.00  0.00    +0.300 C 
ATOM     33  H   UNL     1       1.481   2.326  24.008  0.00  0.00    +0.151 HD
ATOM     35  H   UNL     1       3.494   2.187  23.460  0.00  0.00    +0.151 HD
BRANCH   9  27
ATOM     27  C   UNL     1       4.611   0.656  22.500  0.00  0.00    +0.132 C 
BRANCH  27  29
ATOM     29  C   UNL     1       5.519   0.206  23.596  0.00  0.00    -0.016 C 
ATOM     32  C   UNL     1       5.407  -0.971  24.221  0.00  0.00    +0.005 C 
ENDBRANCH  27  29
ENDBRANCH   9  27
ENDBRANCH  12   7
BRANCH  11  16
ATOM      3  O   UNL     1      -2.797   1.497  21.822  0.00  0.00    -0.274 OA
ATOM      8  N   UNL     1      -3.116   0.861  24.039  0.00  0.00    -0.302 N 
ATOM     16  C   UNL     1      -2.420   1.438  22.991  0.00  0.00    +0.236 C 
ATOM     34  H   UNL     1      -2.742   0.945  24.980  0.00  0.00    +0.150 HD
BRANCH   8  22
ATOM     22  C   UNL     1      -4.411   0.239  23.881  0.00  0.00    +0.163 C 
BRANCH  22  25
ATOM      5  O   UNL     1      -5.127   0.630  26.171  0.00  0.00    -0.274 OA
ATOM     10  N   UNL     1      -6.338   1.577  24.463  0.00  0.00    -0.328 N 
ATOM     25  C   UNL     1      -5.314   0.804  24.968  0.00  0.00    +0.231 C 
ATOM     36  H   UNL     1      -7.004   2.026  25.083  0.00  0.00    +0.145 HD
ATOM     37  H   UNL     1      -6.478   1.716  23.468  0.00  0.00    +0.145 HD
ENDBRANCH  22  25
BRANCH  22  24
ATOM     24  C   UNL     1      -4.338  -1.289  23.987  0.00  0.00    +0.074 C 
BRANCH  24  26
ATOM      1  S   UNL     1      -2.611  -1.623  26.147  0.00  0.00    -0.102 S 
ATOM     26  C   UNL     1      -2.994  -1.767  24.484  0.00  0.00    -0.008 A 
ATOM     28  C   UNL     1      -1.966  -2.334  23.763  0.00  0.00    +0.011 A 
ATOM     30  C   UNL     1      -0.850  -2.656  24.587  0.00  0.00    +0.008 A 
ATOM     31  C   UNL     1      -1.066  -2.322  25.906  0.00  0.00    +0.045 A 
ENDBRANCH  24  26
ENDBRANCH  22  24
ENDBRANCH   8  22
ENDBRANCH  11  16
BRANCH  15  17
ATOM     17  C   UNL     1      -2.018   4.859  25.849  0.00  0.00    +0.102 C 
BRANCH  17  18
ATOM     18  C   UNL     1      -3.339   4.636  26.604  0.00  0.00    -0.029 C 
ATOM     19  C   UNL     1      -4.301   3.751  25.792  0.00  0.00    +0.011 C 
ATOM     20  C   UNL     1      -3.092   3.992  27.979  0.00  0.00    +0.011 C 
ATOM     21  C   UNL     1      -4.000   6.011  26.818  0.00  0.00    +0.011 C 
ENDBRANCH  17  18
ENDBRANCH  15  17
TORSDOF 10
ENDMDL
MODEL 8
REMARK VINA RESULT:       3.3      2.709      7.515
REMARK  Name = 11865833
REMARK  13 active torsions:
REMARK  status: ('A' for Active; 'I' for Inactive)
REMARK    1  A    between atoms: N_7  and  C_12
REMARK    2  A    between atoms: N_8  and  C_22
REMARK    3  A    between atoms: N_9  and  C_27
REMARK    4  A    between atoms: C_11  and  C_16
REMARK    5  A    between atoms: C_15  and  C_17
REMARK    6  A    between atoms: C_17  and  C_18
REMARK    7  A    between atoms: C_18  and  C_19
REMARK    8  A    between atoms: C_18  and  C_20
REMARK    9  A    between atoms: C_18  and  C_21
REMARK   10  A    between atoms: C_22  and  C_24
REMARK   11  A    between atoms: C_22  and  C_25
REMARK   12  A    between atoms: C_24  and  C_26
REMARK   13  A    between atoms: C_27  and  C_29
REMARK                            x       y       z     vdW  Elec       q    Type
REMARK                         _______ _______ _______ _____ _____    ______ ____
ROOT
ATOM      2  O   UNL     1      -1.547  -0.264  23.130  0.00  0.00    -0.276 OA
ATOM      6  N   UNL     1      -0.914   0.690  25.142  0.00  0.00    -0.288 N 
ATOM     11  C   UNL     1      -0.630   2.019  24.613  0.00  0.00    +0.182 C 
ATOM     12  C   UNL     1      -0.534   2.924  25.842  0.00  0.00    +0.105 C 
ATOM     13  C   UNL     1      -0.082   1.970  26.952  0.00  0.00    +0.043 C 
ATOM     14  C   UNL     1      -0.753   0.651  26.593  0.00  0.00    +0.110 C 
ATOM     15  C   UNL     1      -1.424  -0.330  24.355  0.00  0.00    +0.217 C 
ENDROOT
BRANCH  12   7
ATOM      4  O   UNL     1      -2.991   2.625  24.359  0.00  0.00    -0.253 OA
ATOM      7  N   UNL     1      -1.814   3.517  26.150  0.00  0.00    -0.294 N 
ATOM      9  N   UNL     1      -4.047   4.003  25.897  0.00  0.00    -0.296 N 
ATOM     23  C   UNL     1      -2.954   3.318  25.375  0.00  0.00    +0.300 C 
ATOM     33  H   UNL     1      -1.907   4.054  27.007  0.00  0.00    +0.151 HD
ATOM     35  H   UNL     1      -3.925   4.535  26.753  0.00  0.00    +0.151 HD
BRANCH   9  27
ATOM     27  C   UNL     1      -5.356   3.969  25.287  0.00  0.00    +0.132 C 
BRANCH  27  29
ATOM     29  C   UNL     1      -6.075   2.743  25.744  0.00  0.00    -0.016 C 
ATOM     32  C   UNL     1      -6.300   1.678  24.965  0.00  0.00    +0.005 C 
ENDBRANCH  27  29
ENDBRANCH   9  27
ENDBRANCH  12   7
BRANCH  11  16
ATOM      3  O   UNL     1       1.315   2.923  23.564  0.00  0.00    -0.274 OA
ATOM      8  N   UNL     1       1.060   0.612  23.665  0.00  0.00    -0.302 N 
ATOM     16  C   UNL     1       0.686   1.923  23.900  0.00  0.00    +0.236 C 
ATOM     34  H   UNL     1       0.418  -0.135  23.917  0.00  0.00    +0.150 HD
BRANCH   8  22
ATOM     22  C   UNL     1       2.277   0.249  22.972  0.00  0.00    +0.163 C 
BRANCH  22  25
ATOM      5  O   UNL     1       2.676  -0.082  20.598  0.00  0.00    -0.274 OA
ATOM     10  N   UNL     1       0.574  -0.498  21.428  0.00  0.00    -0.328 N 
ATOM     25  C   UNL     1       1.890  -0.103  21.543  0.00  0.00    +0.231 C 
ATOM     36  H   UNL     1       0.191  -0.775  20.530  0.00  0.00    +0.145 HD
ATOM     37  H   UNL     1      -0.063  -0.514  22.218  0.00  0.00    +0.145 HD
ENDBRANCH  22  25
BRANCH  22  24
ATOM     24  C   UNL     1       2.994  -0.931  23.638  0.00  0.00    +0.074 C 
BRANCH  24  26
ATOM      1  S   UNL     1       5.151   0.794  23.277  0.00  0.00    -0.102 S 
ATOM     26  C   UNL     1       4.487  -0.718  23.732  0.00  0.00    -0.008 A 
ATOM     28  C   UNL     1       5.455  -1.604  24.151  0.00  0.00    +0.011 A 
ATOM     30  C   UNL     1       6.759  -1.035  24.098  0.00  0.00    +0.008 A 
ATOM     31  C   UNL     1       6.739   0.265  23.641  0.00  0.00    +0.045 A 
ENDBRANCH  24  26
ENDBRANCH  22  24
ENDBRANCH   8  22
ENDBRANCH  11  16
BRANCH  15  17
ATOM     17  C   UNL     1      -1.830  -1.582  25.093  0.00  0.00    +0.102 C 
BRANCH  17  18
ATOM     18  C   UNL     1      -3.356  -1.773  25.152  0.00  0.00    -0.029 C 
ATOM     19  C   UNL     1      -3.913  -1.372  26.528  0.00  0.00    +0.011 C 
ATOM     20  C   UNL     1      -4.061  -0.954  24.057  0.00  0.00    +0.011 C 
ATOM     21  C   UNL     1      -3.655  -3.266  24.917  0.00  0.00    +0.011 C 
ENDBRANCH  17  18
ENDBRANCH  15  17
TORSDOF 10
ENDMDL
