MODEL 1
REMARK VINA RESULT:       1.1      0.000      0.000
REMARK  Name = 40779449
REMARK  8 active torsions:
REMARK  status: ('A' for Active; 'I' for Inactive)
REMARK    1  A    between atoms: O_2  and  C_21
REMARK    2  A    between atoms: O_2  and  C_29
REMARK    3  A    between atoms: N_4  and  C_18
REMARK    4  A    between atoms: N_5  and  C_15
REMARK    5  A    between atoms: C_8  and  C_14
REMARK    6  A    between atoms: C_9  and  C_15
REMARK    7  A    between atoms: C_17  and  C_20
REMARK    8  A    between atoms: C_19  and  C_21
REMARK                            x       y       z     vdW  Elec       q    Type
REMARK                         _______ _______ _______ _____ _____    ______ ____
ROOT
ATOM      3  N   UNL     1      -5.367   2.277  26.136  0.00  0.00    -0.297 NA
ATOM      7  C   UNL     1      -4.805   1.618  23.679  0.00  0.00    +0.002 C 
ATOM      8  C   UNL     1      -4.186   0.596  24.672  0.00  0.00    +0.055 C 
ATOM      9  C   UNL     1      -4.822   3.452  25.406  0.00  0.00    +0.074 C 
ATOM     10  C   UNL     1      -4.292   3.034  24.018  0.00  0.00    +0.024 C 
ATOM     11  C   UNL     1      -6.329   1.616  23.930  0.00  0.00    +0.019 C 
ATOM     12  C   UNL     1      -4.389   1.161  26.106  0.00  0.00    +0.094 C 
ATOM     13  C   UNL     1      -6.594   1.834  25.430  0.00  0.00    +0.085 C 
ENDROOT
BRANCH   8  14
ATOM      4  N   UNL     1      -2.377  -1.174  24.481  0.00  0.00    -0.270 N 
ATOM      6  N   UNL     1      -1.069  -1.371  24.238  0.00  0.00    -0.171 NA
ATOM     14  C   UNL     1      -2.756   0.135  24.429  0.00  0.00    +0.044 A 
ATOM     16  C   UNL     1      -1.617   0.844  24.131  0.00  0.00    +0.053 A 
ATOM     17  C   UNL     1      -0.611  -0.135  24.026  0.00  0.00    +0.093 A 
ATOM     18  C   UNL     1      -3.221  -2.311  24.765  0.00  0.00    +0.172 C 
BRANCH  17  20
ATOM     20  C   UNL     1       0.779   0.088  23.727  0.00  0.00    +0.003 A 
ATOM     22  C   UNL     1       1.715  -0.920  23.967  0.00  0.00    +0.018 A 
ATOM     23  C   UNL     1       1.191   1.307  23.197  0.00  0.00    +0.011 A 
ATOM     24  C   UNL     1       3.075  -0.719  23.680  0.00  0.00    -0.017 A 
ATOM     25  C   UNL     1       2.537   1.525  22.906  0.00  0.00    +0.009 A 
ATOM     26  C   UNL     1       3.493   0.522  23.142  0.00  0.00    -0.018 A 
ATOM     27  C   UNL     1       4.029  -1.721  23.916  0.00  0.00    +0.008 A 
ATOM     28  C   UNL     1       4.852   0.722  22.855  0.00  0.00    +0.008 A 
ATOM     30  C   UNL     1       5.376  -1.505  23.625  0.00  0.00    +0.001 A 
ATOM     31  C   UNL     1       5.787  -0.285  23.096  0.00  0.00    +0.001 A 
ENDBRANCH  17  20
ENDBRANCH   8  14
BRANCH   9  15
ATOM     15  C   UNL     1      -3.764   4.202  26.218  0.00  0.00    +0.123 C 
BRANCH  15   5
ATOM      1  O   UNL     1      -1.441   5.539  25.130  0.00  0.00    -0.273 OA
ATOM      5  N   UNL     1      -2.465   3.641  26.006  0.00  0.00    -0.312 N 
ATOM     19  C   UNL     1      -1.397   4.360  25.473  0.00  0.00    +0.239 C 
ATOM     32  H   UNL     1      -2.322   2.666  26.256  0.00  0.00    +0.149 HD
BRANCH  19  21
ATOM     21  C   UNL     1      -0.142   3.521  25.360  0.00  0.00    +0.255 C 
BRANCH  21   2
ATOM      2  O   UNL     1      -0.173   2.452  26.280  0.00  0.00    -0.374 OA
ATOM     29  C   UNL     1       0.776   2.625  27.328  0.00  0.00    +0.194 C 
ENDBRANCH  21   2
ENDBRANCH  19  21
ENDBRANCH  15   5
ENDBRANCH   9  15
TORSDOF 6
ENDMDL
MODEL 2
REMARK VINA RESULT:       3.9      2.142      3.818
REMARK  Name = 40779449
REMARK  8 active torsions:
REMARK  status: ('A' for Active; 'I' for Inactive)
REMARK    1  A    between atoms: O_2  and  C_21
REMARK    2  A    between atoms: O_2  and  C_29
REMARK    3  A    between atoms: N_4  and  C_18
REMARK    4  A    between atoms: N_5  and  C_15
REMARK    5  A    between atoms: C_8  and  C_14
REMARK    6  A    between atoms: C_9  and  C_15
REMARK    7  A    between atoms: C_17  and  C_20
REMARK    8  A    between atoms: C_19  and  C_21
REMARK                            x       y       z     vdW  Elec       q    Type
REMARK                         _______ _______ _______ _____ _____    ______ ____
ROOT
ATOM      3  N   UNL     1      -5.553   1.948  24.075  0.00  0.00    -0.297 NA
ATOM      7  C   UNL     1      -3.952   2.683  25.995  0.00  0.00    +0.002 C 
ATOM      8  C   UNL     1      -3.363   3.081  24.613  0.00  0.00    +0.055 C 
ATOM      9  C   UNL     1      -5.311   0.809  25.000  0.00  0.00    +0.074 C 
ATOM     10  C   UNL     1      -4.208   1.161  26.021  0.00  0.00    +0.024 C 
ATOM     11  C   UNL     1      -5.327   3.376  26.109  0.00  0.00    +0.019 C 
ATOM     12  C   UNL     1      -4.265   2.436  23.521  0.00  0.00    +0.094 C 
ATOM     13  C   UNL     1      -6.164   3.048  24.860  0.00  0.00    +0.085 C 
ENDROOT
BRANCH   8  14
ATOM      4  N   UNL     1      -0.928   3.789  24.515  0.00  0.00    -0.270 N 
ATOM      6  N   UNL     1       0.318   3.365  24.245  0.00  0.00    -0.171 NA
ATOM     14  C   UNL     1      -1.883   2.828  24.363  0.00  0.00    +0.044 A 
ATOM     16  C   UNL     1      -1.215   1.695  23.964  0.00  0.00    +0.053 A 
ATOM     17  C   UNL     1       0.136   2.085  23.908  0.00  0.00    +0.093 A 
ATOM     18  C   UNL     1      -1.135   5.160  24.920  0.00  0.00    +0.172 C 
BRANCH  17  20
ATOM     20  C   UNL     1       1.255   1.259  23.540  0.00  0.00    +0.003 A 
ATOM     22  C   UNL     1       2.549   1.632  23.909  0.00  0.00    +0.018 A 
ATOM     23  C   UNL     1       1.049   0.088  22.815  0.00  0.00    +0.011 A 
ATOM     24  C   UNL     1       3.652   0.837  23.558  0.00  0.00    -0.017 A 
ATOM     25  C   UNL     1       2.132  -0.713  22.458  0.00  0.00    +0.009 A 
ATOM     26  C   UNL     1       3.441  -0.353  22.821  0.00  0.00    -0.018 A 
ATOM     27  C   UNL     1       4.960   1.197  23.921  0.00  0.00    +0.008 A 
ATOM     28  C   UNL     1       4.544  -1.148  22.470  0.00  0.00    +0.008 A 
ATOM     30  C   UNL     1       6.044   0.396  23.564  0.00  0.00    +0.001 A 
ATOM     31  C   UNL     1       5.836  -0.774  22.839  0.00  0.00    +0.001 A 
ENDBRANCH  17  20
ENDBRANCH   8  14
BRANCH   9  15
ATOM     15  C   UNL     1      -5.003  -0.492  24.254  0.00  0.00    +0.123 C 
BRANCH  15   5
ATOM      1  O   UNL     1      -3.555  -2.918  24.872  0.00  0.00    -0.273 OA
ATOM      5  N   UNL     1      -3.591  -0.703  24.158  0.00  0.00    -0.312 N 
ATOM     19  C   UNL     1      -2.973  -1.911  24.478  0.00  0.00    +0.239 C 
ATOM     32  H   UNL     1      -3.015   0.073  23.843  0.00  0.00    +0.149 HD
BRANCH  19  21
ATOM     21  C   UNL     1      -1.474  -1.855  24.284  0.00  0.00    +0.255 C 
BRANCH  21   2
ATOM      2  O   UNL     1      -0.808  -1.893  25.527  0.00  0.00    -0.374 OA
ATOM     29  C   UNL     1      -0.964  -0.676  26.252  0.00  0.00    +0.194 C 
ENDBRANCH  21   2
ENDBRANCH  19  21
ENDBRANCH  15   5
ENDBRANCH   9  15
TORSDOF 6
ENDMDL
MODEL 3
REMARK VINA RESULT:       4.1      2.142      3.663
REMARK  Name = 40779449
REMARK  8 active torsions:
REMARK  status: ('A' for Active; 'I' for Inactive)
REMARK    1  A    between atoms: O_2  and  C_21
REMARK    2  A    between atoms: O_2  and  C_29
REMARK    3  A    between atoms: N_4  and  C_18
REMARK    4  A    between atoms: N_5  and  C_15
REMARK    5  A    between atoms: C_8  and  C_14
REMARK    6  A    between atoms: C_9  and  C_15
REMARK    7  A    between atoms: C_17  and  C_20
REMARK    8  A    between atoms: C_19  and  C_21
REMARK                            x       y       z     vdW  Elec       q    Type
REMARK                         _______ _______ _______ _____ _____    ______ ____
ROOT
ATOM      3  N   UNL     1      -5.198   3.845  24.736  0.00  0.00    -0.297 NA
ATOM      7  C   UNL     1      -2.898   3.785  25.957  0.00  0.00    +0.002 C 
ATOM      8  C   UNL     1      -2.699   3.706  24.418  0.00  0.00    +0.055 C 
ATOM      9  C   UNL     1      -5.223   2.825  25.817  0.00  0.00    +0.074 C 
ATOM     10  C   UNL     1      -3.813   2.628  26.413  0.00  0.00    +0.024 C 
ATOM     11  C   UNL     1      -3.655   5.100  26.241  0.00  0.00    +0.019 C 
ATOM     12  C   UNL     1      -4.107   3.543  23.776  0.00  0.00    +0.094 C 
ATOM     13  C   UNL     1      -4.914   5.160  25.359  0.00  0.00    +0.085 C 
ENDROOT
BRANCH   8  14
ATOM      4  N   UNL     1      -1.839   2.086  22.664  0.00  0.00    -0.270 N 
ATOM      6  N   UNL     1      -0.846   1.229  22.368  0.00  0.00    -0.171 NA
ATOM     14  C   UNL     1      -1.696   2.698  23.874  0.00  0.00    +0.044 A 
ATOM     16  C   UNL     1      -0.529   2.208  24.408  0.00  0.00    +0.053 A 
ATOM     17  C   UNL     1      -0.049   1.309  23.438  0.00  0.00    +0.093 A 
ATOM     18  C   UNL     1      -2.917   2.269  21.720  0.00  0.00    +0.172 C 
BRANCH  17  20
ATOM     20  C   UNL     1       1.155   0.523  23.513  0.00  0.00    +0.003 A 
ATOM     22  C   UNL     1       2.397   1.131  23.326  0.00  0.00    +0.018 A 
ATOM     23  C   UNL     1       1.080  -0.843  23.772  0.00  0.00    +0.011 A 
ATOM     24  C   UNL     1       3.581   0.379  23.397  0.00  0.00    -0.017 A 
ATOM     25  C   UNL     1       2.245  -1.605  23.845  0.00  0.00    +0.009 A 
ATOM     26  C   UNL     1       3.505  -1.010  23.660  0.00  0.00    -0.018 A 
ATOM     27  C   UNL     1       4.839   0.974  23.211  0.00  0.00    +0.008 A 
ATOM     28  C   UNL     1       4.688  -1.762  23.731  0.00  0.00    +0.008 A 
ATOM     30  C   UNL     1       6.005   0.212  23.285  0.00  0.00    +0.001 A 
ATOM     31  C   UNL     1       5.930  -1.153  23.544  0.00  0.00    +0.001 A 
ENDBRANCH  17  20
ENDBRANCH   8  14
BRANCH   9  15
ATOM     15  C   UNL     1      -5.836   1.501  25.354  0.00  0.00    +0.123 C 
BRANCH  15   5
ATOM      1  O   UNL     1      -3.954  -0.031  23.779  0.00  0.00    -0.273 OA
ATOM      5  N   UNL     1      -5.045   0.392  25.792  0.00  0.00    -0.312 N 
ATOM     19  C   UNL     1      -4.159  -0.293  24.961  0.00  0.00    +0.239 C 
ATOM     32  H   UNL     1      -5.142   0.092  26.758  0.00  0.00    +0.149 HD
BRANCH  19  21
ATOM     21  C   UNL     1      -3.453  -1.420  25.685  0.00  0.00    +0.255 C 
BRANCH  21   2
ATOM      2  O   UNL     1      -3.323  -2.546  24.845  0.00  0.00    -0.374 OA
ATOM     29  C   UNL     1      -1.990  -2.702  24.366  0.00  0.00    +0.194 C 
ENDBRANCH  21   2
ENDBRANCH  19  21
ENDBRANCH  15   5
ENDBRANCH   9  15
TORSDOF 6
ENDMDL
