MODEL 1
REMARK VINA RESULT:      -4.8      0.000      0.000
REMARK  Name = 75536788
REMARK  7 active torsions:
REMARK  status: ('A' for Active; 'I' for Inactive)
REMARK    1  A    between atoms: O_2  and  C_10
REMARK    2  A    between atoms: N_4  and  C_8
REMARK    3  A    between atoms: N_4  and  C_9
REMARK    4  A    between atoms: N_5  and  C_18
REMARK    5  A    between atoms: N_6  and  C_17
REMARK    6  A    between atoms: C_11  and  C_17
REMARK    7  A    between atoms: C_19  and  C_20
REMARK                            x       y       z     vdW  Elec       q    Type
REMARK                         _______ _______ _______ _____ _____    ______ ____
ROOT
ATOM      1  O   UNL     1      -1.683  -2.541  23.817  0.00  0.00    -0.371 OA
ATOM      8  C   UNL     1      -0.043  -1.065  24.696  0.00  0.00    +0.111 C 
ATOM     10  C   UNL     1      -1.301  -0.966  25.539  0.00  0.00    +0.164 C 
ATOM     11  C   UNL     1      -1.987  -2.281  25.197  0.00  0.00    +0.165 C 
ATOM     14  C   UNL     1      -0.581  -1.702  23.425  0.00  0.00    +0.181 C 
ENDROOT
BRANCH  10   2
ATOM      2  O   UNL     1      -1.026  -0.859  26.922  0.00  0.00    -0.388 OA
ATOM     26  H   UNL     1      -0.922   0.083  27.141  0.00  0.00    +0.210 HD
ENDBRANCH  10   2
BRANCH   8   4
ATOM      4  N   UNL     1       0.602   0.216  24.458  0.00  0.00    -0.306 NA
ATOM     25  H   UNL     1       0.983   0.248  23.514  0.00  0.00    +0.123 HD
BRANCH   4   9
ATOM      5  N   UNL     1      -0.837   4.174  25.033  0.00  0.00    -0.305 NA
ATOM      9  C   UNL     1      -0.342   1.315  24.651  0.00  0.00    +0.056 C 
ATOM     12  C   UNL     1      -0.221   2.325  23.507  0.00  0.00    +0.034 C 
ATOM     13  C   UNL     1      -0.101   2.015  25.992  0.00  0.00    +0.034 C 
ATOM     15  C   UNL     1      -1.131   3.533  23.743  0.00  0.00    +0.085 C 
ATOM     16  C   UNL     1      -1.015   3.233  26.147  0.00  0.00    +0.085 C 
ATOM     18  C   UNL     1      -1.679   5.355  25.221  0.00  0.00    +0.104 C 
ENDBRANCH   4   9
ENDBRANCH   8   4
BRANCH  11  17
ATOM     17  C   UNL     1      -3.493  -2.241  25.391  0.00  0.00    +0.138 C 
BRANCH  17   6
ATOM      3  O   UNL     1      -4.001  -0.341  23.300  0.00  0.00    -0.270 OA
ATOM      6  N   UNL     1      -3.963  -0.895  25.552  0.00  0.00    -0.309 N 
ATOM     19  C   UNL     1      -4.182  -0.040  24.477  0.00  0.00    +0.244 C 
ATOM     27  H   UNL     1      -4.067  -0.560  26.504  0.00  0.00    +0.149 HD
BRANCH  19  20
ATOM      7  N   UNL     1      -5.508   3.913  25.449  0.00  0.00    -0.263 NA
ATOM     20  C   UNL     1      -4.644   1.331  24.813  0.00  0.00    +0.040 A 
ATOM     21  C   UNL     1      -4.103   2.431  24.155  0.00  0.00    +0.033 A 
ATOM     22  C   UNL     1      -5.617   1.522  25.788  0.00  0.00    +0.033 A 
ATOM     23  C   UNL     1      -4.565   3.689  24.507  0.00  0.00    +0.111 A 
ATOM     24  C   UNL     1      -6.011   2.820  26.067  0.00  0.00    +0.111 A 
ENDBRANCH  19  20
ENDBRANCH  17   6
ENDBRANCH  11  17
TORSDOF 6
ENDMDL
MODEL 2
REMARK VINA RESULT:      -4.7     14.336     16.849
REMARK  Name = 75536788
REMARK  7 active torsions:
REMARK  status: ('A' for Active; 'I' for Inactive)
REMARK    1  A    between atoms: O_2  and  C_10
REMARK    2  A    between atoms: N_4  and  C_8
REMARK    3  A    between atoms: N_4  and  C_9
REMARK    4  A    between atoms: N_5  and  C_18
REMARK    5  A    between atoms: N_6  and  C_17
REMARK    6  A    between atoms: C_11  and  C_17
REMARK    7  A    between atoms: C_19  and  C_20
REMARK                            x       y       z     vdW  Elec       q    Type
REMARK                         _______ _______ _______ _____ _____    ______ ____
ROOT
ATOM      1  O   UNL     1      -1.722 -10.640  14.460  0.00  0.00    -0.371 OA
ATOM      8  C   UNL     1      -3.697 -10.548  15.775  0.00  0.00    +0.111 C 
ATOM     10  C   UNL     1      -4.037 -10.172  14.345  0.00  0.00    +0.164 C 
ATOM     11  C   UNL     1      -2.860 -10.780  13.594  0.00  0.00    +0.165 C 
ATOM     14  C   UNL     1      -2.190 -10.349  15.789  0.00  0.00    +0.181 C 
ENDROOT
BRANCH  10   2
ATOM      2  O   UNL     1      -5.272 -10.712  13.916  0.00  0.00    -0.388 OA
ATOM     26  H   UNL     1      -5.976 -10.348  14.479  0.00  0.00    +0.210 HD
ENDBRANCH  10   2
BRANCH   8   4
ATOM      4  N   UNL     1      -4.384  -9.740  16.769  0.00  0.00    -0.306 NA
ATOM     25  H   UNL     1      -4.613  -8.826  16.383  0.00  0.00    +0.123 HD
BRANCH   4   9
ATOM      5  N   UNL     1      -8.307 -10.233  18.331  0.00  0.00    -0.305 NA
ATOM      9  C   UNL     1      -5.600 -10.406  17.229  0.00  0.00    +0.056 C 
ATOM     12  C   UNL     1      -6.798  -9.962  16.386  0.00  0.00    +0.034 C 
ATOM     13  C   UNL     1      -5.864 -10.107  18.708  0.00  0.00    +0.034 C 
ATOM     15  C   UNL     1      -8.099 -10.573  16.915  0.00  0.00    +0.085 C 
ATOM     16  C   UNL     1      -7.194 -10.713  19.162  0.00  0.00    +0.085 C 
ATOM     18  C   UNL     1      -9.576 -10.781  18.807  0.00  0.00    +0.104 C 
ENDBRANCH   4   9
ENDBRANCH   8   4
BRANCH  11  17
ATOM     17  C   UNL     1      -2.581 -10.102  12.265  0.00  0.00    +0.138 C 
BRANCH  17   6
ATOM      3  O   UNL     1      -2.812  -8.884   9.675  0.00  0.00    -0.270 OA
ATOM      6  N   UNL     1      -3.778  -9.961  11.489  0.00  0.00    -0.309 N 
ATOM     19  C   UNL     1      -3.798  -9.354  10.237  0.00  0.00    +0.244 C 
ATOM     27  H   UNL     1      -4.642 -10.267  11.925  0.00  0.00    +0.149 HD
BRANCH  19  20
ATOM      7  N   UNL     1      -7.616  -9.094   8.318  0.00  0.00    -0.263 NA
ATOM     20  C   UNL     1      -5.124  -9.263   9.573  0.00  0.00    +0.040 A 
ATOM     21  C   UNL     1      -5.682 -10.388   8.973  0.00  0.00    +0.033 A 
ATOM     22  C   UNL     1      -5.811  -8.055   9.545  0.00  0.00    +0.033 A 
ATOM     23  C   UNL     1      -6.920 -10.251   8.365  0.00  0.00    +0.111 A 
ATOM     24  C   UNL     1      -7.042  -8.023   8.911  0.00  0.00    +0.111 A 
ENDBRANCH  19  20
ENDBRANCH  17   6
ENDBRANCH  11  17
TORSDOF 6
ENDMDL
MODEL 3
REMARK VINA RESULT:      -3.5      2.032      4.989
REMARK  Name = 75536788
REMARK  7 active torsions:
REMARK  status: ('A' for Active; 'I' for Inactive)
REMARK    1  A    between atoms: O_2  and  C_10
REMARK    2  A    between atoms: N_4  and  C_8
REMARK    3  A    between atoms: N_4  and  C_9
REMARK    4  A    between atoms: N_5  and  C_18
REMARK    5  A    between atoms: N_6  and  C_17
REMARK    6  A    between atoms: C_11  and  C_17
REMARK    7  A    between atoms: C_19  and  C_20
REMARK                            x       y       z     vdW  Elec       q    Type
REMARK                         _______ _______ _______ _____ _____    ______ ____
ROOT
ATOM      1  O   UNL     1      -4.662   3.555  26.984  0.00  0.00    -0.371 OA
ATOM      8  C   UNL     1      -2.999   4.576  25.630  0.00  0.00    +0.111 C 
ATOM     10  C   UNL     1      -3.935   3.775  24.744  0.00  0.00    +0.164 C 
ATOM     11  C   UNL     1      -5.160   3.661  25.640  0.00  0.00    +0.165 C 
ATOM     14  C   UNL     1      -3.285   3.971  26.995  0.00  0.00    +0.181 C 
ENDROOT
BRANCH  10   2
ATOM      2  O   UNL     1      -4.231   4.431  23.527  0.00  0.00    -0.388 OA
ATOM     26  H   UNL     1      -4.779   5.210  23.725  0.00  0.00    +0.210 HD
ENDBRANCH  10   2
BRANCH   8   4
ATOM      4  N   UNL     1      -1.601   4.472  25.246  0.00  0.00    -0.306 NA
ATOM     25  H   UNL     1      -1.002   4.804  26.001  0.00  0.00    +0.123 HD
BRANCH   4   9
ATOM      5  N   UNL     1       0.567   1.185  23.642  0.00  0.00    -0.305 NA
ATOM      9  C   UNL     1      -1.257   3.092  24.909  0.00  0.00    +0.056 C 
ATOM     12  C   UNL     1       0.090   2.714  25.530  0.00  0.00    +0.034 C 
ATOM     13  C   UNL     1      -1.206   2.895  23.391  0.00  0.00    +0.034 C 
ATOM     15  C   UNL     1       0.514   1.305  25.107  0.00  0.00    +0.085 C 
ATOM     16  C   UNL     1      -0.739   1.480  23.037  0.00  0.00    +0.085 C 
ATOM     18  C   UNL     1       1.021  -0.149  23.254  0.00  0.00    +0.104 C 
ENDBRANCH   4   9
ENDBRANCH   8   4
BRANCH  11  17
ATOM     17  C   UNL     1      -6.029   2.457  25.319  0.00  0.00    +0.138 C 
BRANCH  17   6
ATOM      3  O   UNL     1      -4.201   1.503  23.322  0.00  0.00    -0.270 OA
ATOM      6  N   UNL     1      -5.271   1.240  25.363  0.00  0.00    -0.309 N 
ATOM     19  C   UNL     1      -4.404   0.854  24.345  0.00  0.00    +0.244 C 
ATOM     27  H   UNL     1      -5.445   0.624  26.150  0.00  0.00    +0.149 HD
BRANCH  19  20
ATOM      7  N   UNL     1      -2.409  -2.895  24.874  0.00  0.00    -0.263 NA
ATOM     20  C   UNL     1      -3.714  -0.447  24.530  0.00  0.00    +0.040 A 
ATOM     21  C   UNL     1      -2.500  -0.502  25.207  0.00  0.00    +0.033 A 
ATOM     22  C   UNL     1      -4.274  -1.614  24.025  0.00  0.00    +0.033 A 
ATOM     23  C   UNL     1      -1.894  -1.740  25.352  0.00  0.00    +0.111 A 
ATOM     24  C   UNL     1      -3.589  -2.802  24.221  0.00  0.00    +0.111 A 
ENDBRANCH  19  20
ENDBRANCH  17   6
ENDBRANCH  11  17
TORSDOF 6
ENDMDL
MODEL 4
REMARK VINA RESULT:      -3.4      2.267      6.367
REMARK  Name = 75536788
REMARK  7 active torsions:
REMARK  status: ('A' for Active; 'I' for Inactive)
REMARK    1  A    between atoms: O_2  and  C_10
REMARK    2  A    between atoms: N_4  and  C_8
REMARK    3  A    between atoms: N_4  and  C_9
REMARK    4  A    between atoms: N_5  and  C_18
REMARK    5  A    between atoms: N_6  and  C_17
REMARK    6  A    between atoms: C_11  and  C_17
REMARK    7  A    between atoms: C_19  and  C_20
REMARK                            x       y       z     vdW  Elec       q    Type
REMARK                         _______ _______ _______ _____ _____    ______ ____
ROOT
ATOM      1  O   UNL     1      -2.912   4.113  23.553  0.00  0.00    -0.371 OA
ATOM      8  C   UNL     1      -4.376   3.017  25.069  0.00  0.00    +0.111 C 
ATOM     10  C   UNL     1      -3.089   3.372  25.791  0.00  0.00    +0.164 C 
ATOM     11  C   UNL     1      -2.543   4.473  24.893  0.00  0.00    +0.165 C 
ATOM     14  C   UNL     1      -3.939   3.107  23.616  0.00  0.00    +0.181 C 
ENDROOT
BRANCH  10   2
ATOM      2  O   UNL     1      -3.311   3.829  27.111  0.00  0.00    -0.388 OA
ATOM     26  H   UNL     1      -3.282   4.801  27.107  0.00  0.00    +0.210 HD
ENDBRANCH  10   2
BRANCH   8   4
ATOM      4  N   UNL     1      -4.900   1.708  25.423  0.00  0.00    -0.306 NA
ATOM     25  H   UNL     1      -5.872   1.626  25.126  0.00  0.00    +0.123 HD
BRANCH   4   9
ATOM      5  N   UNL     1      -3.184  -2.132  24.808  0.00  0.00    -0.305 NA
ATOM      9  C   UNL     1      -4.102   0.647  24.812  0.00  0.00    +0.056 C 
ATOM     12  C   UNL     1      -5.004  -0.510  24.376  0.00  0.00    +0.034 C 
ATOM     13  C   UNL     1      -3.032   0.138  25.782  0.00  0.00    +0.034 C 
ATOM     15  C   UNL     1      -4.176  -1.674  23.825  0.00  0.00    +0.085 C 
ATOM     16  C   UNL     1      -2.268  -1.046  25.185  0.00  0.00    +0.085 C 
ATOM     18  C   UNL     1      -2.436  -3.275  24.286  0.00  0.00    +0.104 C 
ENDBRANCH   4   9
ENDBRANCH   8   4
BRANCH  11  17
ATOM     17  C   UNL     1      -1.035   4.631  24.986  0.00  0.00    +0.138 C 
BRANCH  17   6
ATOM      3  O   UNL     1       0.035   2.186  26.044  0.00  0.00    -0.270 OA
ATOM      6  N   UNL     1      -0.357   3.603  24.249  0.00  0.00    -0.309 N 
ATOM     19  C   UNL     1       0.132   2.445  24.847  0.00  0.00    +0.244 C 
ATOM     27  H   UNL     1      -0.183   3.787  23.267  0.00  0.00    +0.149 HD
BRANCH  19  20
ATOM      7  N   UNL     1       2.152  -0.310  22.268  0.00  0.00    -0.263 NA
ATOM     20  C   UNL     1       0.833   1.491  23.951  0.00  0.00    +0.040 A 
ATOM     21  C   UNL     1       0.152   0.396  23.429  0.00  0.00    +0.033 A 
ATOM     22  C   UNL     1       2.172   1.686  23.633  0.00  0.00    +0.033 A 
ATOM     23  C   UNL     1       0.851  -0.467  22.600  0.00  0.00    +0.111 A 
ATOM     24  C   UNL     1       2.781   0.765  22.795  0.00  0.00    +0.111 A 
ENDBRANCH  19  20
ENDBRANCH  17   6
ENDBRANCH  11  17
TORSDOF 6
ENDMDL
MODEL 5
REMARK VINA RESULT:      -2.9     15.093     17.291
REMARK  Name = 75536788
REMARK  7 active torsions:
REMARK  status: ('A' for Active; 'I' for Inactive)
REMARK    1  A    between atoms: O_2  and  C_10
REMARK    2  A    between atoms: N_4  and  C_8
REMARK    3  A    between atoms: N_4  and  C_9
REMARK    4  A    between atoms: N_5  and  C_18
REMARK    5  A    between atoms: N_6  and  C_17
REMARK    6  A    between atoms: C_11  and  C_17
REMARK    7  A    between atoms: C_19  and  C_20
REMARK                            x       y       z     vdW  Elec       q    Type
REMARK                         _______ _______ _______ _____ _____    ______ ____
ROOT
ATOM      1  O   UNL     1      -5.300 -10.621  13.586  0.00  0.00    -0.371 OA
ATOM      8  C   UNL     1      -7.450 -10.100  14.453  0.00  0.00    +0.111 C 
ATOM     10  C   UNL     1      -7.470  -9.933  12.945  0.00  0.00    +0.164 C 
ATOM     11  C   UNL     1      -6.272 -10.781  12.540  0.00  0.00    +0.165 C 
ATOM     14  C   UNL     1      -5.957 -10.065  14.740  0.00  0.00    +0.181 C 
ENDROOT
BRANCH  10   2
ATOM      2  O   UNL     1      -8.669 -10.401  12.359  0.00  0.00    -0.388 OA
ATOM     26  H   UNL     1      -8.529 -11.319  12.067  0.00  0.00    +0.210 HD
ENDBRANCH  10   2
BRANCH   8   4
ATOM      4  N   UNL     1      -8.187  -9.069  15.164  0.00  0.00    -0.306 NA
ATOM     25  H   UNL     1      -8.781  -8.552  14.518  0.00  0.00    +0.123 HD
BRANCH   4   9
ATOM      5  N   UNL     1      -9.816  -9.698  19.040  0.00  0.00    -0.305 NA
ATOM      9  C   UNL     1      -8.999  -9.653  16.229  0.00  0.00    +0.056 C 
ATOM     12  C   UNL     1      -9.930  -8.595  16.826  0.00  0.00    +0.034 C 
ATOM     13  C   UNL     1      -8.115 -10.250  17.329  0.00  0.00    +0.034 C 
ATOM     15  C   UNL     1     -10.718  -9.162  18.010  0.00  0.00    +0.085 C 
ATOM     16  C   UNL     1      -8.962 -10.763  18.496  0.00  0.00    +0.085 C 
ATOM     18  C   UNL     1     -10.582 -10.190  20.185  0.00  0.00    +0.104 C 
ENDBRANCH   4   9
ENDBRANCH   8   4
BRANCH  11  17
ATOM     17  C   UNL     1      -5.666 -10.367  11.210  0.00  0.00    +0.138 C 
BRANCH  17   6
ATOM      3  O   UNL     1      -6.726  -9.942   8.576  0.00  0.00    -0.270 OA
ATOM      6  N   UNL     1      -6.270  -9.164  10.713  0.00  0.00    -0.309 N 
ATOM     19  C   UNL     1      -6.758  -9.047   9.416  0.00  0.00    +0.244 C 
ATOM     27  H   UNL     1      -6.266  -8.363  11.335  0.00  0.00    +0.149 HD
BRANCH  19  20
ATOM      7  N   UNL     1      -8.405  -5.239   8.360  0.00  0.00    -0.263 NA
ATOM     20  C   UNL     1      -7.330  -7.726   9.048  0.00  0.00    +0.040 A 
ATOM     21  C   UNL     1      -6.513  -6.602   8.998  0.00  0.00    +0.033 A 
ATOM     22  C   UNL     1      -8.684  -7.608   8.755  0.00  0.00    +0.033 A 
ATOM     23  C   UNL     1      -7.094  -5.393   8.651  0.00  0.00    +0.111 A 
ATOM     24  C   UNL     1      -9.168  -6.353   8.420  0.00  0.00    +0.111 A 
ENDBRANCH  19  20
ENDBRANCH  17   6
ENDBRANCH  11  17
TORSDOF 6
ENDMDL
MODEL 6
REMARK VINA RESULT:      -2.7      2.176      4.700
REMARK  Name = 75536788
REMARK  7 active torsions:
REMARK  status: ('A' for Active; 'I' for Inactive)
REMARK    1  A    between atoms: O_2  and  C_10
REMARK    2  A    between atoms: N_4  and  C_8
REMARK    3  A    between atoms: N_4  and  C_9
REMARK    4  A    between atoms: N_5  and  C_18
REMARK    5  A    between atoms: N_6  and  C_17
REMARK    6  A    between atoms: C_11  and  C_17
REMARK    7  A    between atoms: C_19  and  C_20
REMARK                            x       y       z     vdW  Elec       q    Type
REMARK                         _______ _______ _______ _____ _____    ______ ____
ROOT
ATOM      1  O   UNL     1      -0.346   3.393  26.429  0.00  0.00    -0.371 OA
ATOM      8  C   UNL     1       0.580   2.145  24.633  0.00  0.00    +0.111 C 
ATOM     10  C   UNL     1      -0.337   3.217  24.071  0.00  0.00    +0.164 C 
ATOM     11  C   UNL     1      -0.395   4.194  25.237  0.00  0.00    +0.165 C 
ATOM     14  C   UNL     1       0.110   2.075  26.077  0.00  0.00    +0.181 C 
ENDROOT
BRANCH  10   2
ATOM      2  O   UNL     1       0.181   3.820  22.902  0.00  0.00    -0.388 OA
ATOM     26  H   UNL     1       0.697   4.602  23.164  0.00  0.00    +0.210 HD
ENDBRANCH  10   2
BRANCH   8   4
ATOM      4  N   UNL     1       0.478   0.870  23.942  0.00  0.00    -0.306 NA
ATOM     25  H   UNL     1       1.368   0.377  23.981  0.00  0.00    +0.123 HD
BRANCH   4   9
ATOM      5  N   UNL     1      -2.647  -1.998  24.215  0.00  0.00    -0.305 NA
ATOM      9  C   UNL     1      -0.575   0.045  24.530  0.00  0.00    +0.056 C 
ATOM     12  C   UNL     1      -0.240  -1.440  24.363  0.00  0.00    +0.034 C 
ATOM     13  C   UNL     1      -1.932   0.349  23.888  0.00  0.00    +0.034 C 
ATOM     15  C   UNL     1      -1.378  -2.321  24.883  0.00  0.00    +0.085 C 
ATOM     16  C   UNL     1      -3.015  -0.591  24.424  0.00  0.00    +0.085 C 
ATOM     18  C   UNL     1      -3.713  -2.882  24.687  0.00  0.00    +0.104 C 
ENDBRANCH   4   9
ENDBRANCH   8   4
BRANCH  11  17
ATOM     17  C   UNL     1      -1.651   5.048  25.242  0.00  0.00    +0.138 C 
BRANCH  17   6
ATOM      3  O   UNL     1      -3.390   3.712  23.390  0.00  0.00    -0.270 OA
ATOM      6  N   UNL     1      -2.810   4.268  25.566  0.00  0.00    -0.309 N 
ATOM     19  C   UNL     1      -3.599   3.654  24.598  0.00  0.00    +0.244 C 
ATOM     27  H   UNL     1      -3.079   4.236  26.544  0.00  0.00    +0.149 HD
BRANCH  19  20
ATOM      7  N   UNL     1      -7.002   1.489  26.035  0.00  0.00    -0.263 NA
ATOM     20  C   UNL     1      -4.781   2.904  25.095  0.00  0.00    +0.040 A 
ATOM     21  C   UNL     1      -5.272   3.143  26.375  0.00  0.00    +0.033 A 
ATOM     22  C   UNL     1      -5.399   1.957  24.286  0.00  0.00    +0.033 A 
ATOM     23  C   UNL     1      -6.375   2.416  26.793  0.00  0.00    +0.111 A 
ATOM     24  C   UNL     1      -6.496   1.283  24.798  0.00  0.00    +0.111 A 
ENDBRANCH  19  20
ENDBRANCH  17   6
ENDBRANCH  11  17
TORSDOF 6
ENDMDL
MODEL 7
REMARK VINA RESULT:      -2.6      2.320      3.620
REMARK  Name = 75536788
REMARK  7 active torsions:
REMARK  status: ('A' for Active; 'I' for Inactive)
REMARK    1  A    between atoms: O_2  and  C_10
REMARK    2  A    between atoms: N_4  and  C_8
REMARK    3  A    between atoms: N_4  and  C_9
REMARK    4  A    between atoms: N_5  and  C_18
REMARK    5  A    between atoms: N_6  and  C_17
REMARK    6  A    between atoms: C_11  and  C_17
REMARK    7  A    between atoms: C_19  and  C_20
REMARK                            x       y       z     vdW  Elec       q    Type
REMARK                         _______ _______ _______ _____ _____    ______ ____
ROOT
ATOM      1  O   UNL     1      -1.702  -2.690  23.967  0.00  0.00    -0.371 OA
ATOM      8  C   UNL     1      -0.016  -1.022  24.112  0.00  0.00    +0.111 C 
ATOM     10  C   UNL     1      -1.124  -0.695  25.097  0.00  0.00    +0.164 C 
ATOM     11  C   UNL     1      -1.790  -2.055  25.253  0.00  0.00    +0.165 C 
ATOM     14  C   UNL     1      -0.722  -1.991  23.177  0.00  0.00    +0.181 C 
ENDROOT
BRANCH  10   2
ATOM      2  O   UNL     1      -0.632  -0.204  26.329  0.00  0.00    -0.388 OA
ATOM     26  H   UNL     1       0.154   0.340  26.150  0.00  0.00    +0.210 HD
ENDBRANCH  10   2
BRANCH   8   4
ATOM      4  N   UNL     1       0.515   0.143  23.424  0.00  0.00    -0.306 NA
ATOM     25  H   UNL     1       0.476   0.959  24.032  0.00  0.00    +0.123 HD
BRANCH   4   9
ATOM      5  N   UNL     1       4.762   0.002  23.561  0.00  0.00    -0.305 NA
ATOM      9  C   UNL     1       1.892  -0.093  22.994  0.00  0.00    +0.056 C 
ATOM     12  C   UNL     1       2.574  -1.098  23.926  0.00  0.00    +0.034 C 
ATOM     13  C   UNL     1       2.688   1.215  22.964  0.00  0.00    +0.034 C 
ATOM     15  C   UNL     1       4.047  -1.282  23.551  0.00  0.00    +0.085 C 
ATOM     16  C   UNL     1       4.157   0.955  22.620  0.00  0.00    +0.085 C 
ATOM     18  C   UNL     1       6.177  -0.197  23.250  0.00  0.00    +0.104 C 
ENDBRANCH   4   9
ENDBRANCH   8   4
BRANCH  11  17
ATOM     17  C   UNL     1      -3.244  -1.966  25.683  0.00  0.00    +0.138 C 
BRANCH  17   6
ATOM      3  O   UNL     1      -4.139  -0.335  23.496  0.00  0.00    -0.270 OA
ATOM      6  N   UNL     1      -3.684  -0.603  25.755  0.00  0.00    -0.309 N 
ATOM     19  C   UNL     1      -4.103   0.114  24.638  0.00  0.00    +0.244 C 
ATOM     27  H   UNL     1      -3.614  -0.149  26.660  0.00  0.00    +0.149 HD
BRANCH  19  20
ATOM      7  N   UNL     1      -5.262   4.178  25.323  0.00  0.00    -0.263 NA
ATOM     20  C   UNL     1      -4.503   1.524  24.877  0.00  0.00    +0.040 A 
ATOM     21  C   UNL     1      -5.684   1.809  25.556  0.00  0.00    +0.033 A 
ATOM     22  C   UNL     1      -3.703   2.565  24.421  0.00  0.00    +0.033 A 
ATOM     23  C   UNL     1      -6.014   3.140  25.752  0.00  0.00    +0.111 A 
ATOM     24  C   UNL     1      -4.123   3.863  24.666  0.00  0.00    +0.111 A 
ENDBRANCH  19  20
ENDBRANCH  17   6
ENDBRANCH  11  17
TORSDOF 6
ENDMDL
MODEL 8
REMARK VINA RESULT:      -1.6      2.979      6.640
REMARK  Name = 75536788
REMARK  7 active torsions:
REMARK  status: ('A' for Active; 'I' for Inactive)
REMARK    1  A    between atoms: O_2  and  C_10
REMARK    2  A    between atoms: N_4  and  C_8
REMARK    3  A    between atoms: N_4  and  C_9
REMARK    4  A    between atoms: N_5  and  C_18
REMARK    5  A    between atoms: N_6  and  C_17
REMARK    6  A    between atoms: C_11  and  C_17
REMARK    7  A    between atoms: C_19  and  C_20
REMARK                            x       y       z     vdW  Elec       q    Type
REMARK                         _______ _______ _______ _____ _____    ______ ____
ROOT
ATOM      1  O   UNL     1      -0.540  -0.478  24.926  0.00  0.00    -0.371 OA
ATOM      8  C   UNL     1      -2.910  -0.544  24.794  0.00  0.00    +0.111 C 
ATOM     10  C   UNL     1      -2.396   0.573  23.905  0.00  0.00    +0.164 C 
ATOM     11  C   UNL     1      -0.951   0.139  23.696  0.00  0.00    +0.165 C 
ATOM     14  C   UNL     1      -1.714  -0.782  25.701  0.00  0.00    +0.181 C 
ENDROOT
BRANCH  10   2
ATOM      2  O   UNL     1      -3.101   0.667  22.682  0.00  0.00    -0.388 OA
ATOM     26  H   UNL     1      -3.452  -0.213  22.464  0.00  0.00    +0.210 HD
ENDBRANCH  10   2
BRANCH   8   4
ATOM      4  N   UNL     1      -4.116  -0.196  25.528  0.00  0.00    -0.306 NA
ATOM     25  H   UNL     1      -3.930  -0.193  26.530  0.00  0.00    +0.123 HD
BRANCH   4   9
ATOM      5  N   UNL     1      -5.552   3.795  25.813  0.00  0.00    -0.305 NA
ATOM      9  C   UNL     1      -4.618   1.111  25.111  0.00  0.00    +0.056 C 
ATOM     12  C   UNL     1      -3.661   2.216  25.563  0.00  0.00    +0.034 C 
ATOM     13  C   UNL     1      -6.018   1.368  25.679  0.00  0.00    +0.034 C 
ATOM     15  C   UNL     1      -4.219   3.600  25.222  0.00  0.00    +0.085 C 
ATOM     16  C   UNL     1      -6.499   2.779  25.334  0.00  0.00    +0.085 C 
ATOM     18  C   UNL     1      -6.050   5.139  25.520  0.00  0.00    +0.104 C 
ENDBRANCH   4   9
ENDBRANCH   8   4
BRANCH  11  17
ATOM     17  C   UNL     1      -0.021   1.293  23.363  0.00  0.00    +0.138 C 
BRANCH  17   6
ATOM      3  O   UNL     1       1.689  -0.277  21.673  0.00  0.00    -0.270 OA
ATOM      6  N   UNL     1       1.348   0.947  23.614  0.00  0.00    -0.309 N 
ATOM     19  C   UNL     1       2.106   0.178  22.736  0.00  0.00    +0.244 C 
ATOM     27  H   UNL     1       1.734   1.234  24.508  0.00  0.00    +0.149 HD
BRANCH  19  20
ATOM      7  N   UNL     1       6.128  -0.661  23.936  0.00  0.00    -0.263 NA
ATOM     20  C   UNL     1       3.500  -0.113  23.154  0.00  0.00    +0.040 A 
ATOM     21  C   UNL     1       4.483   0.864  23.035  0.00  0.00    +0.033 A 
ATOM     22  C   UNL     1       3.831  -1.364  23.663  0.00  0.00    +0.033 A 
ATOM     23  C   UNL     1       5.770   0.542  23.437  0.00  0.00    +0.111 A 
ATOM     24  C   UNL     1       5.146  -1.586  24.036  0.00  0.00    +0.111 A 
ENDBRANCH  19  20
ENDBRANCH  17   6
ENDBRANCH  11  17
TORSDOF 6
ENDMDL
MODEL 9
REMARK VINA RESULT:      -1.6      1.679      4.717
REMARK  Name = 75536788
REMARK  7 active torsions:
REMARK  status: ('A' for Active; 'I' for Inactive)
REMARK    1  A    between atoms: O_2  and  C_10
REMARK    2  A    between atoms: N_4  and  C_8
REMARK    3  A    between atoms: N_4  and  C_9
REMARK    4  A    between atoms: N_5  and  C_18
REMARK    5  A    between atoms: N_6  and  C_17
REMARK    6  A    between atoms: C_11  and  C_17
REMARK    7  A    between atoms: C_19  and  C_20
REMARK                            x       y       z     vdW  Elec       q    Type
REMARK                         _______ _______ _______ _____ _____    ______ ____
ROOT
ATOM      1  O   UNL     1      -3.595  -1.611  26.330  0.00  0.00    -0.371 OA
ATOM      8  C   UNL     1      -4.804  -0.260  24.796  0.00  0.00    +0.111 C 
ATOM     10  C   UNL     1      -3.854  -1.157  24.024  0.00  0.00    +0.164 C 
ATOM     11  C   UNL     1      -3.592  -2.255  25.046  0.00  0.00    +0.165 C 
ATOM     14  C   UNL     1      -4.202  -0.314  26.190  0.00  0.00    +0.181 C 
ENDROOT
BRANCH  10   2
ATOM      2  O   UNL     1      -4.427  -1.668  22.837  0.00  0.00    -0.388 OA
ATOM     26  H   UNL     1      -3.771  -1.592  22.123  0.00  0.00    +0.210 HD
ENDBRANCH  10   2
BRANCH   8   4
ATOM      4  N   UNL     1      -4.887   1.092  24.267  0.00  0.00    -0.306 NA
ATOM     25  H   UNL     1      -5.763   1.528  24.552  0.00  0.00    +0.123 HD
BRANCH   4   9
ATOM      5  N   UNL     1      -2.312   4.443  24.722  0.00  0.00    -0.305 NA
ATOM      9  C   UNL     1      -3.758   1.898  24.725  0.00  0.00    +0.056 C 
ATOM     12  C   UNL     1      -4.259   3.123  25.494  0.00  0.00    +0.034 C 
ATOM     13  C   UNL     1      -2.887   2.343  23.546  0.00  0.00    +0.034 C 
ATOM     15  C   UNL     1      -3.095   4.033  25.897  0.00  0.00    +0.085 C 
ATOM     16  C   UNL     1      -1.768   3.277  24.011  0.00  0.00    +0.085 C 
ATOM     18  C   UNL     1      -1.235   5.351  25.116  0.00  0.00    +0.104 C 
ENDBRANCH   4   9
ENDBRANCH   8   4
BRANCH  11  17
ATOM     17  C   UNL     1      -2.269  -2.970  24.833  0.00  0.00    +0.138 C 
BRANCH  17   6
ATOM      3  O   UNL     1      -0.855  -0.854  26.162  0.00  0.00    -0.270 OA
ATOM      6  N   UNL     1      -1.291  -2.097  24.252  0.00  0.00    -0.309 N 
ATOM     19  C   UNL     1      -0.653  -1.093  24.975  0.00  0.00    +0.244 C 
ATOM     27  H   UNL     1      -1.127  -2.196  23.256  0.00  0.00    +0.149 HD
BRANCH  19  20
ATOM      7  N   UNL     1       2.143   1.313  22.803  0.00  0.00    -0.263 NA
ATOM     20  C   UNL     1       0.316  -0.257  24.220  0.00  0.00    +0.040 A 
ATOM     21  C   UNL     1       1.090  -0.824  23.213  0.00  0.00    +0.033 A 
ATOM     22  C   UNL     1       0.455   1.093  24.519  0.00  0.00    +0.033 A 
ATOM     23  C   UNL     1       1.980  -0.002  22.540  0.00  0.00    +0.111 A 
ATOM     24  C   UNL     1       1.375   1.829  23.789  0.00  0.00    +0.111 A 
ENDBRANCH  19  20
ENDBRANCH  17   6
ENDBRANCH  11  17
TORSDOF 6
ENDMDL
MODEL 10
REMARK VINA RESULT:      -0.9      3.152      7.109
REMARK  Name = 75536788
REMARK  7 active torsions:
REMARK  status: ('A' for Active; 'I' for Inactive)
REMARK    1  A    between atoms: O_2  and  C_10
REMARK    2  A    between atoms: N_4  and  C_8
REMARK    3  A    between atoms: N_4  and  C_9
REMARK    4  A    between atoms: N_5  and  C_18
REMARK    5  A    between atoms: N_6  and  C_17
REMARK    6  A    between atoms: C_11  and  C_17
REMARK    7  A    between atoms: C_19  and  C_20
REMARK                            x       y       z     vdW  Elec       q    Type
REMARK                         _______ _______ _______ _____ _____    ______ ____
ROOT
ATOM      1  O   UNL     1      -1.920   2.167  22.712  0.00  0.00    -0.371 OA
ATOM      8  C   UNL     1      -2.762   2.082  24.931  0.00  0.00    +0.111 C 
ATOM     10  C   UNL     1      -1.699   1.012  24.763  0.00  0.00    +0.164 C 
ATOM     11  C   UNL     1      -0.939   1.540  23.554  0.00  0.00    +0.165 C 
ATOM     14  C   UNL     1      -3.114   2.386  23.484  0.00  0.00    +0.181 C 
ENDROOT
BRANCH  10   2
ATOM      2  O   UNL     1      -0.865   0.888  25.898  0.00  0.00    -0.388 OA
ATOM     26  H   UNL     1      -1.124   0.084  26.382  0.00  0.00    +0.210 HD
ENDBRANCH  10   2
BRANCH   8   4
ATOM      4  N   UNL     1      -3.908   1.648  25.713  0.00  0.00    -0.306 NA
ATOM     25  H   UNL     1      -4.717   2.231  25.506  0.00  0.00    +0.123 HD
BRANCH   4   9
ATOM      5  N   UNL     1      -3.417  -2.352  24.360  0.00  0.00    -0.305 NA
ATOM      9  C   UNL     1      -4.221   0.246  25.441  0.00  0.00    +0.056 C 
ATOM     12  C   UNL     1      -3.230  -0.668  26.165  0.00  0.00    +0.034 C 
ATOM     13  C   UNL     1      -4.192  -0.040  23.936  0.00  0.00    +0.034 C 
ATOM     15  C   UNL     1      -3.480  -2.137  25.813  0.00  0.00    +0.085 C 
ATOM     16  C   UNL     1      -4.410  -1.529  23.657  0.00  0.00    +0.085 C 
ATOM     18  C   UNL     1      -3.608  -3.767  24.043  0.00  0.00    +0.104 C 
ENDBRANCH   4   9
ENDBRANCH   8   4
BRANCH  11  17
ATOM     17  C   UNL     1      -0.215   0.454  22.778  0.00  0.00    +0.138 C 
BRANCH  17   6
ATOM      3  O   UNL     1       2.067  -0.234  21.178  0.00  0.00    -0.270 OA
ATOM      6  N   UNL     1       1.135   0.298  23.235  0.00  0.00    -0.309 N 
ATOM     19  C   UNL     1       2.184  -0.039  22.385  0.00  0.00    +0.244 C 
ATOM     27  H   UNL     1       1.290   0.378  24.235  0.00  0.00    +0.149 HD
BRANCH  19  20
ATOM      7  N   UNL     1       6.035  -0.467  24.205  0.00  0.00    -0.263 NA
ATOM     20  C   UNL     1       3.519  -0.188  23.018  0.00  0.00    +0.040 A 
ATOM     21  C   UNL     1       4.402   0.888  23.047  0.00  0.00    +0.033 A 
ATOM     22  C   UNL     1       3.894  -1.402  23.582  0.00  0.00    +0.033 A 
ATOM     23  C   UNL     1       5.636   0.698  23.647  0.00  0.00    +0.111 A 
ATOM     24  C   UNL     1       5.152  -1.490  24.158  0.00  0.00    +0.111 A 
ENDBRANCH  19  20
ENDBRANCH  17   6
ENDBRANCH  11  17
TORSDOF 6
ENDMDL
