MODEL 1
REMARK VINA RESULT:      -3.7      0.000      0.000
REMARK  Name = 51137450
REMARK  8 active torsions:
REMARK  status: ('A' for Active; 'I' for Inactive)
REMARK    1  A    between atoms: O_2  and  C_22
REMARK    2  A    between atoms: O_2  and  C_28
REMARK    3  A    between atoms: O_3  and  C_24
REMARK    4  A    between atoms: N_5  and  C_12
REMARK    5  A    between atoms: C_8  and  C_13
REMARK    6  A    between atoms: C_12  and  C_14
REMARK    7  A    between atoms: C_17  and  C_20
REMARK    8  A    between atoms: C_21  and  C_24
REMARK                            x       y       z     vdW  Elec       q    Type
REMARK                         _______ _______ _______ _____ _____    ______ ____
ROOT
ATOM      5  N   UNL     1      15.419  -3.931  32.194  0.00  0.00    -0.297 NA
ATOM      8  C   UNL     1      17.012  -3.555  30.514  0.00  0.00    +0.092 C 
ATOM      9  C   UNL     1      16.803  -2.263  31.323  0.00  0.00    +0.029 C 
ATOM     10  C   UNL     1      15.813  -4.440  30.878  0.00  0.00    +0.097 C 
ATOM     11  C   UNL     1      15.493  -2.474  32.072  0.00  0.00    +0.085 C 
ENDROOT
BRANCH   8  13
ATOM      1  O   UNL     1      17.154  -4.472  28.248  0.00  0.00    -0.420 OA
ATOM      6  N   UNL     1      17.311  -2.242  28.341  0.00  0.00    -0.112 NA
ATOM      7  N   UNL     1      17.405  -2.621  27.016  0.00  0.00    -0.107 NA
ATOM     13  C   UNL     1      17.165  -3.354  29.025  0.00  0.00    +0.222 A 
ATOM     17  C   UNL     1      17.310  -3.931  27.009  0.00  0.00    +0.252 A 
BRANCH  17  20
ATOM     20  C   UNL     1      17.341  -4.860  25.918  0.00  0.00    +0.080 A 
ATOM     22  C   UNL     1      17.366  -4.414  24.597  0.00  0.00    +0.132 A 
ATOM     23  C   UNL     1      17.345  -6.229  26.191  0.00  0.00    +0.017 A 
ATOM     25  C   UNL     1      17.395  -5.334  23.549  0.00  0.00    +0.046 A 
ATOM     26  C   UNL     1      17.373  -7.149  25.144  0.00  0.00    +0.001 A 
ATOM     27  C   UNL     1      17.399  -6.702  23.823  0.00  0.00    +0.004 A 
BRANCH  22   2
ATOM      2  O   UNL     1      17.362  -3.082  24.300  0.00  0.00    -0.494 OA
ATOM     28  C   UNL     1      16.223  -2.578  23.607  0.00  0.00    +0.277 C 
ENDBRANCH  22   2
ENDBRANCH  17  20
ENDBRANCH   8  13
BRANCH   5  12
ATOM     12  C   UNL     1      14.096  -4.387  32.594  0.00  0.00    +0.119 C 
BRANCH  12  14
ATOM     14  C   UNL     1      13.811  -5.780  32.099  0.00  0.00    -0.033 A 
ATOM     15  C   UNL     1      12.975  -5.971  30.997  0.00  0.00    +0.006 A 
ATOM     16  C   UNL     1      14.381  -6.879  32.741  0.00  0.00    +0.006 A 
ATOM     18  C   UNL     1      12.710  -7.262  30.539  0.00  0.00    +0.015 A 
ATOM     19  C   UNL     1      14.117  -8.169  32.282  0.00  0.00    +0.015 A 
ATOM     21  C   UNL     1      13.281  -8.360  31.181  0.00  0.00    +0.059 A 
BRANCH  21  24
ATOM      4  O   UNL     1      11.938 -10.310  30.835  0.00  0.00    -0.245 OA
ATOM     24  C   UNL     1      13.007  -9.706  30.701  0.00  0.00    +0.337 C 
BRANCH  24   3
ATOM      3  O   UNL     1      14.077 -10.261  30.068  0.00  0.00    -0.477 OA
ATOM     29  H   UNL     1      14.462  -9.654  29.401  0.00  0.00    +0.295 HD
ENDBRANCH  24   3
ENDBRANCH  21  24
ENDBRANCH  12  14
ENDBRANCH   5  12
TORSDOF 7
ENDMDL
MODEL 2
REMARK VINA RESULT:      -3.7      1.654      2.185
REMARK  Name = 51137450
REMARK  8 active torsions:
REMARK  status: ('A' for Active; 'I' for Inactive)
REMARK    1  A    between atoms: O_2  and  C_22
REMARK    2  A    between atoms: O_2  and  C_28
REMARK    3  A    between atoms: O_3  and  C_24
REMARK    4  A    between atoms: N_5  and  C_12
REMARK    5  A    between atoms: C_8  and  C_13
REMARK    6  A    between atoms: C_12  and  C_14
REMARK    7  A    between atoms: C_17  and  C_20
REMARK    8  A    between atoms: C_21  and  C_24
REMARK                            x       y       z     vdW  Elec       q    Type
REMARK                         _______ _______ _______ _____ _____    ______ ____
ROOT
ATOM      5  N   UNL     1      15.733  -4.351  31.349  0.00  0.00    -0.297 NA
ATOM      8  C   UNL     1      17.182  -5.079  29.654  0.00  0.00    +0.092 C 
ATOM      9  C   UNL     1      17.261  -3.547  29.777  0.00  0.00    +0.029 C 
ATOM     10  C   UNL     1      15.904  -5.463  30.411  0.00  0.00    +0.097 C 
ATOM     11  C   UNL     1      16.019  -3.149  30.565  0.00  0.00    +0.085 C 
ENDROOT
BRANCH   8  13
ATOM      1  O   UNL     1      17.239  -4.681  27.239  0.00  0.00    -0.420 OA
ATOM      6  N   UNL     1      17.204  -6.845  27.806  0.00  0.00    -0.112 NA
ATOM      7  N   UNL     1      17.236  -6.766  26.427  0.00  0.00    -0.107 NA
ATOM     13  C   UNL     1      17.208  -5.605  28.238  0.00  0.00    +0.222 A 
ATOM     17  C   UNL     1      17.255  -5.485  26.141  0.00  0.00    +0.252 A 
BRANCH  17  20
ATOM     20  C   UNL     1      17.291  -4.815  24.874  0.00  0.00    +0.080 A 
ATOM     22  C   UNL     1      17.244  -3.423  24.798  0.00  0.00    +0.132 A 
ATOM     23  C   UNL     1      17.372  -5.574  23.705  0.00  0.00    +0.017 A 
ATOM     25  C   UNL     1      17.278  -2.790  23.556  0.00  0.00    +0.046 A 
ATOM     26  C   UNL     1      17.405  -4.941  22.463  0.00  0.00    +0.001 A 
ATOM     27  C   UNL     1      17.359  -3.549  22.388  0.00  0.00    +0.004 A 
BRANCH  22   2
ATOM      2  O   UNL     1      17.164  -2.655  25.923  0.00  0.00    -0.494 OA
ATOM     28  C   UNL     1      16.963  -1.256  25.738  0.00  0.00    +0.277 C 
ENDBRANCH  22   2
ENDBRANCH  17  20
ENDBRANCH   8  13
BRANCH   5  12
ATOM     12  C   UNL     1      14.404  -4.323  31.942  0.00  0.00    +0.119 C 
BRANCH  12  14
ATOM     14  C   UNL     1      13.739  -5.673  31.892  0.00  0.00    -0.033 A 
ATOM     15  C   UNL     1      12.594  -5.858  31.116  0.00  0.00    +0.006 A 
ATOM     16  C   UNL     1      14.269  -6.738  32.620  0.00  0.00    +0.006 A 
ATOM     18  C   UNL     1      11.978  -7.109  31.070  0.00  0.00    +0.015 A 
ATOM     19  C   UNL     1      13.653  -7.989  32.573  0.00  0.00    +0.015 A 
ATOM     21  C   UNL     1      12.507  -8.174  31.798  0.00  0.00    +0.059 A 
BRANCH  21  24
ATOM      4  O   UNL     1      12.446 -10.556  31.580  0.00  0.00    -0.245 OA
ATOM     24  C   UNL     1      11.866  -9.478  31.748  0.00  0.00    +0.337 C 
BRANCH  24   3
ATOM      3  O   UNL     1      10.516  -9.401  31.909  0.00  0.00    -0.477 OA
ATOM     29  H   UNL     1      10.129 -10.263  32.170  0.00  0.00    +0.295 HD
ENDBRANCH  24   3
ENDBRANCH  21  24
ENDBRANCH  12  14
ENDBRANCH   5  12
TORSDOF 7
ENDMDL
MODEL 3
REMARK VINA RESULT:      -3.5      2.425      3.840
REMARK  Name = 51137450
REMARK  8 active torsions:
REMARK  status: ('A' for Active; 'I' for Inactive)
REMARK    1  A    between atoms: O_2  and  C_22
REMARK    2  A    between atoms: O_2  and  C_28
REMARK    3  A    between atoms: O_3  and  C_24
REMARK    4  A    between atoms: N_5  and  C_12
REMARK    5  A    between atoms: C_8  and  C_13
REMARK    6  A    between atoms: C_12  and  C_14
REMARK    7  A    between atoms: C_17  and  C_20
REMARK    8  A    between atoms: C_21  and  C_24
REMARK                            x       y       z     vdW  Elec       q    Type
REMARK                         _______ _______ _______ _____ _____    ______ ____
ROOT
ATOM      5  N   UNL     1      16.114  -3.613  31.407  0.00  0.00    -0.297 NA
ATOM      8  C   UNL     1      17.290  -4.563  29.612  0.00  0.00    +0.092 C 
ATOM      9  C   UNL     1      17.267  -3.031  29.461  0.00  0.00    +0.029 C 
ATOM     10  C   UNL     1      16.203  -4.866  30.652  0.00  0.00    +0.097 C 
ATOM     11  C   UNL     1      16.158  -2.559  30.393  0.00  0.00    +0.085 C 
ENDROOT
BRANCH   8  13
ATOM      1  O   UNL     1      16.547  -6.569  28.423  0.00  0.00    -0.420 OA
ATOM      6  N   UNL     1      17.405  -4.987  27.095  0.00  0.00    -0.112 NA
ATOM      7  N   UNL     1      17.029  -6.053  26.300  0.00  0.00    -0.107 NA
ATOM     13  C   UNL     1      17.104  -5.332  28.326  0.00  0.00    +0.222 A 
ATOM     17  C   UNL     1      16.534  -6.953  27.117  0.00  0.00    +0.252 A 
BRANCH  17  20
ATOM     20  C   UNL     1      15.991  -8.253  26.851  0.00  0.00    +0.080 A 
ATOM     22  C   UNL     1      16.163  -9.300  27.756  0.00  0.00    +0.132 A 
ATOM     23  C   UNL     1      15.283  -8.465  25.667  0.00  0.00    +0.017 A 
ATOM     25  C   UNL     1      15.628 -10.558  27.478  0.00  0.00    +0.046 A 
ATOM     26  C   UNL     1      14.749  -9.723  25.389  0.00  0.00    +0.001 A 
ATOM     27  C   UNL     1      14.921 -10.769  26.294  0.00  0.00    +0.004 A 
BRANCH  22   2
ATOM      2  O   UNL     1      16.851  -9.123  28.921  0.00  0.00    -0.494 OA
ATOM     28  C   UNL     1      16.355  -9.798  30.074  0.00  0.00    +0.277 C 
ENDBRANCH  22   2
ENDBRANCH  17  20
ENDBRANCH   8  13
BRANCH   5  12
ATOM     12  C   UNL     1      14.915  -3.543  32.228  0.00  0.00    +0.119 C 
BRANCH  12  14
ATOM     14  C   UNL     1      14.098  -4.804  32.136  0.00  0.00    -0.033 A 
ATOM     15  C   UNL     1      14.497  -5.946  32.832  0.00  0.00    +0.006 A 
ATOM     16  C   UNL     1      12.942  -4.831  31.356  0.00  0.00    +0.006 A 
ATOM     18  C   UNL     1      13.740  -7.114  32.747  0.00  0.00    +0.015 A 
ATOM     19  C   UNL     1      12.185  -6.000  31.272  0.00  0.00    +0.015 A 
ATOM     21  C   UNL     1      12.585  -7.141  31.967  0.00  0.00    +0.059 A 
BRANCH  21  24
ATOM      4  O   UNL     1      12.243  -9.492  31.675  0.00  0.00    -0.245 OA
ATOM     24  C   UNL     1      11.794  -8.360  31.881  0.00  0.00    +0.337 C 
BRANCH  24   3
ATOM      3  O   UNL     1      10.463  -8.130  32.052  0.00  0.00    -0.477 OA
ATOM     29  H   UNL     1       9.976  -8.952  32.274  0.00  0.00    +0.295 HD
ENDBRANCH  24   3
ENDBRANCH  21  24
ENDBRANCH  12  14
ENDBRANCH   5  12
TORSDOF 7
ENDMDL
MODEL 4
REMARK VINA RESULT:      -1.9     18.750     20.539
REMARK  Name = 51137450
REMARK  8 active torsions:
REMARK  status: ('A' for Active; 'I' for Inactive)
REMARK    1  A    between atoms: O_2  and  C_22
REMARK    2  A    between atoms: O_2  and  C_28
REMARK    3  A    between atoms: O_3  and  C_24
REMARK    4  A    between atoms: N_5  and  C_12
REMARK    5  A    between atoms: C_8  and  C_13
REMARK    6  A    between atoms: C_12  and  C_14
REMARK    7  A    between atoms: C_17  and  C_20
REMARK    8  A    between atoms: C_21  and  C_24
REMARK                            x       y       z     vdW  Elec       q    Type
REMARK                         _______ _______ _______ _____ _____    ______ ____
ROOT
ATOM      5  N   UNL     1      -2.859   5.006  25.487  0.00  0.00    -0.297 NA
ATOM      8  C   UNL     1      -4.729   3.624  25.181  0.00  0.00    +0.092 C 
ATOM      9  C   UNL     1      -4.606   4.002  26.668  0.00  0.00    +0.029 C 
ATOM     10  C   UNL     1      -3.364   3.976  24.577  0.00  0.00    +0.097 C 
ATOM     11  C   UNL     1      -3.180   4.514  26.827  0.00  0.00    +0.085 C 
ENDROOT
BRANCH   8  13
ATOM      1  O   UNL     1      -4.137   1.281  24.792  0.00  0.00    -0.420 OA
ATOM      6  N   UNL     1      -6.338   1.676  24.795  0.00  0.00    -0.112 NA
ATOM      7  N   UNL     1      -6.148   0.326  24.567  0.00  0.00    -0.107 NA
ATOM     13  C   UNL     1      -5.138   2.193  24.921  0.00  0.00    +0.222 A 
ATOM     17  C   UNL     1      -4.848   0.142  24.573  0.00  0.00    +0.252 A 
BRANCH  17  20
ATOM     20  C   UNL     1      -4.077  -1.054  24.390  0.00  0.00    +0.080 A 
ATOM     22  C   UNL     1      -2.763  -1.136  24.850  0.00  0.00    +0.132 A 
ATOM     23  C   UNL     1      -4.657  -2.144  23.739  0.00  0.00    +0.017 A 
ATOM     25  C   UNL     1      -2.029  -2.307  24.661  0.00  0.00    +0.046 A 
ATOM     26  C   UNL     1      -3.923  -3.314  23.549  0.00  0.00    +0.001 A 
ATOM     27  C   UNL     1      -2.610  -3.396  24.010  0.00  0.00    +0.004 A 
BRANCH  22   2
ATOM      2  O   UNL     1      -2.170  -0.087  25.488  0.00  0.00    -0.494 OA
ATOM     28  C   UNL     1      -1.152  -0.398  26.436  0.00  0.00    +0.277 C 
ENDBRANCH  22   2
ENDBRANCH  17  20
ENDBRANCH   8  13
BRANCH   5  12
ATOM     12  C   UNL     1      -1.435   5.252  25.313  0.00  0.00    +0.119 C 
BRANCH  12  14
ATOM     14  C   UNL     1      -0.706   4.020  24.847  0.00  0.00    -0.033 A 
ATOM     15  C   UNL     1      -0.139   3.150  25.779  0.00  0.00    +0.006 A 
ATOM     16  C   UNL     1      -0.598   3.748  23.483  0.00  0.00    +0.006 A 
ATOM     18  C   UNL     1       0.536   2.009  25.347  0.00  0.00    +0.015 A 
ATOM     19  C   UNL     1       0.077   2.605  23.051  0.00  0.00    +0.015 A 
ATOM     21  C   UNL     1       0.644   1.736  23.984  0.00  0.00    +0.059 A 
BRANCH  21  24
ATOM      4  O   UNL     1       0.877  -0.598  23.509  0.00  0.00    -0.245 OA
ATOM     24  C   UNL     1       1.346   0.545  23.534  0.00  0.00    +0.337 C 
BRANCH  24   3
ATOM      3  O   UNL     1       2.619   0.813  23.128  0.00  0.00    -0.477 OA
ATOM     29  H   UNL     1       3.006   1.570  23.617  0.00  0.00    +0.295 HD
ENDBRANCH  24   3
ENDBRANCH  21  24
ENDBRANCH  12  14
ENDBRANCH   5  12
TORSDOF 7
ENDMDL
MODEL 5
REMARK VINA RESULT:      -1.7     19.022     20.521
REMARK  Name = 51137450
REMARK  8 active torsions:
REMARK  status: ('A' for Active; 'I' for Inactive)
REMARK    1  A    between atoms: O_2  and  C_22
REMARK    2  A    between atoms: O_2  and  C_28
REMARK    3  A    between atoms: O_3  and  C_24
REMARK    4  A    between atoms: N_5  and  C_12
REMARK    5  A    between atoms: C_8  and  C_13
REMARK    6  A    between atoms: C_12  and  C_14
REMARK    7  A    between atoms: C_17  and  C_20
REMARK    8  A    between atoms: C_21  and  C_24
REMARK                            x       y       z     vdW  Elec       q    Type
REMARK                         _______ _______ _______ _____ _____    ______ ____
ROOT
ATOM      5  N   UNL     1      -0.598   4.876  24.980  0.00  0.00    -0.297 NA
ATOM      8  C   UNL     1       0.530   2.859  24.578  0.00  0.00    +0.092 C 
ATOM      9  C   UNL     1       0.686   3.789  23.361  0.00  0.00    +0.029 C 
ATOM     10  C   UNL     1      -0.622   3.469  25.386  0.00  0.00    +0.097 C 
ATOM     11  C   UNL     1      -0.397   4.847  23.531  0.00  0.00    +0.085 C 
ENDROOT
BRANCH   8  13
ATOM      1  O   UNL     1      -0.940   0.906  24.454  0.00  0.00    -0.420 OA
ATOM      6  N   UNL     1       1.152   0.518  23.763  0.00  0.00    -0.112 NA
ATOM      7  N   UNL     1       0.437  -0.659  23.640  0.00  0.00    -0.107 NA
ATOM     13  C   UNL     1       0.309   1.404  24.241  0.00  0.00    +0.222 A 
ATOM     17  C   UNL     1      -0.778  -0.385  24.056  0.00  0.00    +0.252 A 
BRANCH  17  20
ATOM     20  C   UNL     1      -1.939  -1.222  24.151  0.00  0.00    +0.080 A 
ATOM     22  C   UNL     1      -3.216  -0.697  23.957  0.00  0.00    +0.132 A 
ATOM     23  C   UNL     1      -1.779  -2.577  24.443  0.00  0.00    +0.017 A 
ATOM     25  C   UNL     1      -4.334  -1.527  24.055  0.00  0.00    +0.046 A 
ATOM     26  C   UNL     1      -2.895  -3.406  24.541  0.00  0.00    +0.001 A 
ATOM     27  C   UNL     1      -4.172  -2.881  24.347  0.00  0.00    +0.004 A 
BRANCH  22   2
ATOM      2  O   UNL     1      -3.404   0.624  23.671  0.00  0.00    -0.494 OA
ATOM     28  C   UNL     1      -2.952   1.081  22.399  0.00  0.00    +0.277 C 
ENDBRANCH  22   2
ENDBRANCH  17  20
ENDBRANCH   8  13
BRANCH   5  12
ATOM     12  C   UNL     1      -1.812   5.584  25.357  0.00  0.00    +0.119 C 
BRANCH  12  14
ATOM     14  C   UNL     1      -3.003   4.664  25.415  0.00  0.00    -0.033 A 
ATOM     15  C   UNL     1      -3.619   4.247  24.234  0.00  0.00    +0.006 A 
ATOM     16  C   UNL     1      -3.488   4.229  26.648  0.00  0.00    +0.006 A 
ATOM     18  C   UNL     1      -4.722   3.394  24.288  0.00  0.00    +0.015 A 
ATOM     19  C   UNL     1      -4.591   3.376  26.701  0.00  0.00    +0.015 A 
ATOM     21  C   UNL     1      -5.208   2.959  25.521  0.00  0.00    +0.059 A 
BRANCH  21  24
ATOM      4  O   UNL     1      -6.949   1.601  24.598  0.00  0.00    -0.245 OA
ATOM     24  C   UNL     1      -6.357   2.069  25.576  0.00  0.00    +0.337 C 
BRANCH  24   3
ATOM      3  O   UNL     1      -6.736   1.787  26.854  0.00  0.00    -0.477 OA
ATOM     29  H   UNL     1      -7.704   1.883  26.977  0.00  0.00    +0.295 HD
ENDBRANCH  24   3
ENDBRANCH  21  24
ENDBRANCH  12  14
ENDBRANCH   5  12
TORSDOF 7
ENDMDL
MODEL 6
REMARK VINA RESULT:      -1.0     18.606     20.147
REMARK  Name = 51137450
REMARK  8 active torsions:
REMARK  status: ('A' for Active; 'I' for Inactive)
REMARK    1  A    between atoms: O_2  and  C_22
REMARK    2  A    between atoms: O_2  and  C_28
REMARK    3  A    between atoms: O_3  and  C_24
REMARK    4  A    between atoms: N_5  and  C_12
REMARK    5  A    between atoms: C_8  and  C_13
REMARK    6  A    between atoms: C_12  and  C_14
REMARK    7  A    between atoms: C_17  and  C_20
REMARK    8  A    between atoms: C_21  and  C_24
REMARK                            x       y       z     vdW  Elec       q    Type
REMARK                         _______ _______ _______ _____ _____    ______ ____
ROOT
ATOM      5  N   UNL     1      -1.604  -2.816  24.397  0.00  0.00    -0.297 NA
ATOM      8  C   UNL     1       0.110  -1.305  23.862  0.00  0.00    +0.092 C 
ATOM      9  C   UNL     1       0.461  -2.040  25.168  0.00  0.00    +0.029 C 
ATOM     10  C   UNL     1      -1.388  -1.569  23.658  0.00  0.00    +0.097 C 
ATOM     11  C   UNL     1      -0.853  -2.650  25.642  0.00  0.00    +0.085 C 
ENDROOT
BRANCH   8  13
ATOM      1  O   UNL     1      -0.526   1.032  24.216  0.00  0.00    -0.420 OA
ATOM      6  N   UNL     1       1.584   0.755  23.527  0.00  0.00    -0.112 NA
ATOM      7  N   UNL     1       1.362   2.110  23.686  0.00  0.00    -0.107 NA
ATOM     13  C   UNL     1       0.456   0.165  23.848  0.00  0.00    +0.222 A 
ATOM     17  C   UNL     1       0.117   2.224  24.088  0.00  0.00    +0.252 A 
BRANCH  17  20
ATOM     20  C   UNL     1      -0.653   3.390  24.410  0.00  0.00    +0.080 A 
ATOM     22  C   UNL     1      -2.047   3.349  24.412  0.00  0.00    +0.132 A 
ATOM     23  C   UNL     1       0.009   4.578  24.722  0.00  0.00    +0.017 A 
ATOM     25  C   UNL     1      -2.779   4.494  24.727  0.00  0.00    +0.046 A 
ATOM     26  C   UNL     1      -0.722   5.723  25.036  0.00  0.00    +0.001 A 
ATOM     27  C   UNL     1      -2.116   5.681  25.039  0.00  0.00    +0.004 A 
BRANCH  22   2
ATOM      2  O   UNL     1      -2.722   2.203  24.110  0.00  0.00    -0.494 OA
ATOM     28  C   UNL     1      -3.174   2.053  22.767  0.00  0.00    +0.277 C 
ENDBRANCH  22   2
ENDBRANCH  17  20
ENDBRANCH   8  13
BRANCH   5  12
ATOM     12  C   UNL     1      -3.014  -3.085  24.633  0.00  0.00    +0.119 C 
BRANCH  12  14
ATOM     14  C   UNL     1      -3.796  -1.820  24.866  0.00  0.00    -0.033 A 
ATOM     15  C   UNL     1      -3.586  -1.075  26.027  0.00  0.00    +0.006 A 
ATOM     16  C   UNL     1      -4.728  -1.392  23.921  0.00  0.00    +0.006 A 
ATOM     18  C   UNL     1      -4.310   0.098  26.243  0.00  0.00    +0.015 A 
ATOM     19  C   UNL     1      -5.452  -0.219  24.137  0.00  0.00    +0.015 A 
ATOM     21  C   UNL     1      -5.243   0.525  25.299  0.00  0.00    +0.059 A 
BRANCH  21  24
ATOM      4  O   UNL     1      -5.678   2.654  26.302  0.00  0.00    -0.245 OA
ATOM     24  C   UNL     1      -5.996   1.749  25.524  0.00  0.00    +0.337 C 
BRANCH  24   3
ATOM      3  O   UNL     1      -7.129   1.809  24.770  0.00  0.00    -0.477 OA
ATOM     29  H   UNL     1      -7.710   1.034  24.923  0.00  0.00    +0.295 HD
ENDBRANCH  24   3
ENDBRANCH  21  24
ENDBRANCH  12  14
ENDBRANCH   5  12
TORSDOF 7
ENDMDL
MODEL 7
REMARK VINA RESULT:      -0.9     18.351     20.197
REMARK  Name = 51137450
REMARK  8 active torsions:
REMARK  status: ('A' for Active; 'I' for Inactive)
REMARK    1  A    between atoms: O_2  and  C_22
REMARK    2  A    between atoms: O_2  and  C_28
REMARK    3  A    between atoms: O_3  and  C_24
REMARK    4  A    between atoms: N_5  and  C_12
REMARK    5  A    between atoms: C_8  and  C_13
REMARK    6  A    between atoms: C_12  and  C_14
REMARK    7  A    between atoms: C_17  and  C_20
REMARK    8  A    between atoms: C_21  and  C_24
REMARK                            x       y       z     vdW  Elec       q    Type
REMARK                         _______ _______ _______ _____ _____    ______ ____
ROOT
ATOM      5  N   UNL     1      -3.636  -2.261  25.100  0.00  0.00    -0.297 NA
ATOM      8  C   UNL     1      -4.903  -0.306  25.377  0.00  0.00    +0.092 C 
ATOM      9  C   UNL     1      -5.195  -0.918  23.995  0.00  0.00    +0.029 C 
ATOM     10  C   UNL     1      -3.616  -0.999  25.844  0.00  0.00    +0.097 C 
ATOM     11  C   UNL     1      -4.051  -1.893  23.746  0.00  0.00    +0.085 C 
ENDROOT
BRANCH   8  13
ATOM      1  O   UNL     1      -3.567   1.736  25.183  0.00  0.00    -0.420 OA
ATOM      6  N   UNL     1      -5.736   2.101  25.590  0.00  0.00    -0.112 NA
ATOM      7  N   UNL     1      -5.106   3.328  25.504  0.00  0.00    -0.107 NA
ATOM     13  C   UNL     1      -4.800   1.201  25.395  0.00  0.00    +0.222 A 
ATOM     17  C   UNL     1      -3.842   3.067  25.267  0.00  0.00    +0.252 A 
BRANCH  17  20
ATOM     20  C   UNL     1      -2.728   3.950  25.083  0.00  0.00    +0.080 A 
ATOM     22  C   UNL     1      -1.422   3.462  25.068  0.00  0.00    +0.132 A 
ATOM     23  C   UNL     1      -2.963   5.316  24.920  0.00  0.00    +0.017 A 
ATOM     25  C   UNL     1      -0.351   4.338  24.889  0.00  0.00    +0.046 A 
ATOM     26  C   UNL     1      -1.892   6.192  24.743  0.00  0.00    +0.001 A 
ATOM     27  C   UNL     1      -0.587   5.703  24.727  0.00  0.00    +0.004 A 
BRANCH  22   2
ATOM      2  O   UNL     1      -1.161   2.132  25.225  0.00  0.00    -0.494 OA
ATOM     28  C   UNL     1      -0.239   1.771  26.251  0.00  0.00    +0.277 C 
ENDBRANCH  22   2
ENDBRANCH  17  20
ENDBRANCH   8  13
BRANCH   5  12
ATOM     12  C   UNL     1      -2.349  -2.939  25.120  0.00  0.00    +0.119 C 
BRANCH  12  14
ATOM     14  C   UNL     1      -1.248  -2.067  24.577  0.00  0.00    -0.033 A 
ATOM     15  C   UNL     1       0.051  -2.194  25.073  0.00  0.00    +0.006 A 
ATOM     16  C   UNL     1      -1.525  -1.133  23.580  0.00  0.00    +0.006 A 
ATOM     18  C   UNL     1       1.071  -1.386  24.570  0.00  0.00    +0.015 A 
ATOM     19  C   UNL     1      -0.505  -0.325  23.076  0.00  0.00    +0.015 A 
ATOM     21  C   UNL     1       0.793  -0.452  23.572  0.00  0.00    +0.059 A 
BRANCH  21  24
ATOM      4  O   UNL     1       2.658   0.064  22.164  0.00  0.00    -0.245 OA
ATOM     24  C   UNL     1       1.858   0.389  23.047  0.00  0.00    +0.337 C 
BRANCH  24   3
ATOM      3  O   UNL     1       1.894   1.614  23.640  0.00  0.00    -0.477 OA
ATOM     29  H   UNL     1       2.281   1.572  24.540  0.00  0.00    +0.295 HD
ENDBRANCH  24   3
ENDBRANCH  21  24
ENDBRANCH  12  14
ENDBRANCH   5  12
TORSDOF 7
ENDMDL
MODEL 8
REMARK VINA RESULT:      -0.4     18.184     19.817
REMARK  Name = 51137450
REMARK  8 active torsions:
REMARK  status: ('A' for Active; 'I' for Inactive)
REMARK    1  A    between atoms: O_2  and  C_22
REMARK    2  A    between atoms: O_2  and  C_28
REMARK    3  A    between atoms: O_3  and  C_24
REMARK    4  A    between atoms: N_5  and  C_12
REMARK    5  A    between atoms: C_8  and  C_13
REMARK    6  A    between atoms: C_12  and  C_14
REMARK    7  A    between atoms: C_17  and  C_20
REMARK    8  A    between atoms: C_21  and  C_24
REMARK                            x       y       z     vdW  Elec       q    Type
REMARK                         _______ _______ _______ _____ _____    ______ ____
ROOT
ATOM      5  N   UNL     1      -5.134   0.159  24.762  0.00  0.00    -0.297 NA
ATOM      8  C   UNL     1      -3.408  -1.429  24.705  0.00  0.00    +0.092 C 
ATOM      9  C   UNL     1      -3.971  -1.331  26.135  0.00  0.00    +0.029 C 
ATOM     10  C   UNL     1      -3.931  -0.173  23.995  0.00  0.00    +0.097 C 
ATOM     11  C   UNL     1      -4.750  -0.021  26.163  0.00  0.00    +0.085 C 
ENDROOT
BRANCH   8  13
ATOM      1  O   UNL     1      -1.219  -0.526  24.087  0.00  0.00    -0.420 OA
ATOM      6  N   UNL     1      -1.140  -2.570  24.993  0.00  0.00    -0.112 NA
ATOM      7  N   UNL     1       0.154  -2.185  24.695  0.00  0.00    -0.107 NA
ATOM     13  C   UNL     1      -1.907  -1.571  24.622  0.00  0.00    +0.222 A 
ATOM     17  C   UNL     1       0.059  -0.987  24.168  0.00  0.00    +0.252 A 
BRANCH  17  20
ATOM     20  C   UNL     1       1.076  -0.104  23.674  0.00  0.00    +0.080 A 
ATOM     22  C   UNL     1       1.000   1.271  23.895  0.00  0.00    +0.132 A 
ATOM     23  C   UNL     1       2.153  -0.637  22.964  0.00  0.00    +0.017 A 
ATOM     25  C   UNL     1       1.998   2.113  23.406  0.00  0.00    +0.046 A 
ATOM     26  C   UNL     1       3.151   0.205  22.474  0.00  0.00    +0.001 A 
ATOM     27  C   UNL     1       3.074   1.579  22.695  0.00  0.00    +0.004 A 
BRANCH  22   2
ATOM      2  O   UNL     1      -0.041   1.820  24.585  0.00  0.00    -0.494 OA
ATOM     28  C   UNL     1       0.192   2.149  25.953  0.00  0.00    +0.277 C 
ENDBRANCH  22   2
ENDBRANCH  17  20
ENDBRANCH   8  13
BRANCH   5  12
ATOM     12  C   UNL     1      -5.614   1.505  24.488  0.00  0.00    +0.119 C 
BRANCH  12  14
ATOM     14  C   UNL     1      -4.514   2.527  24.606  0.00  0.00    -0.033 A 
ATOM     15  C   UNL     1      -3.598   2.689  23.565  0.00  0.00    +0.006 A 
ATOM     16  C   UNL     1      -4.411   3.312  25.754  0.00  0.00    +0.006 A 
ATOM     18  C   UNL     1      -2.579   3.635  23.674  0.00  0.00    +0.015 A 
ATOM     19  C   UNL     1      -3.392   4.259  25.863  0.00  0.00    +0.015 A 
ATOM     21  C   UNL     1      -2.476   4.420  24.822  0.00  0.00    +0.059 A 
BRANCH  21  24
ATOM      4  O   UNL     1      -1.560   6.577  25.308  0.00  0.00    -0.245 OA
ATOM     24  C   UNL     1      -1.415   5.408  24.935  0.00  0.00    +0.337 C 
BRANCH  24   3
ATOM      3  O   UNL     1      -0.199   4.909  24.576  0.00  0.00    -0.477 OA
ATOM     29  H   UNL     1      -0.282   4.177  23.929  0.00  0.00    +0.295 HD
ENDBRANCH  24   3
ENDBRANCH  21  24
ENDBRANCH  12  14
ENDBRANCH   5  12
TORSDOF 7
ENDMDL
MODEL 9
REMARK VINA RESULT:      -0.3     18.572     19.808
REMARK  Name = 51137450
REMARK  8 active torsions:
REMARK  status: ('A' for Active; 'I' for Inactive)
REMARK    1  A    between atoms: O_2  and  C_22
REMARK    2  A    between atoms: O_2  and  C_28
REMARK    3  A    between atoms: O_3  and  C_24
REMARK    4  A    between atoms: N_5  and  C_12
REMARK    5  A    between atoms: C_8  and  C_13
REMARK    6  A    between atoms: C_12  and  C_14
REMARK    7  A    between atoms: C_17  and  C_20
REMARK    8  A    between atoms: C_21  and  C_24
REMARK                            x       y       z     vdW  Elec       q    Type
REMARK                         _______ _______ _______ _____ _____    ______ ____
ROOT
ATOM      5  N   UNL     1      -5.180   3.022  26.076  0.00  0.00    -0.297 NA
ATOM      8  C   UNL     1      -3.120   4.123  25.851  0.00  0.00    +0.092 C 
ATOM      9  C   UNL     1      -4.177   4.822  24.976  0.00  0.00    +0.029 C 
ATOM     10  C   UNL     1      -3.743   2.765  26.199  0.00  0.00    +0.097 C 
ATOM     11  C   UNL     1      -5.316   3.818  24.855  0.00  0.00    +0.085 C 
ENDROOT
BRANCH   8  13
ATOM      1  O   UNL     1      -1.375   2.760  24.808  0.00  0.00    -0.420 OA
ATOM      6  N   UNL     1      -0.848   4.926  24.999  0.00  0.00    -0.112 NA
ATOM      7  N   UNL     1       0.216   4.280  24.399  0.00  0.00    -0.107 NA
ATOM     13  C   UNL     1      -1.754   4.001  25.219  0.00  0.00    +0.222 A 
ATOM     17  C   UNL     1      -0.136   3.018  24.308  0.00  0.00    +0.252 A 
BRANCH  17  20
ATOM     20  C   UNL     1       0.571   1.892  23.772  0.00  0.00    +0.080 A 
ATOM     22  C   UNL     1      -0.109   0.739  23.382  0.00  0.00    +0.132 A 
ATOM     23  C   UNL     1       1.959   1.959  23.642  0.00  0.00    +0.017 A 
ATOM     25  C   UNL     1       0.596  -0.347  22.864  0.00  0.00    +0.046 A 
ATOM     26  C   UNL     1       2.665   0.873  23.125  0.00  0.00    +0.001 A 
ATOM     27  C   UNL     1       1.984  -0.279  22.735  0.00  0.00    +0.004 A 
BRANCH  22   2
ATOM      2  O   UNL     1      -1.466   0.644  23.498  0.00  0.00    -0.494 OA
ATOM     28  C   UNL     1      -2.246   1.276  22.487  0.00  0.00    +0.277 C 
ENDBRANCH  22   2
ENDBRANCH  17  20
ENDBRANCH   8  13
BRANCH   5  12
ATOM     12  C   UNL     1      -5.961   1.796  26.028  0.00  0.00    +0.119 C 
BRANCH  12  14
ATOM     14  C   UNL     1      -5.137   0.623  25.567  0.00  0.00    -0.033 A 
ATOM     15  C   UNL     1      -4.233   0.019  26.442  0.00  0.00    +0.006 A 
ATOM     16  C   UNL     1      -5.278   0.139  24.267  0.00  0.00    +0.006 A 
ATOM     18  C   UNL     1      -3.469  -1.067  26.015  0.00  0.00    +0.015 A 
ATOM     19  C   UNL     1      -4.515  -0.948  23.840  0.00  0.00    +0.015 A 
ATOM     21  C   UNL     1      -3.610  -1.550  24.715  0.00  0.00    +0.059 A 
BRANCH  21  24
ATOM      4  O   UNL     1      -1.584  -2.704  24.176  0.00  0.00    -0.245 OA
ATOM     24  C   UNL     1      -2.815  -2.685  24.270  0.00  0.00    +0.337 C 
BRANCH  24   3
ATOM      3  O   UNL     1      -3.582  -3.765  23.954  0.00  0.00    -0.477 OA
ATOM     29  H   UNL     1      -3.808  -4.297  24.746  0.00  0.00    +0.295 HD
ENDBRANCH  24   3
ENDBRANCH  21  24
ENDBRANCH  12  14
ENDBRANCH   5  12
TORSDOF 7
ENDMDL
