MODEL 1
REMARK VINA RESULT:      -2.9      0.000      0.000
REMARK  Name = 75536068
REMARK  7 active torsions:
REMARK  status: ('A' for Active; 'I' for Inactive)
REMARK    1  A    between atoms: O_1  and  C_9
REMARK    2  A    between atoms: O_2  and  C_11
REMARK    3  A    between atoms: O_4  and  C_19
REMARK    4  A    between atoms: O_4  and  C_24
REMARK    5  A    between atoms: N_5  and  C_8
REMARK    6  A    between atoms: C_7  and  C_12
REMARK    7  A    between atoms: C_15  and  C_17
REMARK                            x       y       z     vdW  Elec       q    Type
REMARK                         _______ _______ _______ _____ _____    ______ ____
ROOT
ATOM      7  C   UNL     1      -3.137   0.373  25.226  0.00  0.00    +0.046 C 
ATOM      8  C   UNL     1      -2.885  -0.110  23.769  0.00  0.00    +0.112 C 
ATOM      9  C   UNL     1      -3.105  -1.631  23.794  0.00  0.00    +0.164 C 
ATOM     10  C   UNL     1      -3.625  -0.867  25.992  0.00  0.00    +0.044 C 
ATOM     11  C   UNL     1      -2.938  -2.011  25.262  0.00  0.00    +0.145 C 
ENDROOT
BRANCH   7  12
ATOM      6  N   UNL     1      -4.396   3.942  25.472  0.00  0.00    -0.263 NA
ATOM     12  C   UNL     1      -4.083   1.548  25.332  0.00  0.00    -0.024 A 
ATOM     13  C   UNL     1      -5.459   1.358  25.392  0.00  0.00    +0.007 A 
ATOM     14  C   UNL     1      -3.606   2.849  25.375  0.00  0.00    +0.114 A 
ATOM     16  C   UNL     1      -6.304   2.458  25.491  0.00  0.00    +0.020 A 
ATOM     18  C   UNL     1      -5.728   3.716  25.527  0.00  0.00    +0.111 A 
ENDBRANCH   7  12
BRANCH   8   5
ATOM      3  O   UNL     1      -0.432  -1.168  24.829  0.00  0.00    -0.270 OA
ATOM      5  N   UNL     1      -1.546   0.217  23.338  0.00  0.00    -0.305 N 
ATOM     15  C   UNL     1      -0.416  -0.349  23.913  0.00  0.00    +0.248 C 
ATOM     25  H   UNL     1      -1.455   0.814  22.523  0.00  0.00    +0.149 HD
BRANCH  15  17
ATOM     17  C   UNL     1       0.890   0.112  23.375  0.00  0.00    +0.078 A 
ATOM     19  C   UNL     1       1.464   1.305  23.814  0.00  0.00    +0.132 A 
ATOM     20  C   UNL     1       1.543  -0.666  22.420  0.00  0.00    +0.017 A 
ATOM     21  C   UNL     1       2.690   1.721  23.296  0.00  0.00    +0.046 A 
ATOM     22  C   UNL     1       2.770  -0.251  21.902  0.00  0.00    +0.001 A 
ATOM     23  C   UNL     1       3.344   0.943  22.340  0.00  0.00    +0.004 A 
BRANCH  19   4
ATOM      4  O   UNL     1       0.840   2.081  24.746  0.00  0.00    -0.494 OA
ATOM     24  C   UNL     1      -0.037   3.096  24.261  0.00  0.00    +0.277 C 
ENDBRANCH  19   4
ENDBRANCH  15  17
ENDBRANCH   8   5
BRANCH   9   1
ATOM      1  O   UNL     1      -4.437  -1.893  23.355  0.00  0.00    -0.387 OA
ATOM     26  H   UNL     1      -4.451  -1.788  22.389  0.00  0.00    +0.210 HD
ENDBRANCH   9   1
BRANCH  11   2
ATOM      2  O   UNL     1      -3.531  -3.255  25.576  0.00  0.00    -0.389 OA
ATOM     27  H   UNL     1      -2.893  -3.756  26.112  0.00  0.00    +0.210 HD
ENDBRANCH  11   2
TORSDOF 6
ENDMDL
MODEL 2
REMARK VINA RESULT:      -2.8      1.721      6.050
REMARK  Name = 75536068
REMARK  7 active torsions:
REMARK  status: ('A' for Active; 'I' for Inactive)
REMARK    1  A    between atoms: O_1  and  C_9
REMARK    2  A    between atoms: O_2  and  C_11
REMARK    3  A    between atoms: O_4  and  C_19
REMARK    4  A    between atoms: O_4  and  C_24
REMARK    5  A    between atoms: N_5  and  C_8
REMARK    6  A    between atoms: C_7  and  C_12
REMARK    7  A    between atoms: C_15  and  C_17
REMARK                            x       y       z     vdW  Elec       q    Type
REMARK                         _______ _______ _______ _____ _____    ______ ____
ROOT
ATOM      7  C   UNL     1      -0.489  -0.273  23.618  0.00  0.00    +0.046 C 
ATOM      8  C   UNL     1      -0.756  -0.040  25.133  0.00  0.00    +0.112 C 
ATOM      9  C   UNL     1      -1.303  -1.374  25.665  0.00  0.00    +0.164 C 
ATOM     10  C   UNL     1      -0.763  -1.766  23.376  0.00  0.00    +0.044 C 
ATOM     11  C   UNL     1      -1.818  -2.093  24.422  0.00  0.00    +0.145 C 
ENDROOT
BRANCH   7  12
ATOM      6  N   UNL     1       2.769   1.658  23.404  0.00  0.00    -0.263 NA
ATOM     12  C   UNL     1       0.885   0.161  23.159  0.00  0.00    -0.024 A 
ATOM     13  C   UNL     1       1.528  -0.487  22.111  0.00  0.00    +0.007 A 
ATOM     14  C   UNL     1       1.542   1.219  23.767  0.00  0.00    +0.114 A 
ATOM     16  C   UNL     1       2.791  -0.065  21.709  0.00  0.00    +0.020 A 
ATOM     18  C   UNL     1       3.362   1.002  22.382  0.00  0.00    +0.111 A 
ENDBRANCH   7  12
BRANCH   8   5
ATOM      3  O   UNL     1      -3.344   0.218  23.910  0.00  0.00    -0.270 OA
ATOM      5  N   UNL     1      -1.703   1.032  25.334  0.00  0.00    -0.305 N 
ATOM     15  C   UNL     1      -2.936   1.070  24.696  0.00  0.00    +0.248 C 
ATOM     25  H   UNL     1      -1.476   1.723  26.041  0.00  0.00    +0.149 HD
BRANCH  15  17
ATOM     17  C   UNL     1      -3.785   2.254  24.988  0.00  0.00    +0.078 A 
ATOM     19  C   UNL     1      -3.252   3.542  24.958  0.00  0.00    +0.132 A 
ATOM     20  C   UNL     1      -5.132   2.063  25.295  0.00  0.00    +0.017 A 
ATOM     21  C   UNL     1      -4.065   4.640  25.236  0.00  0.00    +0.046 A 
ATOM     22  C   UNL     1      -5.946   3.161  25.573  0.00  0.00    +0.001 A 
ATOM     23  C   UNL     1      -5.413   4.450  25.544  0.00  0.00    +0.004 A 
BRANCH  19   4
ATOM      4  O   UNL     1      -1.937   3.749  24.662  0.00  0.00    -0.494 OA
ATOM     24  C   UNL     1      -1.361   4.978  25.100  0.00  0.00    +0.277 C 
ENDBRANCH  19   4
ENDBRANCH  15  17
ENDBRANCH   8   5
BRANCH   9   1
ATOM      1  O   UNL     1      -0.221  -2.095  26.251  0.00  0.00    -0.387 OA
ATOM     26  H   UNL     1      -0.390  -3.042  26.105  0.00  0.00    +0.210 HD
ENDBRANCH   9   1
BRANCH  11   2
ATOM      2  O   UNL     1      -1.947  -3.487  24.609  0.00  0.00    -0.389 OA
ATOM     27  H   UNL     1      -1.646  -3.691  25.511  0.00  0.00    +0.210 HD
ENDBRANCH  11   2
TORSDOF 6
ENDMDL
MODEL 3
REMARK VINA RESULT:      -1.9      2.312      6.442
REMARK  Name = 75536068
REMARK  7 active torsions:
REMARK  status: ('A' for Active; 'I' for Inactive)
REMARK    1  A    between atoms: O_1  and  C_9
REMARK    2  A    between atoms: O_2  and  C_11
REMARK    3  A    between atoms: O_4  and  C_19
REMARK    4  A    between atoms: O_4  and  C_24
REMARK    5  A    between atoms: N_5  and  C_8
REMARK    6  A    between atoms: C_7  and  C_12
REMARK    7  A    between atoms: C_15  and  C_17
REMARK                            x       y       z     vdW  Elec       q    Type
REMARK                         _______ _______ _______ _____ _____    ______ ____
ROOT
ATOM      7  C   UNL     1       0.774  -0.204  23.262  0.00  0.00    +0.046 C 
ATOM      8  C   UNL     1       0.157   0.233  24.622  0.00  0.00    +0.112 C 
ATOM      9  C   UNL     1      -0.786  -0.909  25.033  0.00  0.00    +0.164 C 
ATOM     10  C   UNL     1       0.266  -1.635  23.020  0.00  0.00    +0.044 C 
ATOM     11  C   UNL     1      -1.080  -1.643  23.729  0.00  0.00    +0.145 C 
ENDROOT
BRANCH   7  12
ATOM      6  N   UNL     1       4.446  -1.100  23.571  0.00  0.00    -0.263 NA
ATOM     12  C   UNL     1       2.281  -0.089  23.202  0.00  0.00    -0.024 A 
ATOM     13  C   UNL     1       2.893   1.073  22.747  0.00  0.00    +0.007 A 
ATOM     14  C   UNL     1       3.095  -1.138  23.598  0.00  0.00    +0.114 A 
ATOM     16  C   UNL     1       4.281   1.150  22.704  0.00  0.00    +0.020 A 
ATOM     18  C   UNL     1       5.005   0.046  23.122  0.00  0.00    +0.111 A 
ENDBRANCH   7  12
BRANCH   8   5
ATOM      3  O   UNL     1      -0.017   2.330  26.579  0.00  0.00    -0.270 OA
ATOM      5  N   UNL     1      -0.559   1.481  24.489  0.00  0.00    -0.305 N 
ATOM     15  C   UNL     1      -0.584   2.438  25.494  0.00  0.00    +0.248 C 
ATOM     25  H   UNL     1      -0.973   1.683  23.585  0.00  0.00    +0.149 HD
BRANCH  15  17
ATOM     17  C   UNL     1      -1.387   3.657  25.214  0.00  0.00    +0.078 A 
ATOM     19  C   UNL     1      -2.775   3.588  25.098  0.00  0.00    +0.132 A 
ATOM     20  C   UNL     1      -0.735   4.880  25.068  0.00  0.00    +0.017 A 
ATOM     21  C   UNL     1      -3.511   4.743  24.834  0.00  0.00    +0.046 A 
ATOM     22  C   UNL     1      -1.469   6.036  24.804  0.00  0.00    +0.001 A 
ATOM     23  C   UNL     1      -2.858   5.968  24.687  0.00  0.00    +0.004 A 
BRANCH  19   4
ATOM      4  O   UNL     1      -3.431   2.401  25.236  0.00  0.00    -0.494 OA
ATOM     24  C   UNL     1      -4.657   2.252  24.521  0.00  0.00    +0.277 C 
ENDBRANCH  19   4
ENDBRANCH  15  17
ENDBRANCH   8   5
BRANCH   9   1
ATOM      1  O   UNL     1      -0.085  -1.757  25.941  0.00  0.00    -0.387 OA
ATOM     26  H   UNL     1       0.394  -2.417  25.411  0.00  0.00    +0.210 HD
ENDBRANCH   9   1
BRANCH  11   2
ATOM      2  O   UNL     1      -1.548  -2.960  23.935  0.00  0.00    -0.389 OA
ATOM     27  H   UNL     1      -2.514  -2.917  24.024  0.00  0.00    +0.210 HD
ENDBRANCH  11   2
TORSDOF 6
ENDMDL
MODEL 4
REMARK VINA RESULT:      -1.9      1.949      6.232
REMARK  Name = 75536068
REMARK  7 active torsions:
REMARK  status: ('A' for Active; 'I' for Inactive)
REMARK    1  A    between atoms: O_1  and  C_9
REMARK    2  A    between atoms: O_2  and  C_11
REMARK    3  A    between atoms: O_4  and  C_19
REMARK    4  A    between atoms: O_4  and  C_24
REMARK    5  A    between atoms: N_5  and  C_8
REMARK    6  A    between atoms: C_7  and  C_12
REMARK    7  A    between atoms: C_15  and  C_17
REMARK                            x       y       z     vdW  Elec       q    Type
REMARK                         _______ _______ _______ _____ _____    ______ ____
ROOT
ATOM      7  C   UNL     1      -0.313  -0.179  23.586  0.00  0.00    +0.046 C 
ATOM      8  C   UNL     1      -0.490  -0.051  25.126  0.00  0.00    +0.112 C 
ATOM      9  C   UNL     1      -1.129  -1.373  25.580  0.00  0.00    +0.164 C 
ATOM     10  C   UNL     1      -0.730  -1.618  23.242  0.00  0.00    +0.044 C 
ATOM     11  C   UNL     1      -1.761  -1.939  24.312  0.00  0.00    +0.145 C 
ENDROOT
BRANCH   7  12
ATOM      6  N   UNL     1       3.069   1.517  23.325  0.00  0.00    -0.263 NA
ATOM     12  C   UNL     1       1.072   0.174  23.091  0.00  0.00    -0.024 A 
ATOM     13  C   UNL     1       1.626  -0.472  21.992  0.00  0.00    +0.007 A 
ATOM     14  C   UNL     1       1.828   1.152  23.717  0.00  0.00    +0.114 A 
ATOM     16  C   UNL     1       2.901  -0.125  21.559  0.00  0.00    +0.020 A 
ATOM     18  C   UNL     1       3.574   0.866  22.253  0.00  0.00    +0.111 A 
ENDBRANCH   7  12
BRANCH   8   5
ATOM      3  O   UNL     1      -2.217   1.395  23.341  0.00  0.00    -0.270 OA
ATOM      5  N   UNL     1      -1.328   1.077  25.461  0.00  0.00    -0.305 N 
ATOM     15  C   UNL     1      -2.133   1.713  24.526  0.00  0.00    +0.248 C 
ATOM     25  H   UNL     1      -1.384   1.337  26.440  0.00  0.00    +0.149 HD
BRANCH  15  17
ATOM     17  C   UNL     1      -2.916   2.875  25.022  0.00  0.00    +0.078 A 
ATOM     19  C   UNL     1      -4.310   2.853  25.018  0.00  0.00    +0.132 A 
ATOM     20  C   UNL     1      -2.237   3.997  25.495  0.00  0.00    +0.017 A 
ATOM     21  C   UNL     1      -5.026   3.954  25.486  0.00  0.00    +0.046 A 
ATOM     22  C   UNL     1      -2.953   5.099  25.964  0.00  0.00    +0.001 A 
ATOM     23  C   UNL     1      -4.348   5.078  25.960  0.00  0.00    +0.004 A 
BRANCH  19   4
ATOM      4  O   UNL     1      -4.992   1.766  24.557  0.00  0.00    -0.494 OA
ATOM     24  C   UNL     1      -6.314   1.572  25.055  0.00  0.00    +0.277 C 
ENDBRANCH  19   4
ENDBRANCH  15  17
ENDBRANCH   8   5
BRANCH   9   1
ATOM      1  O   UNL     1      -0.090  -2.230  26.049  0.00  0.00    -0.387 OA
ATOM     26  H   UNL     1      -0.486  -3.102  26.217  0.00  0.00    +0.210 HD
ENDBRANCH   9   1
BRANCH  11   2
ATOM      2  O   UNL     1      -2.004  -3.329  24.395  0.00  0.00    -0.389 OA
ATOM     27  H   UNL     1      -1.456  -3.763  23.721  0.00  0.00    +0.210 HD
ENDBRANCH  11   2
TORSDOF 6
ENDMDL
MODEL 5
REMARK VINA RESULT:      -1.4      2.432      5.352
REMARK  Name = 75536068
REMARK  7 active torsions:
REMARK  status: ('A' for Active; 'I' for Inactive)
REMARK    1  A    between atoms: O_1  and  C_9
REMARK    2  A    between atoms: O_2  and  C_11
REMARK    3  A    between atoms: O_4  and  C_19
REMARK    4  A    between atoms: O_4  and  C_24
REMARK    5  A    between atoms: N_5  and  C_8
REMARK    6  A    between atoms: C_7  and  C_12
REMARK    7  A    between atoms: C_15  and  C_17
REMARK                            x       y       z     vdW  Elec       q    Type
REMARK                         _______ _______ _______ _____ _____    ______ ____
ROOT
ATOM      7  C   UNL     1      -0.847  -0.493  24.253  0.00  0.00    +0.046 C 
ATOM      8  C   UNL     1      -0.739   0.461  23.029  0.00  0.00    +0.112 C 
ATOM      9  C   UNL     1       0.705   0.321  22.523  0.00  0.00    +0.164 C 
ATOM     10  C   UNL     1       0.495  -1.240  24.313  0.00  0.00    +0.044 C 
ATOM     11  C   UNL     1       1.471  -0.236  23.719  0.00  0.00    +0.145 C 
ENDROOT
BRANCH   7  12
ATOM      6  N   UNL     1      -2.929  -3.658  24.425  0.00  0.00    -0.263 NA
ATOM     12  C   UNL     1      -2.042  -1.419  24.212  0.00  0.00    -0.024 A 
ATOM     13  C   UNL     1      -3.315  -0.934  23.934  0.00  0.00    +0.007 A 
ATOM     14  C   UNL     1      -1.904  -2.777  24.449  0.00  0.00    +0.114 A 
ATOM     16  C   UNL     1      -4.395  -1.810  23.902  0.00  0.00    +0.020 A 
ATOM     18  C   UNL     1      -4.151  -3.149  24.152  0.00  0.00    +0.111 A 
ENDBRANCH   7  12
BRANCH   8   5
ATOM      3  O   UNL     1      -0.999   1.486  25.701  0.00  0.00    -0.270 OA
ATOM      5  N   UNL     1      -1.032   1.824  23.406  0.00  0.00    -0.305 N 
ATOM     15  C   UNL     1      -1.138   2.227  24.730  0.00  0.00    +0.248 C 
ATOM     25  H   UNL     1      -1.066   2.512  22.661  0.00  0.00    +0.149 HD
BRANCH  15  17
ATOM     17  C   UNL     1      -1.470   3.658  24.951  0.00  0.00    +0.078 A 
ATOM     19  C   UNL     1      -2.695   4.031  25.504  0.00  0.00    +0.132 A 
ATOM     20  C   UNL     1      -0.538   4.633  24.599  0.00  0.00    +0.017 A 
ATOM     21  C   UNL     1      -2.988   5.380  25.704  0.00  0.00    +0.046 A 
ATOM     22  C   UNL     1      -0.830   5.983  24.797  0.00  0.00    +0.001 A 
ATOM     23  C   UNL     1      -2.055   6.357  25.350  0.00  0.00    +0.004 A 
BRANCH  19   4
ATOM      4  O   UNL     1      -3.620   3.093  25.854  0.00  0.00    -0.494 OA
ATOM     24  C   UNL     1      -4.922   3.225  25.288  0.00  0.00    +0.277 C 
ENDBRANCH  19   4
ENDBRANCH  15  17
ENDBRANCH   8   5
BRANCH   9   1
ATOM      1  O   UNL     1       0.709  -0.613  21.445  0.00  0.00    -0.387 OA
ATOM     26  H   UNL     1       0.316  -1.439  21.774  0.00  0.00    +0.210 HD
ENDBRANCH   9   1
BRANCH  11   2
ATOM      2  O   UNL     1       2.688  -0.853  23.351  0.00  0.00    -0.389 OA
ATOM     27  H   UNL     1       2.753  -0.818  22.382  0.00  0.00    +0.210 HD
ENDBRANCH  11   2
TORSDOF 6
ENDMDL
MODEL 6
REMARK VINA RESULT:      -1.0      3.028      6.141
REMARK  Name = 75536068
REMARK  7 active torsions:
REMARK  status: ('A' for Active; 'I' for Inactive)
REMARK    1  A    between atoms: O_1  and  C_9
REMARK    2  A    between atoms: O_2  and  C_11
REMARK    3  A    between atoms: O_4  and  C_19
REMARK    4  A    between atoms: O_4  and  C_24
REMARK    5  A    between atoms: N_5  and  C_8
REMARK    6  A    between atoms: C_7  and  C_12
REMARK    7  A    between atoms: C_15  and  C_17
REMARK                            x       y       z     vdW  Elec       q    Type
REMARK                         _______ _______ _______ _____ _____    ______ ____
ROOT
ATOM      7  C   UNL     1      -0.268   2.811  26.339  0.00  0.00    +0.046 C 
ATOM      8  C   UNL     1       0.050   1.753  25.244  0.00  0.00    +0.112 C 
ATOM      9  C   UNL     1       0.192   2.545  23.934  0.00  0.00    +0.164 C 
ATOM     10  C   UNL     1      -0.159   4.175  25.639  0.00  0.00    +0.044 C 
ATOM     11  C   UNL     1      -0.546   3.853  24.204  0.00  0.00    +0.145 C 
ENDROOT
BRANCH   7  12
ATOM      6  N   UNL     1       2.807   2.789  28.559  0.00  0.00    -0.263 NA
ATOM     12  C   UNL     1       0.601   2.704  27.573  0.00  0.00    -0.024 A 
ATOM     13  C   UNL     1       0.047   2.432  28.818  0.00  0.00    +0.007 A 
ATOM     14  C   UNL     1       1.974   2.873  27.497  0.00  0.00    +0.114 A 
ATOM     16  C   UNL     1       0.871   2.338  29.934  0.00  0.00    +0.020 A 
ATOM     18  C   UNL     1       2.231   2.523  29.753  0.00  0.00    +0.111 A 
ENDBRANCH   7  12
BRANCH   8   5
ATOM      3  O   UNL     1       0.058  -0.628  23.634  0.00  0.00    -0.270 OA
ATOM      5  N   UNL     1      -1.005   0.771  25.150  0.00  0.00    -0.305 N 
ATOM     15  C   UNL     1      -0.909  -0.354  24.341  0.00  0.00    +0.248 C 
ATOM     25  H   UNL     1      -1.795   0.879  25.777  0.00  0.00    +0.149 HD
BRANCH  15  17
ATOM     17  C   UNL     1      -2.090  -1.255  24.335  0.00  0.00    +0.078 A 
ATOM     19  C   UNL     1      -3.367  -0.760  24.073  0.00  0.00    +0.132 A 
ATOM     20  C   UNL     1      -1.909  -2.613  24.596  0.00  0.00    +0.017 A 
ATOM     21  C   UNL     1      -4.463  -1.622  24.072  0.00  0.00    +0.046 A 
ATOM     22  C   UNL     1      -3.005  -3.476  24.595  0.00  0.00    +0.001 A 
ATOM     23  C   UNL     1      -4.282  -2.981  24.333  0.00  0.00    +0.004 A 
BRANCH  19   4
ATOM      4  O   UNL     1      -3.565   0.565  23.818  0.00  0.00    -0.494 OA
ATOM     24  C   UNL     1      -4.484   1.256  24.662  0.00  0.00    +0.277 C 
ENDBRANCH  19   4
ENDBRANCH  15  17
ENDBRANCH   8   5
BRANCH   9   1
ATOM      1  O   UNL     1       1.579   2.787  23.711  0.00  0.00    -0.387 OA
ATOM     26  H   UNL     1       1.774   3.684  24.033  0.00  0.00    +0.210 HD
ENDBRANCH   9   1
BRANCH  11   2
ATOM      2  O   UNL     1      -0.165   4.888  23.321  0.00  0.00    -0.389 OA
ATOM     27  H   UNL     1       0.436   5.480  23.804  0.00  0.00    +0.210 HD
ENDBRANCH  11   2
TORSDOF 6
ENDMDL
MODEL 7
REMARK VINA RESULT:      -0.8      1.821      2.313
REMARK  Name = 75536068
REMARK  7 active torsions:
REMARK  status: ('A' for Active; 'I' for Inactive)
REMARK    1  A    between atoms: O_1  and  C_9
REMARK    2  A    between atoms: O_2  and  C_11
REMARK    3  A    between atoms: O_4  and  C_19
REMARK    4  A    between atoms: O_4  and  C_24
REMARK    5  A    between atoms: N_5  and  C_8
REMARK    6  A    between atoms: C_7  and  C_12
REMARK    7  A    between atoms: C_15  and  C_17
REMARK                            x       y       z     vdW  Elec       q    Type
REMARK                         _______ _______ _______ _____ _____    ______ ____
ROOT
ATOM      7  C   UNL     1      -1.667   0.422  25.360  0.00  0.00    +0.046 C 
ATOM      8  C   UNL     1      -1.061  -0.336  24.144  0.00  0.00    +0.112 C 
ATOM      9  C   UNL     1      -1.612  -1.767  24.233  0.00  0.00    +0.164 C 
ATOM     10  C   UNL     1      -2.645  -0.567  26.016  0.00  0.00    +0.044 C 
ATOM     11  C   UNL     1      -2.030  -1.920  25.693  0.00  0.00    +0.145 C 
ENDROOT
BRANCH   7  12
ATOM      6  N   UNL     1      -4.019   2.959  23.807  0.00  0.00    -0.263 NA
ATOM     12  C   UNL     1      -2.307   1.746  25.008  0.00  0.00    -0.024 A 
ATOM     13  C   UNL     1      -1.812   2.940  25.522  0.00  0.00    +0.007 A 
ATOM     14  C   UNL     1      -3.402   1.809  24.162  0.00  0.00    +0.114 A 
ATOM     16  C   UNL     1      -2.420   4.143  25.180  0.00  0.00    +0.020 A 
ATOM     18  C   UNL     1      -3.510   4.099  24.327  0.00  0.00    +0.111 A 
ENDBRANCH   7  12
BRANCH   8   5
ATOM      3  O   UNL     1       0.735  -0.425  21.902  0.00  0.00    -0.270 OA
ATOM      5  N   UNL     1       0.382  -0.326  24.193  0.00  0.00    -0.305 N 
ATOM     15  C   UNL     1       1.170  -0.371  23.051  0.00  0.00    +0.248 C 
ATOM     25  H   UNL     1       0.813  -0.186  25.101  0.00  0.00    +0.149 HD
BRANCH  15  17
ATOM     17  C   UNL     1       2.639  -0.380  23.271  0.00  0.00    +0.078 A 
ATOM     19  C   UNL     1       3.386   0.793  23.167  0.00  0.00    +0.132 A 
ATOM     20  C   UNL     1       3.270  -1.583  23.587  0.00  0.00    +0.017 A 
ATOM     21  C   UNL     1       4.764   0.763  23.376  0.00  0.00    +0.046 A 
ATOM     22  C   UNL     1       4.649  -1.614  23.797  0.00  0.00    +0.001 A 
ATOM     23  C   UNL     1       5.396  -0.440  23.692  0.00  0.00    +0.004 A 
BRANCH  19   4
ATOM      4  O   UNL     1       2.787   1.978  22.857  0.00  0.00    -0.494 OA
ATOM     24  C   UNL     1       1.616   2.323  23.595  0.00  0.00    +0.277 C 
ENDBRANCH  19   4
ENDBRANCH  15  17
ENDBRANCH   8   5
BRANCH   9   1
ATOM      1  O   UNL     1      -2.746  -1.861  23.373  0.00  0.00    -0.387 OA
ATOM     26  H   UNL     1      -3.008  -2.797  23.338  0.00  0.00    +0.210 HD
ENDBRANCH   9   1
BRANCH  11   2
ATOM      2  O   UNL     1      -2.955  -2.969  25.890  0.00  0.00    -0.389 OA
ATOM     27  H   UNL     1      -3.272  -2.912  26.807  0.00  0.00    +0.210 HD
ENDBRANCH  11   2
TORSDOF 6
ENDMDL
MODEL 8
REMARK VINA RESULT:      -0.2      1.852      6.060
REMARK  Name = 75536068
REMARK  7 active torsions:
REMARK  status: ('A' for Active; 'I' for Inactive)
REMARK    1  A    between atoms: O_1  and  C_9
REMARK    2  A    between atoms: O_2  and  C_11
REMARK    3  A    between atoms: O_4  and  C_19
REMARK    4  A    between atoms: O_4  and  C_24
REMARK    5  A    between atoms: N_5  and  C_8
REMARK    6  A    between atoms: C_7  and  C_12
REMARK    7  A    between atoms: C_15  and  C_17
REMARK                            x       y       z     vdW  Elec       q    Type
REMARK                         _______ _______ _______ _____ _____    ______ ____
ROOT
ATOM      7  C   UNL     1      -0.381  -0.414  23.409  0.00  0.00    +0.046 C 
ATOM      8  C   UNL     1      -0.796  -0.018  24.855  0.00  0.00    +0.112 C 
ATOM      9  C   UNL     1      -1.311  -1.311  25.506  0.00  0.00    +0.164 C 
ATOM     10  C   UNL     1      -0.546  -1.940  23.337  0.00  0.00    +0.044 C 
ATOM     11  C   UNL     1      -1.670  -2.209  24.325  0.00  0.00    +0.145 C 
ENDROOT
BRANCH   7  12
ATOM      6  N   UNL     1       2.880   1.522  23.415  0.00  0.00    -0.263 NA
ATOM     12  C   UNL     1       1.001   0.055  23.012  0.00  0.00    -0.024 A 
ATOM     13  C   UNL     1       1.662  -0.505  21.924  0.00  0.00    +0.007 A 
ATOM     14  C   UNL     1       1.648   1.056  23.718  0.00  0.00    +0.114 A 
ATOM     16  C   UNL     1       2.932  -0.053  21.582  0.00  0.00    +0.020 A 
ATOM     18  C   UNL     1       3.492   0.952  22.352  0.00  0.00    +0.111 A 
ENDBRANCH   7  12
BRANCH   8   5
ATOM      3  O   UNL     1      -0.832   2.399  26.410  0.00  0.00    -0.270 OA
ATOM      5  N   UNL     1      -1.817   1.003  24.840  0.00  0.00    -0.305 N 
ATOM     15  C   UNL     1      -1.747   2.143  25.631  0.00  0.00    +0.248 C 
ATOM     25  H   UNL     1      -2.557   0.908  24.152  0.00  0.00    +0.149 HD
BRANCH  15  17
ATOM     17  C   UNL     1      -2.891   3.085  25.520  0.00  0.00    +0.078 A 
ATOM     19  C   UNL     1      -2.680   4.463  25.465  0.00  0.00    +0.132 A 
ATOM     20  C   UNL     1      -4.187   2.575  25.470  0.00  0.00    +0.017 A 
ATOM     21  C   UNL     1      -3.766   5.331  25.362  0.00  0.00    +0.046 A 
ATOM     22  C   UNL     1      -5.275   3.443  25.367  0.00  0.00    +0.001 A 
ATOM     23  C   UNL     1      -5.065   4.821  25.313  0.00  0.00    +0.004 A 
BRANCH  19   4
ATOM      4  O   UNL     1      -1.420   4.980  25.514  0.00  0.00    -0.494 OA
ATOM     24  C   UNL     1      -0.690   5.024  24.289  0.00  0.00    +0.277 C 
ENDBRANCH  19   4
ENDBRANCH  15  17
ENDBRANCH   8   5
BRANCH   9   1
ATOM      1  O   UNL     1      -0.245  -1.880  26.264  0.00  0.00    -0.387 OA
ATOM     26  H   UNL     1       0.576  -1.440  25.988  0.00  0.00    +0.210 HD
ENDBRANCH   9   1
BRANCH  11   2
ATOM      2  O   UNL     1      -1.734  -3.576  24.677  0.00  0.00    -0.389 OA
ATOM     27  H   UNL     1      -2.174  -4.046  23.950  0.00  0.00    +0.210 HD
ENDBRANCH  11   2
TORSDOF 6
ENDMDL
MODEL 9
REMARK VINA RESULT:      -0.1      3.208      6.133
REMARK  Name = 75536068
REMARK  7 active torsions:
REMARK  status: ('A' for Active; 'I' for Inactive)
REMARK    1  A    between atoms: O_1  and  C_9
REMARK    2  A    between atoms: O_2  and  C_11
REMARK    3  A    between atoms: O_4  and  C_19
REMARK    4  A    between atoms: O_4  and  C_24
REMARK    5  A    between atoms: N_5  and  C_8
REMARK    6  A    between atoms: C_7  and  C_12
REMARK    7  A    between atoms: C_15  and  C_17
REMARK                            x       y       z     vdW  Elec       q    Type
REMARK                         _______ _______ _______ _____ _____    ______ ____
ROOT
ATOM      7  C   UNL     1      -0.764   2.699  26.639  0.00  0.00    +0.046 C 
ATOM      8  C   UNL     1      -0.343   2.200  25.227  0.00  0.00    +0.112 C 
ATOM      9  C   UNL     1      -0.841   3.272  24.245  0.00  0.00    +0.164 C 
ATOM     10  C   UNL     1      -1.362   4.099  26.420  0.00  0.00    +0.044 C 
ATOM     11  C   UNL     1      -1.933   4.009  25.014  0.00  0.00    +0.145 C 
ENDROOT
BRANCH   7  12
ATOM      6  N   UNL     1       2.708   2.921  28.149  0.00  0.00    -0.263 NA
ATOM     12  C   UNL     1       0.352   2.682  27.660  0.00  0.00    -0.024 A 
ATOM     13  C   UNL     1       0.093   2.421  29.000  0.00  0.00    +0.007 A 
ATOM     14  C   UNL     1       1.665   2.924  27.288  0.00  0.00    +0.114 A 
ATOM     16  C   UNL     1       1.140   2.410  29.916  0.00  0.00    +0.020 A 
ATOM     18  C   UNL     1       2.416   2.664  29.444  0.00  0.00    +0.111 A 
ENDBRANCH   7  12
BRANCH   8   5
ATOM      3  O   UNL     1      -3.146   1.577  25.095  0.00  0.00    -0.270 OA
ATOM      5  N   UNL     1      -0.928   0.912  24.937  0.00  0.00    -0.305 N 
ATOM     15  C   UNL     1      -2.301   0.707  24.894  0.00  0.00    +0.248 C 
ATOM     25  H   UNL     1      -0.295   0.167  24.666  0.00  0.00    +0.149 HD
BRANCH  15  17
ATOM     17  C   UNL     1      -2.744  -0.682  24.607  0.00  0.00    +0.078 A 
ATOM     19  C   UNL     1      -1.897  -1.766  24.837  0.00  0.00    +0.132 A 
ATOM     20  C   UNL     1      -4.026  -0.894  24.101  0.00  0.00    +0.017 A 
ATOM     21  C   UNL     1      -2.331  -3.062  24.561  0.00  0.00    +0.046 A 
ATOM     22  C   UNL     1      -4.461  -2.190  23.825  0.00  0.00    +0.001 A 
ATOM     23  C   UNL     1      -3.614  -3.275  24.055  0.00  0.00    +0.004 A 
BRANCH  19   4
ATOM      4  O   UNL     1      -0.639  -1.579  25.329  0.00  0.00    -0.494 OA
ATOM     24  C   UNL     1       0.184  -2.736  25.457  0.00  0.00    +0.277 C 
ENDBRANCH  19   4
ENDBRANCH  15  17
ENDBRANCH   8   5
BRANCH   9   1
ATOM      1  O   UNL     1       0.248   4.148  23.956  0.00  0.00    -0.387 OA
ATOM     26  H   UNL     1       0.046   5.007  24.364  0.00  0.00    +0.210 HD
ENDBRANCH   9   1
BRANCH  11   2
ATOM      2  O   UNL     1      -2.207   5.290  24.484  0.00  0.00    -0.389 OA
ATOM     27  H   UNL     1      -1.419   5.580  23.995  0.00  0.00    +0.210 HD
ENDBRANCH  11   2
TORSDOF 6
ENDMDL
MODEL 10
REMARK VINA RESULT:      -0.0      2.558      4.913
REMARK  Name = 75536068
REMARK  7 active torsions:
REMARK  status: ('A' for Active; 'I' for Inactive)
REMARK    1  A    between atoms: O_1  and  C_9
REMARK    2  A    between atoms: O_2  and  C_11
REMARK    3  A    between atoms: O_4  and  C_19
REMARK    4  A    between atoms: O_4  and  C_24
REMARK    5  A    between atoms: N_5  and  C_8
REMARK    6  A    between atoms: C_7  and  C_12
REMARK    7  A    between atoms: C_15  and  C_17
REMARK                            x       y       z     vdW  Elec       q    Type
REMARK                         _______ _______ _______ _____ _____    ______ ____
ROOT
ATOM      7  C   UNL     1      -3.220   2.635  25.472  0.00  0.00    +0.046 C 
ATOM      8  C   UNL     1      -4.081   2.126  24.280  0.00  0.00    +0.112 C 
ATOM      9  C   UNL     1      -5.542   2.317  24.715  0.00  0.00    +0.164 C 
ATOM     10  C   UNL     1      -4.220   3.222  26.482  0.00  0.00    +0.044 C 
ATOM     11  C   UNL     1      -5.474   2.397  26.238  0.00  0.00    +0.145 C 
ENDROOT
BRANCH   7  12
ATOM      6  N   UNL     1       0.021   3.995  24.047  0.00  0.00    -0.263 NA
ATOM     12  C   UNL     1      -2.132   3.609  25.078  0.00  0.00    -0.024 A 
ATOM     13  C   UNL     1      -2.247   4.965  25.360  0.00  0.00    +0.007 A 
ATOM     14  C   UNL     1      -0.988   3.178  24.425  0.00  0.00    +0.114 A 
ATOM     16  C   UNL     1      -1.230   5.837  24.987  0.00  0.00    +0.020 A 
ATOM     18  C   UNL     1      -0.128   5.306  24.339  0.00  0.00    +0.111 A 
ENDBRANCH   7  12
BRANCH   8   5
ATOM      3  O   UNL     1      -2.738   0.252  25.995  0.00  0.00    -0.270 OA
ATOM      5  N   UNL     1      -3.798   0.740  23.990  0.00  0.00    -0.305 N 
ATOM     15  C   UNL     1      -3.141  -0.092  24.886  0.00  0.00    +0.248 C 
ATOM     25  H   UNL     1      -4.184   0.359  23.133  0.00  0.00    +0.149 HD
BRANCH  15  17
ATOM     17  C   UNL     1      -2.902  -1.485  24.428  0.00  0.00    +0.078 A 
ATOM     19  C   UNL     1      -1.609  -2.000  24.346  0.00  0.00    +0.132 A 
ATOM     20  C   UNL     1      -3.993  -2.281  24.077  0.00  0.00    +0.017 A 
ATOM     21  C   UNL     1      -1.405  -3.310  23.912  0.00  0.00    +0.046 A 
ATOM     22  C   UNL     1      -3.790  -3.591  23.644  0.00  0.00    +0.001 A 
ATOM     23  C   UNL     1      -2.496  -4.106  23.561  0.00  0.00    +0.004 A 
BRANCH  19   4
ATOM      4  O   UNL     1      -0.530  -1.238  24.682  0.00  0.00    -0.494 OA
ATOM     24  C   UNL     1       0.073  -0.474  23.639  0.00  0.00    +0.277 C 
ENDBRANCH  19   4
ENDBRANCH  15  17
ENDBRANCH   8   5
BRANCH   9   1
ATOM      1  O   UNL     1      -6.011   3.548  24.168  0.00  0.00    -0.387 OA
ATOM     26  H   UNL     1      -6.385   4.068  24.900  0.00  0.00    +0.210 HD
ENDBRANCH   9   1
BRANCH  11   2
ATOM      2  O   UNL     1      -6.614   3.009  26.805  0.00  0.00    -0.389 OA
ATOM     27  H   UNL     1      -6.384   3.933  27.001  0.00  0.00    +0.210 HD
ENDBRANCH  11   2
TORSDOF 6
ENDMDL
