MODEL 1
REMARK VINA RESULT:      -1.8      0.000      0.000
REMARK  Name = 11883400
REMARK  7 active torsions:
REMARK  status: ('A' for Active; 'I' for Inactive)
REMARK    1  A    between atoms: O_9  and  C_18
REMARK    2  A    between atoms: O_9  and  C_22
REMARK    3  A    between atoms: N_12  and  C_17
REMARK    4  A    between atoms: N_13  and  C_23
REMARK    5  A    between atoms: N_14  and  C_24
REMARK    6  A    between atoms: C_29  and  C_35
REMARK    7  A    between atoms: C_31  and  C_36
REMARK                            x       y       z     vdW  Elec       q    Type
REMARK                         _______ _______ _______ _____ _____    ______ ____
ROOT
ATOM      7  O   UNL     1      -3.815   3.077  24.173  0.00  0.00    -0.368 OA
ATOM      8  O   UNL     1      -4.017   5.133  26.440  0.00  0.00    -0.368 OA
ATOM     15  C   UNL     1      -3.059   4.085  26.183  0.00  0.00    +0.173 C 
ATOM     16  C   UNL     1      -3.831   2.917  25.602  0.00  0.00    +0.192 C 
ATOM     17  C   UNL     1      -2.128   4.495  25.065  0.00  0.00    +0.131 C 
ATOM     18  C   UNL     1      -5.214   3.124  26.173  0.00  0.00    +0.235 C 
ATOM     19  C   UNL     1      -2.946   4.166  23.828  0.00  0.00    +0.185 C 
ATOM     20  C   UNL     1      -5.335   4.631  26.176  0.00  0.00    +0.207 C 
ENDROOT
BRANCH  17  12
ATOM     10  O   UNL     1      -1.214   2.619  23.103  0.00  0.00    -0.252 OA
ATOM     12  N   UNL     1      -0.901   3.736  25.102  0.00  0.00    -0.292 N 
ATOM     13  N   UNL     1       0.705   2.250  24.403  0.00  0.00    -0.269 N 
ATOM     21  C   UNL     1      -0.527   2.835  24.097  0.00  0.00    +0.304 C 
ATOM     37  H   UNL     1      -0.248   3.911  25.859  0.00  0.00    +0.151 HD
ATOM     38  H   UNL     1       1.145   2.540  25.273  0.00  0.00    +0.156 HD
BRANCH  13  23
ATOM     23  C   UNL     1       1.422   1.293  23.647  0.00  0.00    +0.035 A 
ATOM     25  C   UNL     1       2.795   1.140  23.839  0.00  0.00    +0.035 A 
ATOM     26  C   UNL     1       0.756   0.504  22.710  0.00  0.00    +0.023 A 
ATOM     29  C   UNL     1       3.502   0.197  23.093  0.00  0.00    +0.057 A 
ATOM     30  C   UNL     1       1.462  -0.439  21.964  0.00  0.00    +0.002 A 
ATOM     32  C   UNL     1       2.836  -0.593  22.156  0.00  0.00    +0.012 A 
BRANCH  29  35
ATOM      1  F   UNL     1       5.306  -1.126  23.941  0.00  0.00    -0.166 F 
ATOM      2  F   UNL     1       5.685   0.013  22.134  0.00  0.00    -0.166 F 
ATOM      3  F   UNL     1       5.513   1.036  24.045  0.00  0.00    -0.166 F 
ATOM     35  C   UNL     1       4.970   0.032  23.297  0.00  0.00    +0.417 C 
ENDBRANCH  29  35
ENDBRANCH  13  23
ENDBRANCH  17  12
BRANCH  18   9
ATOM      9  O   UNL     1      -6.233   2.512  25.416  0.00  0.00    -0.442 OA
BRANCH   9  22
ATOM     11  O   UNL     1      -6.647   0.789  23.971  0.00  0.00    -0.226 OA
ATOM     14  N   UNL     1      -4.719   0.844  25.297  0.00  0.00    -0.251 N 
ATOM     22  C   UNL     1      -5.924   1.312  24.809  0.00  0.00    +0.405 C 
ATOM     39  H   UNL     1      -4.262   1.424  25.997  0.00  0.00    +0.158 HD
BRANCH  14  24
ATOM     24  C   UNL     1      -4.040  -0.345  24.946  0.00  0.00    +0.037 A 
ATOM     27  C   UNL     1      -2.716  -0.536  25.342  0.00  0.00    +0.035 A 
ATOM     28  C   UNL     1      -4.694  -1.326  24.201  0.00  0.00    +0.023 A 
ATOM     31  C   UNL     1      -2.047  -1.710  24.994  0.00  0.00    +0.057 A 
ATOM     33  C   UNL     1      -4.025  -2.500  23.853  0.00  0.00    +0.002 A 
ATOM     34  C   UNL     1      -2.702  -2.691  24.250  0.00  0.00    +0.012 A 
BRANCH  31  36
ATOM      4  F   UNL     1      -0.295  -3.229  25.579  0.00  0.00    -0.166 F 
ATOM      5  F   UNL     1       0.282  -1.419  24.533  0.00  0.00    -0.166 F 
ATOM      6  F   UNL     1      -0.349  -1.316  26.611  0.00  0.00    -0.166 F 
ATOM     36  C   UNL     1      -0.632  -1.915  25.419  0.00  0.00    +0.417 C 
ENDBRANCH  31  36
ENDBRANCH  14  24
ENDBRANCH   9  22
ENDBRANCH  18   9
TORSDOF 7
ENDMDL
MODEL 2
REMARK VINA RESULT:       1.6      2.440      4.657
REMARK  Name = 11883400
REMARK  7 active torsions:
REMARK  status: ('A' for Active; 'I' for Inactive)
REMARK    1  A    between atoms: O_9  and  C_18
REMARK    2  A    between atoms: O_9  and  C_22
REMARK    3  A    between atoms: N_12  and  C_17
REMARK    4  A    between atoms: N_13  and  C_23
REMARK    5  A    between atoms: N_14  and  C_24
REMARK    6  A    between atoms: C_29  and  C_35
REMARK    7  A    between atoms: C_31  and  C_36
REMARK                            x       y       z     vdW  Elec       q    Type
REMARK                         _______ _______ _______ _____ _____    ______ ____
ROOT
ATOM      7  O   UNL     1      -3.852  -0.642  25.882  0.00  0.00    -0.368 OA
ATOM      8  O   UNL     1      -4.070  -2.920  23.839  0.00  0.00    -0.368 OA
ATOM     15  C   UNL     1      -3.033  -1.944  24.077  0.00  0.00    +0.173 C 
ATOM     16  C   UNL     1      -3.726  -0.649  24.450  0.00  0.00    +0.192 C 
ATOM     17  C   UNL     1      -2.253  -2.309  25.319  0.00  0.00    +0.131 C 
ATOM     18  C   UNL     1      -5.067  -0.788  23.770  0.00  0.00    +0.235 C 
ATOM     19  C   UNL     1      -3.137  -1.762  26.426  0.00  0.00    +0.185 C 
ATOM     20  C   UNL     1      -5.346  -2.267  23.916  0.00  0.00    +0.207 C 
ENDROOT
BRANCH  17  12
ATOM     10  O   UNL     1      -0.604  -1.762  23.040  0.00  0.00    -0.252 OA
ATOM     12  N   UNL     1      -0.954  -1.680  25.323  0.00  0.00    -0.292 N 
ATOM     13  N   UNL     1       1.002  -0.827  24.473  0.00  0.00    -0.269 N 
ATOM     21  C   UNL     1      -0.210  -1.448  24.160  0.00  0.00    +0.304 C 
ATOM     37  H   UNL     1      -0.590  -1.330  26.205  0.00  0.00    +0.151 HD
ATOM     38  H   UNL     1       1.176  -0.636  25.457  0.00  0.00    +0.156 HD
BRANCH  13  23
ATOM     23  C   UNL     1       2.028  -0.429  23.584  0.00  0.00    +0.035 A 
ATOM     25  C   UNL     1       3.351  -0.383  24.022  0.00  0.00    +0.035 A 
ATOM     26  C   UNL     1       1.716  -0.082  22.270  0.00  0.00    +0.023 A 
ATOM     29  C   UNL     1       4.363   0.011  23.145  0.00  0.00    +0.057 A 
ATOM     30  C   UNL     1       2.726   0.311  21.393  0.00  0.00    +0.002 A 
ATOM     32  C   UNL     1       4.050   0.357  21.831  0.00  0.00    +0.012 A 
BRANCH  29  35
ATOM      1  F   UNL     1       6.035  -0.770  24.667  0.00  0.00    -0.166 F 
ATOM      2  F   UNL     1       6.683  -0.294  22.653  0.00  0.00    -0.166 F 
ATOM      3  F   UNL     1       6.152   1.305  24.027  0.00  0.00    -0.166 F 
ATOM     35  C   UNL     1       5.778   0.060  23.613  0.00  0.00    +0.417 C 
ENDBRANCH  29  35
ENDBRANCH  13  23
ENDBRANCH  17  12
BRANCH  18   9
ATOM      9  O   UNL     1      -6.078   0.002  24.353  0.00  0.00    -0.442 OA
BRANCH   9  22
ATOM     11  O   UNL     1      -6.228   1.422  26.139  0.00  0.00    -0.226 OA
ATOM     14  N   UNL     1      -4.576   1.678  24.500  0.00  0.00    -0.251 N 
ATOM     22  C   UNL     1      -5.669   1.085  25.103  0.00  0.00    +0.405 C 
ATOM     39  H   UNL     1      -4.253   1.251  23.636  0.00  0.00    +0.158 HD
BRANCH  14  24
ATOM     24  C   UNL     1      -3.851   2.811  24.934  0.00  0.00    +0.037 A 
ATOM     27  C   UNL     1      -2.491   2.922  24.643  0.00  0.00    +0.035 A 
ATOM     28  C   UNL     1      -4.495   3.815  25.657  0.00  0.00    +0.023 A 
ATOM     31  C   UNL     1      -1.776   4.040  25.073  0.00  0.00    +0.057 A 
ATOM     33  C   UNL     1      -3.778   4.933  26.088  0.00  0.00    +0.002 A 
ATOM     34  C   UNL     1      -2.419   5.044  25.795  0.00  0.00    +0.012 A 
BRANCH  31  36
ATOM      4  F   UNL     1       0.489   3.599  25.706  0.00  0.00    -0.166 F 
ATOM      5  F   UNL     1       0.036   3.564  23.585  0.00  0.00    -0.166 F 
ATOM      6  F   UNL     1       0.086   5.457  24.652  0.00  0.00    -0.166 F 
ATOM     36  C   UNL     1      -0.322   4.160  24.761  0.00  0.00    +0.417 C 
ENDBRANCH  31  36
ENDBRANCH  14  24
ENDBRANCH   9  22
ENDBRANCH  18   9
TORSDOF 7
ENDMDL
