MODEL 1
REMARK VINA RESULT:       6.2      0.000      0.000
REMARK  Name = 51137819
REMARK  6 active torsions:
REMARK  status: ('A' for Active; 'I' for Inactive)
REMARK    1  A    between atoms: O_3  and  C_17
REMARK    2  A    between atoms: O_3  and  C_28
REMARK    3  A    between atoms: N_6  and  C_15
REMARK    4  A    between atoms: C_8  and  C_12
REMARK    5  A    between atoms: C_14  and  C_16
REMARK    6  A    between atoms: C_24  and  C_27
REMARK                            x       y       z     vdW  Elec       q    Type
REMARK                         _______ _______ _______ _____ _____    ______ ____
ROOT
ATOM      2  O   UNL     1      -4.351   0.557  23.643  0.00  0.00    -0.252 OA
ATOM      4  N   UNL     1      -2.477  -0.119  24.783  0.00  0.00    -0.285 N 
ATOM      6  N   UNL     1      -3.595   1.825  25.450  0.00  0.00    -0.266 N 
ATOM      8  C   UNL     1      -0.829  -1.757  24.271  0.00  0.00    +0.096 C 
ATOM      9  C   UNL     1      -0.685  -1.331  25.740  0.00  0.00    +0.033 C 
ATOM     10  C   UNL     1      -2.254  -1.292  23.945  0.00  0.00    +0.122 C 
ATOM     11  C   UNL     1      -1.454  -0.017  25.821  0.00  0.00    +0.110 C 
ATOM     13  C   UNL     1      -3.550   0.753  24.558  0.00  0.00    +0.307 C 
ATOM     29  H   UNL     1      -2.864   1.891  26.151  0.00  0.00    +0.156 HD
ENDROOT
BRANCH   6  15
ATOM     15  C   UNL     1      -4.542   2.877  25.497  0.00  0.00    +0.077 A 
ATOM     17  C   UNL     1      -4.223   4.144  25.012  0.00  0.00    +0.141 A 
ATOM     18  C   UNL     1      -5.806   2.634  26.035  0.00  0.00    +0.027 A 
ATOM     23  C   UNL     1      -5.168   5.170  25.064  0.00  0.00    +0.047 A 
ATOM     25  C   UNL     1      -6.751   3.659  26.088  0.00  0.00    +0.002 A 
ATOM     26  C   UNL     1      -6.430   4.927  25.602  0.00  0.00    +0.004 A 
BRANCH  17   3
ATOM      3  O   UNL     1      -2.993   4.403  24.482  0.00  0.00    -0.493 OA
ATOM     28  C   UNL     1      -1.958   4.763  25.396  0.00  0.00    +0.277 C 
ENDBRANCH  17   3
ENDBRANCH   6  15
BRANCH   8  12
ATOM      1  O   UNL     1       1.535  -1.171  23.956  0.00  0.00    -0.420 OA
ATOM      5  N   UNL     1       0.238  -0.689  22.199  0.00  0.00    -0.112 NA
ATOM      7  N   UNL     1       1.532  -0.312  21.891  0.00  0.00    -0.107 NA
ATOM     12  C   UNL     1       0.287  -1.186  23.413  0.00  0.00    +0.222 A 
ATOM     14  C   UNL     1       2.254  -0.613  22.944  0.00  0.00    +0.248 A 
BRANCH  14  16
ATOM     16  C   UNL     1       3.657  -0.445  23.190  0.00  0.00    +0.038 A 
ATOM     19  C   UNL     1       4.398  -1.490  23.742  0.00  0.00    +0.013 A 
ATOM     20  C   UNL     1       4.281   0.763  22.876  0.00  0.00    +0.013 A 
ATOM     21  C   UNL     1       5.763  -1.327  23.981  0.00  0.00    +0.004 A 
ATOM     22  C   UNL     1       5.646   0.926  23.116  0.00  0.00    +0.004 A 
ATOM     24  C   UNL     1       6.387  -0.119  23.668  0.00  0.00    -0.050 A 
ATOM     27  C   UNL     1       7.846   0.055  23.924  0.00  0.00    +0.044 C 
ENDBRANCH  14  16
ENDBRANCH   8  12
TORSDOF 4
ENDMDL
MODEL 2
REMARK VINA RESULT:       6.7      1.797      7.906
REMARK  Name = 51137819
REMARK  6 active torsions:
REMARK  status: ('A' for Active; 'I' for Inactive)
REMARK    1  A    between atoms: O_3  and  C_17
REMARK    2  A    between atoms: O_3  and  C_28
REMARK    3  A    between atoms: N_6  and  C_15
REMARK    4  A    between atoms: C_8  and  C_12
REMARK    5  A    between atoms: C_14  and  C_16
REMARK    6  A    between atoms: C_24  and  C_27
REMARK                            x       y       z     vdW  Elec       q    Type
REMARK                         _______ _______ _______ _____ _____    ______ ____
ROOT
ATOM      2  O   UNL     1       0.853  -1.548  25.962  0.00  0.00    -0.252 OA
ATOM      4  N   UNL     1      -0.929  -1.839  24.545  0.00  0.00    -0.285 N 
ATOM      6  N   UNL     1       1.164  -1.272  23.666  0.00  0.00    -0.266 N 
ATOM      8  C   UNL     1      -3.262  -2.038  24.970  0.00  0.00    +0.096 C 
ATOM      9  C   UNL     1      -2.970  -2.456  23.521  0.00  0.00    +0.033 C 
ATOM     10  C   UNL     1      -1.874  -2.142  25.614  0.00  0.00    +0.122 C 
ATOM     11  C   UNL     1      -1.586  -1.880  23.240  0.00  0.00    +0.110 C 
ATOM     13  C   UNL     1       0.415  -1.551  24.810  0.00  0.00    +0.307 C 
ATOM     29  H   UNL     1       0.686  -1.285  22.771  0.00  0.00    +0.156 HD
ENDROOT
BRANCH   6  15
ATOM     15  C   UNL     1       2.540  -0.945  23.586  0.00  0.00    +0.077 A 
ATOM     17  C   UNL     1       2.946   0.325  23.179  0.00  0.00    +0.141 A 
ATOM     18  C   UNL     1       3.491  -1.909  23.921  0.00  0.00    +0.027 A 
ATOM     23  C   UNL     1       4.306   0.632  23.106  0.00  0.00    +0.047 A 
ATOM     25  C   UNL     1       4.850  -1.602  23.847  0.00  0.00    +0.002 A 
ATOM     26  C   UNL     1       5.257  -0.331  23.440  0.00  0.00    +0.004 A 
BRANCH  17   3
ATOM      3  O   UNL     1       2.033   1.281  22.847  0.00  0.00    -0.493 OA
ATOM     28  C   UNL     1       1.125   1.690  23.868  0.00  0.00    +0.277 C 
ENDBRANCH  17   3
ENDBRANCH   6  15
BRANCH   8  12
ATOM      1  O   UNL     1      -3.134   0.415  24.990  0.00  0.00    -0.420 OA
ATOM      5  N   UNL     1      -5.217  -0.389  25.126  0.00  0.00    -0.112 NA
ATOM      7  N   UNL     1      -5.290   0.992  25.147  0.00  0.00    -0.107 NA
ATOM     12  C   UNL     1      -3.941  -0.681  25.033  0.00  0.00    +0.222 A 
ATOM     14  C   UNL     1      -4.051   1.418  25.065  0.00  0.00    +0.248 A 
BRANCH  14  16
ATOM     16  C   UNL     1      -3.525   2.751  25.044  0.00  0.00    +0.038 A 
ATOM     19  C   UNL     1      -2.199   2.984  25.409  0.00  0.00    +0.013 A 
ATOM     20  C   UNL     1      -4.340   3.817  24.659  0.00  0.00    +0.013 A 
ATOM     21  C   UNL     1      -1.687   4.281  25.388  0.00  0.00    +0.004 A 
ATOM     22  C   UNL     1      -3.828   5.115  24.640  0.00  0.00    +0.004 A 
ATOM     24  C   UNL     1      -2.501   5.347  25.005  0.00  0.00    -0.050 A 
ATOM     27  C   UNL     1      -1.954   6.734  24.984  0.00  0.00    +0.044 C 
ENDBRANCH  14  16
ENDBRANCH   8  12
TORSDOF 4
ENDMDL
MODEL 3
REMARK VINA RESULT:       7.4      2.327      8.211
REMARK  Name = 51137819
REMARK  6 active torsions:
REMARK  status: ('A' for Active; 'I' for Inactive)
REMARK    1  A    between atoms: O_3  and  C_17
REMARK    2  A    between atoms: O_3  and  C_28
REMARK    3  A    between atoms: N_6  and  C_15
REMARK    4  A    between atoms: C_8  and  C_12
REMARK    5  A    between atoms: C_14  and  C_16
REMARK    6  A    between atoms: C_24  and  C_27
REMARK                            x       y       z     vdW  Elec       q    Type
REMARK                         _______ _______ _______ _____ _____    ______ ____
ROOT
ATOM      2  O   UNL     1       0.695   3.074  22.719  0.00  0.00    -0.252 OA
ATOM      4  N   UNL     1      -0.168   3.027  24.845  0.00  0.00    -0.285 N 
ATOM      6  N   UNL     1       1.708   1.726  24.331  0.00  0.00    -0.266 N 
ATOM      8  C   UNL     1      -2.218   3.848  25.730  0.00  0.00    +0.096 C 
ATOM      9  C   UNL     1      -1.270   3.493  26.885  0.00  0.00    +0.033 C 
ATOM     10  C   UNL     1      -1.247   3.963  24.548  0.00  0.00    +0.122 C 
ATOM     11  C   UNL     1      -0.220   2.595  26.240  0.00  0.00    +0.110 C 
ATOM     13  C   UNL     1       0.757   2.636  23.868  0.00  0.00    +0.307 C 
ATOM     29  H   UNL     1       1.643   1.421  25.297  0.00  0.00    +0.156 HD
ENDROOT
BRANCH   6  15
ATOM     15  C   UNL     1       2.772   1.138  23.606  0.00  0.00    +0.077 A 
ATOM     17  C   UNL     1       2.516   0.270  22.545  0.00  0.00    +0.141 A 
ATOM     18  C   UNL     1       4.088   1.435  23.963  0.00  0.00    +0.027 A 
ATOM     23  C   UNL     1       3.576  -0.302  21.840  0.00  0.00    +0.047 A 
ATOM     25  C   UNL     1       5.148   0.863  23.258  0.00  0.00    +0.002 A 
ATOM     26  C   UNL     1       4.891  -0.005  22.197  0.00  0.00    +0.004 A 
BRANCH  17   3
ATOM      3  O   UNL     1       1.238  -0.035  22.181  0.00  0.00    -0.493 OA
ATOM     28  C   UNL     1       0.412  -0.648  23.169  0.00  0.00    +0.277 C 
ENDBRANCH  17   3
ENDBRANCH   6  15
BRANCH   8  12
ATOM      1  O   UNL     1      -2.983   1.567  25.238  0.00  0.00    -0.420 OA
ATOM      5  N   UNL     1      -4.630   2.984  25.769  0.00  0.00    -0.112 NA
ATOM      7  N   UNL     1      -5.194   1.746  25.518  0.00  0.00    -0.107 NA
ATOM     12  C   UNL     1      -3.338   2.832  25.594  0.00  0.00    +0.222 A 
ATOM     14  C   UNL     1      -4.196   0.952  25.213  0.00  0.00    +0.248 A 
BRANCH  14  16
ATOM     16  C   UNL     1      -4.187  -0.439  24.863  0.00  0.00    +0.038 A 
ATOM     19  C   UNL     1      -3.508  -1.356  25.665  0.00  0.00    +0.013 A 
ATOM     20  C   UNL     1      -4.858  -0.875  23.719  0.00  0.00    +0.013 A 
ATOM     21  C   UNL     1      -3.499  -2.709  25.324  0.00  0.00    +0.004 A 
ATOM     22  C   UNL     1      -4.848  -2.227  23.378  0.00  0.00    +0.004 A 
ATOM     24  C   UNL     1      -4.168  -3.145  24.180  0.00  0.00    -0.050 A 
ATOM     27  C   UNL     1      -4.159  -4.591  23.816  0.00  0.00    +0.044 C 
ENDBRANCH  14  16
ENDBRANCH   8  12
TORSDOF 4
ENDMDL
MODEL 4
REMARK VINA RESULT:       9.1      1.738      2.154
REMARK  Name = 51137819
REMARK  6 active torsions:
REMARK  status: ('A' for Active; 'I' for Inactive)
REMARK    1  A    between atoms: O_3  and  C_17
REMARK    2  A    between atoms: O_3  and  C_28
REMARK    3  A    between atoms: N_6  and  C_15
REMARK    4  A    between atoms: C_8  and  C_12
REMARK    5  A    between atoms: C_14  and  C_16
REMARK    6  A    between atoms: C_24  and  C_27
REMARK                            x       y       z     vdW  Elec       q    Type
REMARK                         _______ _______ _______ _____ _____    ______ ____
ROOT
ATOM      2  O   UNL     1      -4.038   1.164  23.094  0.00  0.00    -0.252 OA
ATOM      4  N   UNL     1      -3.721  -0.548  24.590  0.00  0.00    -0.285 N 
ATOM      6  N   UNL     1      -4.475   1.529  25.357  0.00  0.00    -0.266 N 
ATOM      8  C   UNL     1      -2.642  -2.656  24.363  0.00  0.00    +0.096 C 
ATOM      9  C   UNL     1      -3.462  -2.641  25.661  0.00  0.00    +0.033 C 
ATOM     10  C   UNL     1      -3.270  -1.498  23.578  0.00  0.00    +0.122 C 
ATOM     11  C   UNL     1      -3.724  -1.160  25.916  0.00  0.00    +0.110 C 
ATOM     13  C   UNL     1      -4.083   0.763  24.258  0.00  0.00    +0.307 C 
ATOM     29  H   UNL     1      -4.451   1.094  26.273  0.00  0.00    +0.156 HD
ENDROOT
BRANCH   6  15
ATOM     15  C   UNL     1      -4.897   2.881  25.367  0.00  0.00    +0.077 A 
ATOM     17  C   UNL     1      -4.009   3.906  25.044  0.00  0.00    +0.141 A 
ATOM     18  C   UNL     1      -6.218   3.182  25.703  0.00  0.00    +0.027 A 
ATOM     23  C   UNL     1      -4.440   5.234  25.058  0.00  0.00    +0.047 A 
ATOM     25  C   UNL     1      -6.649   4.509  25.718  0.00  0.00    +0.002 A 
ATOM     26  C   UNL     1      -5.759   5.534  25.395  0.00  0.00    +0.004 A 
BRANCH  17   3
ATOM      3  O   UNL     1      -2.715   3.635  24.713  0.00  0.00    -0.493 OA
ATOM     28  C   UNL     1      -1.707   4.428  25.337  0.00  0.00    +0.277 C 
ENDBRANCH  17   3
ENDBRANCH   6  15
BRANCH   8  12
ATOM      1  O   UNL     1      -0.453  -1.625  23.944  0.00  0.00    -0.420 OA
ATOM      5  N   UNL     1      -0.411  -3.256  25.474  0.00  0.00    -0.112 NA
ATOM      7  N   UNL     1       0.875  -2.766  25.336  0.00  0.00    -0.107 NA
ATOM     12  C   UNL     1      -1.152  -2.561  24.643  0.00  0.00    +0.222 A 
ATOM     14  C   UNL     1       0.803  -1.816  24.434  0.00  0.00    +0.248 A 
BRANCH  14  16
ATOM     16  C   UNL     1       1.823  -0.966  23.894  0.00  0.00    +0.038 A 
ATOM     19  C   UNL     1       3.146  -1.407  23.847  0.00  0.00    +0.013 A 
ATOM     20  C   UNL     1       1.494   0.302  23.416  0.00  0.00    +0.013 A 
ATOM     21  C   UNL     1       4.139  -0.580  23.321  0.00  0.00    +0.004 A 
ATOM     22  C   UNL     1       2.487   1.130  22.891  0.00  0.00    +0.004 A 
ATOM     24  C   UNL     1       3.810   0.689  22.844  0.00  0.00    -0.050 A 
ATOM     27  C   UNL     1       4.872   1.573  22.283  0.00  0.00    +0.044 C 
ENDBRANCH  14  16
ENDBRANCH   8  12
TORSDOF 4
ENDMDL
