MODEL 1
REMARK VINA RESULT:      -3.7      0.000      0.000
REMARK  Name = 45783355
REMARK  10 active torsions:
REMARK  status: ('A' for Active; 'I' for Inactive)
REMARK    1  A    between atoms: O_2  and  C_20
REMARK    2  A    between atoms: O_2  and  C_22
REMARK    3  A    between atoms: O_3  and  C_23
REMARK    4  A    between atoms: O_3  and  C_24
REMARK    5  A    between atoms: N_4  and  C_12
REMARK    6  A    between atoms: C_8  and  C_13
REMARK    7  A    between atoms: C_12  and  C_14
REMARK    8  A    between atoms: C_14  and  C_15
REMARK    9  A    between atoms: C_16  and  C_17
REMARK   10  A    between atoms: C_22  and  C_23
REMARK                            x       y       z     vdW  Elec       q    Type
REMARK                         _______ _______ _______ _____ _____    ______ ____
ROOT
ATOM      1  O   UNL     1      -2.206  -0.249  25.762  0.00  0.00    -0.336 OA
ATOM      5  N   UNL     1      -1.591   1.304  24.269  0.00  0.00    -0.190 NA
ATOM      6  N   UNL     1      -1.071  -0.758  25.115  0.00  0.00    -0.056 NA
ATOM     13  C   UNL     1      -2.443   0.967  25.204  0.00  0.00    +0.245 A 
ATOM     16  C   UNL     1      -0.767   0.215  24.251  0.00  0.00    +0.202 A 
ENDROOT
BRANCH  16  17
ATOM      7  N   UNL     1       2.526  -0.038  21.608  0.00  0.00    -0.221 NA
ATOM     17  C   UNL     1       0.349   0.130  23.355  0.00  0.00    +0.029 A 
ATOM     18  C   UNL     1       1.532   0.800  23.647  0.00  0.00    +0.079 A 
ATOM     19  C   UNL     1       0.254  -0.625  22.191  0.00  0.00    +0.031 A 
ATOM     20  C   UNL     1       2.581   0.685  22.749  0.00  0.00    +0.215 A 
ATOM     21  C   UNL     1       1.360  -0.677  21.359  0.00  0.00    +0.115 A 
BRANCH  20   2
ATOM      2  O   UNL     1       3.757   1.337  23.014  0.00  0.00    -0.474 OA
BRANCH   2  22
ATOM     22  C   UNL     1       4.951   0.574  22.899  0.00  0.00    +0.258 C 
BRANCH  22  23
ATOM     23  C   UNL     1       5.590   0.444  24.269  0.00  0.00    +0.200 C 
BRANCH  23   3
ATOM      3  O   UNL     1       5.680  -0.933  24.610  0.00  0.00    -0.380 OA
ATOM     24  C   UNL     1       4.721  -1.709  23.906  0.00  0.00    +0.194 C 
ENDBRANCH  23   3
ENDBRANCH  22  23
ENDBRANCH   2  22
ENDBRANCH  20   2
ENDBRANCH  16  17
BRANCH  13   8
ATOM      4  N   UNL     1      -3.657   3.137  25.281  0.00  0.00    -0.291 NA
ATOM      8  C   UNL     1      -3.635   1.734  25.737  0.00  0.00    +0.146 C 
ATOM      9  C   UNL     1      -4.979   1.147  25.266  0.00  0.00    +0.030 C 
ATOM     10  C   UNL     1      -5.065   3.533  25.229  0.00  0.00    +0.085 C 
ATOM     11  C   UNL     1      -5.712   2.310  24.610  0.00  0.00    +0.017 C 
BRANCH   4  12
ATOM     12  C   UNL     1      -2.869   4.028  26.123  0.00  0.00    +0.085 C 
BRANCH  12  14
ATOM     14  C   UNL     1      -2.074   5.006  25.262  0.00  0.00    +0.012 C 
ATOM     15  C   UNL     1      -0.671   4.487  24.987  0.00  0.00    +0.005 C 
ENDBRANCH  12  14
ENDBRANCH   4  12
ENDBRANCH  13   8
TORSDOF 8
ENDMDL
MODEL 2
REMARK VINA RESULT:      -3.3      1.425      2.469
REMARK  Name = 45783355
REMARK  10 active torsions:
REMARK  status: ('A' for Active; 'I' for Inactive)
REMARK    1  A    between atoms: O_2  and  C_20
REMARK    2  A    between atoms: O_2  and  C_22
REMARK    3  A    between atoms: O_3  and  C_23
REMARK    4  A    between atoms: O_3  and  C_24
REMARK    5  A    between atoms: N_4  and  C_12
REMARK    6  A    between atoms: C_8  and  C_13
REMARK    7  A    between atoms: C_12  and  C_14
REMARK    8  A    between atoms: C_14  and  C_15
REMARK    9  A    between atoms: C_16  and  C_17
REMARK   10  A    between atoms: C_22  and  C_23
REMARK                            x       y       z     vdW  Elec       q    Type
REMARK                         _______ _______ _______ _____ _____    ______ ____
ROOT
ATOM      1  O   UNL     1      -1.867   2.168  25.476  0.00  0.00    -0.336 OA
ATOM      5  N   UNL     1      -1.820   1.471  23.348  0.00  0.00    -0.190 NA
ATOM      6  N   UNL     1      -0.550   1.761  25.229  0.00  0.00    -0.056 NA
ATOM     13  C   UNL     1      -2.548   1.965  24.318  0.00  0.00    +0.245 A 
ATOM     16  C   UNL     1      -0.602   1.364  23.954  0.00  0.00    +0.202 A 
ENDROOT
BRANCH  16  17
ATOM      7  N   UNL     1       2.777  -0.141  21.901  0.00  0.00    -0.221 NA
ATOM     17  C   UNL     1       0.544   0.855  23.258  0.00  0.00    +0.029 A 
ATOM     18  C   UNL     1       1.802   1.402  23.488  0.00  0.00    +0.079 A 
ATOM     19  C   UNL     1       0.402  -0.190  22.351  0.00  0.00    +0.031 A 
ATOM     20  C   UNL     1       2.876   0.873  22.790  0.00  0.00    +0.215 A 
ATOM     21  C   UNL     1       1.539  -0.647  21.705  0.00  0.00    +0.115 A 
BRANCH  20   2
ATOM      2  O   UNL     1       4.126   1.396  22.998  0.00  0.00    -0.474 OA
BRANCH   2  22
ATOM     22  C   UNL     1       5.213   0.479  22.985  0.00  0.00    +0.258 C 
BRANCH  22  23
ATOM     23  C   UNL     1       5.688   0.256  24.408  0.00  0.00    +0.200 C 
BRANCH  23   3
ATOM      3  O   UNL     1       5.667  -1.138  24.691  0.00  0.00    -0.380 OA
ATOM     24  C   UNL     1       4.656  -1.805  23.948  0.00  0.00    +0.194 C 
ENDBRANCH  23   3
ENDBRANCH  22  23
ENDBRANCH   2  22
ENDBRANCH  20   2
ENDBRANCH  16  17
BRANCH  13   8
ATOM      4  N   UNL     1      -4.769   1.643  25.391  0.00  0.00    -0.291 NA
ATOM      8  C   UNL     1      -4.017   2.332  24.324  0.00  0.00    +0.146 C 
ATOM      9  C   UNL     1      -4.254   3.831  24.583  0.00  0.00    +0.030 C 
ATOM     10  C   UNL     1      -5.876   2.528  25.754  0.00  0.00    +0.085 C 
ATOM     11  C   UNL     1      -5.199   3.884  25.776  0.00  0.00    +0.017 C 
BRANCH   4  12
ATOM     12  C   UNL     1      -5.233   0.317  25.003  0.00  0.00    +0.085 C 
BRANCH  12  14
ATOM     14  C   UNL     1      -4.115  -0.708  25.175  0.00  0.00    +0.012 C 
ATOM     15  C   UNL     1      -4.023  -1.633  23.971  0.00  0.00    +0.005 C 
ENDBRANCH  12  14
ENDBRANCH   4  12
ENDBRANCH  13   8
TORSDOF 8
ENDMDL
MODEL 3
REMARK VINA RESULT:      -1.1      1.294      1.626
REMARK  Name = 45783355
REMARK  10 active torsions:
REMARK  status: ('A' for Active; 'I' for Inactive)
REMARK    1  A    between atoms: O_2  and  C_20
REMARK    2  A    between atoms: O_2  and  C_22
REMARK    3  A    between atoms: O_3  and  C_23
REMARK    4  A    between atoms: O_3  and  C_24
REMARK    5  A    between atoms: N_4  and  C_12
REMARK    6  A    between atoms: C_8  and  C_13
REMARK    7  A    between atoms: C_12  and  C_14
REMARK    8  A    between atoms: C_14  and  C_15
REMARK    9  A    between atoms: C_16  and  C_17
REMARK   10  A    between atoms: C_22  and  C_23
REMARK                            x       y       z     vdW  Elec       q    Type
REMARK                         _______ _______ _______ _____ _____    ______ ____
ROOT
ATOM      1  O   UNL     1      -1.435   2.177  25.559  0.00  0.00    -0.336 OA
ATOM      5  N   UNL     1      -1.417   0.433  24.154  0.00  0.00    -0.190 NA
ATOM      6  N   UNL     1      -0.175   2.184  24.947  0.00  0.00    -0.056 NA
ATOM     13  C   UNL     1      -2.103   1.115  25.037  0.00  0.00    +0.245 A 
ATOM     16  C   UNL     1      -0.242   1.126  24.132  0.00  0.00    +0.202 A 
ENDROOT
BRANCH  16  17
ATOM      7  N   UNL     1       2.972  -0.028  21.636  0.00  0.00    -0.221 NA
ATOM     17  C   UNL     1       0.848   0.735  23.285  0.00  0.00    +0.029 A 
ATOM     18  C   UNL     1       2.116   1.271  23.486  0.00  0.00    +0.079 A 
ATOM     19  C   UNL     1       0.642  -0.182  22.262  0.00  0.00    +0.031 A 
ATOM     20  C   UNL     1       3.134   0.861  22.641  0.00  0.00    +0.215 A 
ATOM     21  C   UNL     1       1.726  -0.528  21.472  0.00  0.00    +0.115 A 
BRANCH  20   2
ATOM      2  O   UNL     1       4.392   1.375  22.819  0.00  0.00    -0.474 OA
BRANCH   2  22
ATOM     22  C   UNL     1       5.445   0.438  23.007  0.00  0.00    +0.258 C 
BRANCH  22  23
ATOM     23  C   UNL     1       5.403  -0.074  24.434  0.00  0.00    +0.200 C 
BRANCH  23   3
ATOM      3  O   UNL     1       5.386  -1.496  24.416  0.00  0.00    -0.380 OA
ATOM     24  C   UNL     1       4.145  -1.996  23.938  0.00  0.00    +0.194 C 
ENDBRANCH  23   3
ENDBRANCH  22  23
ENDBRANCH   2  22
ENDBRANCH  20   2
ENDBRANCH  16  17
BRANCH  13   8
ATOM      4  N   UNL     1      -4.480   1.845  24.981  0.00  0.00    -0.291 NA
ATOM      8  C   UNL     1      -3.511   0.886  25.544  0.00  0.00    +0.146 C 
ATOM      9  C   UNL     1      -4.063  -0.499  25.161  0.00  0.00    +0.030 C 
ATOM     10  C   UNL     1      -5.770   1.156  24.940  0.00  0.00    +0.085 C 
ATOM     11  C   UNL     1      -5.374  -0.219  24.438  0.00  0.00    +0.017 C 
BRANCH   4  12
ATOM     12  C   UNL     1      -4.551   3.096  25.726  0.00  0.00    +0.085 C 
BRANCH  12  14
ATOM     14  C   UNL     1      -4.029   4.251  24.876  0.00  0.00    +0.012 C 
ATOM     15  C   UNL     1      -3.895   3.847  23.416  0.00  0.00    +0.005 C 
ENDBRANCH  12  14
ENDBRANCH   4  12
ENDBRANCH  13   8
TORSDOF 8
ENDMDL
MODEL 4
REMARK VINA RESULT:      -0.9      2.702      6.811
REMARK  Name = 45783355
REMARK  10 active torsions:
REMARK  status: ('A' for Active; 'I' for Inactive)
REMARK    1  A    between atoms: O_2  and  C_20
REMARK    2  A    between atoms: O_2  and  C_22
REMARK    3  A    between atoms: O_3  and  C_23
REMARK    4  A    between atoms: O_3  and  C_24
REMARK    5  A    between atoms: N_4  and  C_12
REMARK    6  A    between atoms: C_8  and  C_13
REMARK    7  A    between atoms: C_12  and  C_14
REMARK    8  A    between atoms: C_14  and  C_15
REMARK    9  A    between atoms: C_16  and  C_17
REMARK   10  A    between atoms: C_22  and  C_23
REMARK                            x       y       z     vdW  Elec       q    Type
REMARK                         _______ _______ _______ _____ _____    ______ ____
ROOT
ATOM      1  O   UNL     1      -3.670  -1.686  23.919  0.00  0.00    -0.336 OA
ATOM      5  N   UNL     1      -2.641   0.166  24.647  0.00  0.00    -0.190 NA
ATOM      6  N   UNL     1      -4.683  -0.752  24.175  0.00  0.00    -0.056 NA
ATOM     13  C   UNL     1      -2.500  -1.064  24.223  0.00  0.00    +0.245 A 
ATOM     16  C   UNL     1      -3.997   0.314  24.599  0.00  0.00    +0.202 A 
ENDROOT
BRANCH  16  17
ATOM      7  N   UNL     1      -5.881   3.926  25.738  0.00  0.00    -0.221 NA
ATOM     17  C   UNL     1      -4.636   1.538  24.986  0.00  0.00    +0.029 A 
ATOM     18  C   UNL     1      -3.873   2.672  25.246  0.00  0.00    +0.079 A 
ATOM     19  C   UNL     1      -6.020   1.597  25.100  0.00  0.00    +0.031 A 
ATOM     20  C   UNL     1      -4.539   3.829  25.616  0.00  0.00    +0.215 A 
ATOM     21  C   UNL     1      -6.589   2.803  25.475  0.00  0.00    +0.115 A 
BRANCH  20   2
ATOM      2  O   UNL     1      -3.810   4.960  25.878  0.00  0.00    -0.474 OA
BRANCH   2  22
ATOM     22  C   UNL     1      -2.431   4.778  26.177  0.00  0.00    +0.258 C 
BRANCH  22  23
ATOM     23  C   UNL     1      -1.599   5.380  25.061  0.00  0.00    +0.200 C 
BRANCH  23   3
ATOM      3  O   UNL     1      -0.555   4.477  24.721  0.00  0.00    -0.380 OA
ATOM     24  C   UNL     1      -0.573   3.325  25.552  0.00  0.00    +0.194 C 
ENDBRANCH  23   3
ENDBRANCH  22  23
ENDBRANCH   2  22
ENDBRANCH  20   2
ENDBRANCH  16  17
BRANCH  13   8
ATOM      4  N   UNL     1      -0.012  -1.069  24.214  0.00  0.00    -0.291 NA
ATOM      8  C   UNL     1      -1.235  -1.874  24.029  0.00  0.00    +0.146 C 
ATOM      9  C   UNL     1      -1.104  -3.024  25.044  0.00  0.00    +0.030 C 
ATOM     10  C   UNL     1       1.018  -1.987  24.698  0.00  0.00    +0.085 C 
ATOM     11  C   UNL     1       0.250  -2.816  25.709  0.00  0.00    +0.017 C 
BRANCH   4  12
ATOM     12  C   UNL     1       0.403  -0.368  23.005  0.00  0.00    +0.085 C 
BRANCH  12  14
ATOM     14  C   UNL     1       1.551   0.589  23.315  0.00  0.00    +0.012 C 
ATOM     15  C   UNL     1       2.775   0.277  22.467  0.00  0.00    +0.005 C 
ENDBRANCH  12  14
ENDBRANCH   4  12
ENDBRANCH  13   8
TORSDOF 8
ENDMDL
MODEL 5
REMARK VINA RESULT:      -0.3      3.237      6.854
REMARK  Name = 45783355
REMARK  10 active torsions:
REMARK  status: ('A' for Active; 'I' for Inactive)
REMARK    1  A    between atoms: O_2  and  C_20
REMARK    2  A    between atoms: O_2  and  C_22
REMARK    3  A    between atoms: O_3  and  C_23
REMARK    4  A    between atoms: O_3  and  C_24
REMARK    5  A    between atoms: N_4  and  C_12
REMARK    6  A    between atoms: C_8  and  C_13
REMARK    7  A    between atoms: C_12  and  C_14
REMARK    8  A    between atoms: C_14  and  C_15
REMARK    9  A    between atoms: C_16  and  C_17
REMARK   10  A    between atoms: C_22  and  C_23
REMARK                            x       y       z     vdW  Elec       q    Type
REMARK                         _______ _______ _______ _____ _____    ______ ____
ROOT
ATOM      1  O   UNL     1       0.257  -0.489  23.935  0.00  0.00    -0.336 OA
ATOM      5  N   UNL     1      -1.480   0.469  24.973  0.00  0.00    -0.190 NA
ATOM      6  N   UNL     1       0.472   0.893  23.858  0.00  0.00    -0.056 NA
ATOM     13  C   UNL     1      -0.913  -0.652  24.606  0.00  0.00    +0.245 A 
ATOM     16  C   UNL     1      -0.594   1.389  24.493  0.00  0.00    +0.202 A 
ENDROOT
BRANCH  16  17
ATOM      7  N   UNL     1      -1.214   5.544  24.992  0.00  0.00    -0.221 NA
ATOM     17  C   UNL     1      -0.805   2.798  24.662  0.00  0.00    +0.029 A 
ATOM     18  C   UNL     1      -1.903   3.259  25.380  0.00  0.00    +0.079 A 
ATOM     19  C   UNL     1       0.089   3.708  24.109  0.00  0.00    +0.031 A 
ATOM     20  C   UNL     1      -2.061   4.629  25.514  0.00  0.00    +0.215 A 
ATOM     21  C   UNL     1      -0.158   5.058  24.301  0.00  0.00    +0.115 A 
BRANCH  20   2
ATOM      2  O   UNL     1      -3.135   5.108  26.217  0.00  0.00    -0.474 OA
BRANCH   2  22
ATOM     22  C   UNL     1      -4.164   4.177  26.527  0.00  0.00    +0.258 C 
BRANCH  22  23
ATOM     23  C   UNL     1      -5.181   4.171  25.402  0.00  0.00    +0.200 C 
BRANCH  23   3
ATOM      3  O   UNL     1      -5.577   2.830  25.142  0.00  0.00    -0.380 OA
ATOM     24  C   UNL     1      -6.230   2.253  26.264  0.00  0.00    +0.194 C 
ENDBRANCH  23   3
ENDBRANCH  22  23
ENDBRANCH   2  22
ENDBRANCH  20   2
ENDBRANCH  16  17
BRANCH  13   8
ATOM      4  N   UNL     1      -2.830  -2.236  24.650  0.00  0.00    -0.291 NA
ATOM      8  C   UNL     1      -1.374  -2.078  24.825  0.00  0.00    +0.146 C 
ATOM      9  C   UNL     1      -0.750  -3.065  23.821  0.00  0.00    +0.030 C 
ATOM     10  C   UNL     1      -3.045  -3.607  24.188  0.00  0.00    +0.085 C 
ATOM     11  C   UNL     1      -1.932  -3.774  23.174  0.00  0.00    +0.017 C 
BRANCH   4  12
ATOM     12  C   UNL     1      -3.590  -1.940  25.859  0.00  0.00    +0.085 C 
BRANCH  12  14
ATOM     14  C   UNL     1      -4.346  -0.623  25.702  0.00  0.00    +0.012 C 
ATOM     15  C   UNL     1      -4.593  -0.299  24.237  0.00  0.00    +0.005 C 
ENDBRANCH  12  14
ENDBRANCH   4  12
ENDBRANCH  13   8
TORSDOF 8
ENDMDL
MODEL 6
REMARK VINA RESULT:       0.1      2.367      7.481
REMARK  Name = 45783355
REMARK  10 active torsions:
REMARK  status: ('A' for Active; 'I' for Inactive)
REMARK    1  A    between atoms: O_2  and  C_20
REMARK    2  A    between atoms: O_2  and  C_22
REMARK    3  A    between atoms: O_3  and  C_23
REMARK    4  A    between atoms: O_3  and  C_24
REMARK    5  A    between atoms: N_4  and  C_12
REMARK    6  A    between atoms: C_8  and  C_13
REMARK    7  A    between atoms: C_12  and  C_14
REMARK    8  A    between atoms: C_14  and  C_15
REMARK    9  A    between atoms: C_16  and  C_17
REMARK   10  A    between atoms: C_22  and  C_23
REMARK                            x       y       z     vdW  Elec       q    Type
REMARK                         _______ _______ _______ _____ _____    ______ ____
ROOT
ATOM      1  O   UNL     1       0.495   3.084  24.297  0.00  0.00    -0.336 OA
ATOM      5  N   UNL     1      -1.230   1.692  24.618  0.00  0.00    -0.190 NA
ATOM      6  N   UNL     1      -0.603   3.892  24.617  0.00  0.00    -0.056 NA
ATOM     13  C   UNL     1       0.040   1.804  24.319  0.00  0.00    +0.245 A 
ATOM     16  C   UNL     1      -1.582   2.998  24.793  0.00  0.00    +0.202 A 
ENDROOT
BRANCH  16  17
ATOM      7  N   UNL     1      -5.529   4.119  25.821  0.00  0.00    -0.221 NA
ATOM     17  C   UNL     1      -2.920   3.379  25.141  0.00  0.00    +0.029 A 
ATOM     18  C   UNL     1      -3.952   2.448  25.068  0.00  0.00    +0.079 A 
ATOM     19  C   UNL     1      -3.192   4.678  25.554  0.00  0.00    +0.031 A 
ATOM     20  C   UNL     1      -5.226   2.866  25.415  0.00  0.00    +0.215 A 
ATOM     21  C   UNL     1      -4.500   4.995  25.880  0.00  0.00    +0.115 A 
BRANCH  20   2
ATOM      2  O   UNL     1      -6.260   1.968  25.352  0.00  0.00    -0.474 OA
BRANCH   2  22
ATOM     22  C   UNL     1      -6.054   0.811  24.552  0.00  0.00    +0.258 C 
BRANCH  22  23
ATOM     23  C   UNL     1      -4.807   0.093  25.032  0.00  0.00    +0.200 C 
BRANCH  23   3
ATOM      3  O   UNL     1      -4.148  -0.490  23.915  0.00  0.00    -0.380 OA
ATOM     24  C   UNL     1      -4.267  -1.906  23.920  0.00  0.00    +0.194 C 
ENDBRANCH  23   3
ENDBRANCH  22  23
ENDBRANCH   2  22
ENDBRANCH  20   2
ENDBRANCH  16  17
BRANCH  13   8
ATOM      4  N   UNL     1       0.598  -0.178  22.923  0.00  0.00    -0.291 NA
ATOM      8  C   UNL     1       1.051   0.722  24.001  0.00  0.00    +0.146 C 
ATOM      9  C   UNL     1       2.391   1.289  23.501  0.00  0.00    +0.030 C 
ATOM     10  C   UNL     1       1.805  -0.659  22.251  0.00  0.00    +0.085 C 
ATOM     11  C   UNL     1       2.638   0.605  22.163  0.00  0.00    +0.017 C 
BRANCH   4  12
ATOM     12  C   UNL     1      -0.235  -1.275  23.401  0.00  0.00    +0.085 C 
BRANCH  12  14
ATOM     14  C   UNL     1       0.029  -1.536  24.882  0.00  0.00    +0.012 C 
ATOM     15  C   UNL     1      -1.255  -1.466  25.694  0.00  0.00    +0.005 C 
ENDBRANCH  12  14
ENDBRANCH   4  12
ENDBRANCH  13   8
TORSDOF 8
ENDMDL
