MODEL 1
REMARK VINA RESULT:      -4.7      0.000      0.000
REMARK  Name = 11865665
REMARK  7 active torsions:
REMARK  status: ('A' for Active; 'I' for Inactive)
REMARK    1  A    between atoms: O_1  and  C_17
REMARK    2  A    between atoms: O_2  and  C_18
REMARK    3  A    between atoms: N_6  and  C_10
REMARK    4  A    between atoms: N_7  and  C_16
REMARK    5  A    between atoms: N_8  and  C_24
REMARK    6  A    between atoms: C_21  and  C_23
REMARK    7  A    between atoms: C_24  and  C_25
REMARK                            x       y       z     vdW  Elec       q    Type
REMARK                         _______ _______ _______ _____ _____    ______ ____
ROOT
ATOM     16  C   UNL     1      -0.724   2.613  25.774  0.00  0.00    +0.129 C 
ATOM     17  C   UNL     1      -1.007   4.026  25.230  0.00  0.00    +0.167 C 
ATOM     18  C   UNL     1      -2.486   4.403  25.388  0.00  0.00    +0.149 C 
ATOM     19  C   UNL     1      -3.419   3.379  24.721  0.00  0.00    +0.074 C 
ATOM     20  C   UNL     1      -1.760   1.600  25.367  0.00  0.00    +0.006 C 
ATOM     21  C   UNL     1      -2.961   1.957  24.889  0.00  0.00    +0.015 C 
ENDROOT
BRANCH  16   7
ATOM      3  O   UNL     1      -0.034   1.370  23.262  0.00  0.00    -0.253 OA
ATOM      6  N   UNL     1       2.159   1.183  23.998  0.00  0.00    -0.297 N 
ATOM      7  N   UNL     1       0.577   2.138  25.368  0.00  0.00    -0.291 N 
ATOM     22  C   UNL     1       0.821   1.547  24.129  0.00  0.00    +0.300 C 
ATOM     26  H   UNL     1       2.801   1.442  24.741  0.00  0.00    +0.151 HD
ATOM     27  H   UNL     1       1.343   2.187  26.032  0.00  0.00    +0.151 HD
BRANCH   6  10
ATOM     10  C   UNL     1       2.686   0.549  22.809  0.00  0.00    +0.074 C 
ATOM     11  C   UNL     1       4.056   1.125  22.439  0.00  0.00    +0.022 C 
ATOM     12  C   UNL     1       2.749  -0.973  22.977  0.00  0.00    +0.022 C 
ATOM     13  C   UNL     1       5.156   0.687  23.406  0.00  0.00    +0.002 C 
ATOM     14  C   UNL     1       3.851  -1.407  23.944  0.00  0.00    +0.002 C 
ATOM     15  C   UNL     1       5.207  -0.832  23.549  0.00  0.00    +0.000 C 
ENDBRANCH   6  10
ENDBRANCH  16   7
BRANCH  21  23
ATOM      4  O   UNL     1      -5.108   1.069  24.547  0.00  0.00    -0.271 OA
ATOM      8  N   UNL     1      -3.252  -0.294  24.183  0.00  0.00    -0.303 N 
ATOM     23  C   UNL     1      -3.891   0.884  24.528  0.00  0.00    +0.240 C 
ATOM     30  H   UNL     1      -2.236  -0.337  24.198  0.00  0.00    +0.150 HD
BRANCH   8  24
ATOM     24  C   UNL     1      -3.959  -1.491  23.792  0.00  0.00    +0.200 C 
BRANCH  24  25
ATOM      5  O   UNL     1      -3.811  -3.688  24.800  0.00  0.00    -0.274 OA
ATOM      9  N   UNL     1      -1.870  -2.565  24.295  0.00  0.00    -0.328 N 
ATOM     25  C   UNL     1      -3.241  -2.706  24.334  0.00  0.00    +0.228 C 
ATOM     31  H   UNL     1      -1.260  -3.299  24.640  0.00  0.00    +0.145 HD
ATOM     32  H   UNL     1      -1.421  -1.736  23.918  0.00  0.00    +0.145 HD
ENDBRANCH  24  25
ENDBRANCH   8  24
ENDBRANCH  21  23
BRANCH  17   1
ATOM      1  O   UNL     1      -0.664   4.084  23.843  0.00  0.00    -0.387 OA
ATOM     28  H   UNL     1      -1.223   4.766  23.432  0.00  0.00    +0.210 HD
ENDBRANCH  17   1
BRANCH  18   2
ATOM      2  O   UNL     1      -2.813   4.537  26.769  0.00  0.00    -0.389 OA
ATOM     29  H   UNL     1      -3.758   4.757  26.828  0.00  0.00    +0.210 HD
ENDBRANCH  18   2
TORSDOF 7
ENDMDL
MODEL 2
REMARK VINA RESULT:      -3.2      2.111      4.321
REMARK  Name = 11865665
REMARK  7 active torsions:
REMARK  status: ('A' for Active; 'I' for Inactive)
REMARK    1  A    between atoms: O_1  and  C_17
REMARK    2  A    between atoms: O_2  and  C_18
REMARK    3  A    between atoms: N_6  and  C_10
REMARK    4  A    between atoms: N_7  and  C_16
REMARK    5  A    between atoms: N_8  and  C_24
REMARK    6  A    between atoms: C_21  and  C_23
REMARK    7  A    between atoms: C_24  and  C_25
REMARK                            x       y       z     vdW  Elec       q    Type
REMARK                         _______ _______ _______ _____ _____    ______ ____
ROOT
ATOM     16  C   UNL     1      -1.122  -0.577  23.953  0.00  0.00    +0.129 C 
ATOM     17  C   UNL     1      -1.270  -1.691  25.006  0.00  0.00    +0.167 C 
ATOM     18  C   UNL     1      -2.732  -2.130  25.159  0.00  0.00    +0.149 C 
ATOM     19  C   UNL     1      -3.658  -0.950  25.499  0.00  0.00    +0.074 C 
ATOM     20  C   UNL     1      -2.173   0.494  24.069  0.00  0.00    +0.006 C 
ATOM     21  C   UNL     1      -3.301   0.316  24.771  0.00  0.00    +0.015 C 
ENDROOT
BRANCH  16   7
ATOM      3  O   UNL     1       1.038  -0.892  22.066  0.00  0.00    -0.253 OA
ATOM      6  N   UNL     1       2.325   0.547  23.353  0.00  0.00    -0.297 N 
ATOM      7  N   UNL     1       0.180   0.041  24.012  0.00  0.00    -0.291 N 
ATOM     22  C   UNL     1       1.169  -0.169  23.052  0.00  0.00    +0.300 C 
ATOM     26  H   UNL     1       2.306   1.176  24.150  0.00  0.00    +0.151 HD
ATOM     27  H   UNL     1       0.411   0.615  24.817  0.00  0.00    +0.151 HD
BRANCH   6  10
ATOM     10  C   UNL     1       3.508   0.511  22.521  0.00  0.00    +0.074 C 
ATOM     11  C   UNL     1       4.601   1.428  23.077  0.00  0.00    +0.022 C 
ATOM     12  C   UNL     1       4.019  -0.924  22.351  0.00  0.00    +0.022 C 
ATOM     13  C   UNL     1       5.235   0.876  24.354  0.00  0.00    +0.002 C 
ATOM     14  C   UNL     1       4.654  -1.472  23.629  0.00  0.00    +0.002 C 
ATOM     15  C   UNL     1       5.747  -0.549  24.158  0.00  0.00    +0.000 C 
ENDBRANCH   6  10
ENDBRANCH  16   7
BRANCH  21  23
ATOM      4  O   UNL     1      -5.389   1.273  25.267  0.00  0.00    -0.271 OA
ATOM      8  N   UNL     1      -3.739   2.604  24.297  0.00  0.00    -0.303 N 
ATOM     23  C   UNL     1      -4.256   1.428  24.811  0.00  0.00    +0.240 C 
ATOM     30  H   UNL     1      -2.784   2.623  23.948  0.00  0.00    +0.150 HD
BRANCH   8  24
ATOM     24  C   UNL     1      -4.492   3.835  24.228  0.00  0.00    +0.200 C 
BRANCH  24  25
ATOM      5  O   UNL     1      -4.012   4.534  26.497  0.00  0.00    -0.274 OA
ATOM      9  N   UNL     1      -6.205   4.366  25.825  0.00  0.00    -0.328 N 
ATOM     25  C   UNL     1      -4.843   4.295  25.625  0.00  0.00    +0.228 C 
ATOM     31  H   UNL     1      -6.586   4.648  26.723  0.00  0.00    +0.145 HD
ATOM     32  H   UNL     1      -6.873   4.149  25.093  0.00  0.00    +0.145 HD
ENDBRANCH  24  25
ENDBRANCH   8  24
ENDBRANCH  21  23
BRANCH  17   1
ATOM      1  O   UNL     1      -0.796  -1.223  26.271  0.00  0.00    -0.387 OA
ATOM     28  H   UNL     1       0.125  -0.936  26.150  0.00  0.00    +0.210 HD
ENDBRANCH  17   1
BRANCH  18   2
ATOM      2  O   UNL     1      -3.178  -2.774  23.968  0.00  0.00    -0.389 OA
ATOM     29  H   UNL     1      -4.065  -2.432  23.762  0.00  0.00    +0.210 HD
ENDBRANCH  18   2
TORSDOF 7
ENDMDL
MODEL 3
REMARK VINA RESULT:      -2.7      1.879      4.557
REMARK  Name = 11865665
REMARK  7 active torsions:
REMARK  status: ('A' for Active; 'I' for Inactive)
REMARK    1  A    between atoms: O_1  and  C_17
REMARK    2  A    between atoms: O_2  and  C_18
REMARK    3  A    between atoms: N_6  and  C_10
REMARK    4  A    between atoms: N_7  and  C_16
REMARK    5  A    between atoms: N_8  and  C_24
REMARK    6  A    between atoms: C_21  and  C_23
REMARK    7  A    between atoms: C_24  and  C_25
REMARK                            x       y       z     vdW  Elec       q    Type
REMARK                         _______ _______ _______ _____ _____    ______ ____
ROOT
ATOM     16  C   UNL     1      -1.388  -0.679  23.906  0.00  0.00    +0.129 C 
ATOM     17  C   UNL     1      -2.023  -1.764  24.796  0.00  0.00    +0.167 C 
ATOM     18  C   UNL     1      -3.550  -1.622  24.853  0.00  0.00    +0.149 C 
ATOM     19  C   UNL     1      -3.983  -0.224  25.327  0.00  0.00    +0.074 C 
ATOM     20  C   UNL     1      -1.962   0.692  24.139  0.00  0.00    +0.006 C 
ATOM     21  C   UNL     1      -3.123   0.882  24.784  0.00  0.00    +0.015 C 
ENDROOT
BRANCH  16   7
ATOM      3  O   UNL     1       0.612  -0.586  21.828  0.00  0.00    -0.253 OA
ATOM      6  N   UNL     1       2.257  -0.525  23.463  0.00  0.00    -0.297 N 
ATOM      7  N   UNL     1       0.043  -0.620  24.080  0.00  0.00    -0.291 N 
ATOM     22  C   UNL     1       0.940  -0.578  23.014  0.00  0.00    +0.300 C 
ATOM     26  H   UNL     1       2.419  -0.446  24.463  0.00  0.00    +0.151 HD
ATOM     27  H   UNL     1       0.422  -0.664  25.021  0.00  0.00    +0.151 HD
BRANCH   6  10
ATOM     10  C   UNL     1       3.390  -0.473  22.565  0.00  0.00    +0.074 C 
ATOM     11  C   UNL     1       3.914   0.959  22.422  0.00  0.00    +0.022 C 
ATOM     12  C   UNL     1       4.499  -1.428  23.021  0.00  0.00    +0.022 C 
ATOM     13  C   UNL     1       4.631   1.449  23.681  0.00  0.00    +0.002 C 
ATOM     14  C   UNL     1       5.214  -0.934  24.279  0.00  0.00    +0.002 C 
ATOM     15  C   UNL     1       5.737   0.488  24.109  0.00  0.00    +0.000 C 
ENDBRANCH   6  10
ENDBRANCH  16   7
BRANCH  21  23
ATOM      4  O   UNL     1      -4.727   2.591  24.624  0.00  0.00    -0.271 OA
ATOM      8  N   UNL     1      -2.623   3.096  25.490  0.00  0.00    -0.303 N 
ATOM     23  C   UNL     1      -3.587   2.263  24.950  0.00  0.00    +0.240 C 
ATOM     30  H   UNL     1      -1.709   2.720  25.728  0.00  0.00    +0.150 HD
BRANCH   8  24
ATOM     24  C   UNL     1      -2.846   4.500  25.745  0.00  0.00    +0.200 C 
BRANCH  24  25
ATOM      5  O   UNL     1      -1.744   6.516  24.979  0.00  0.00    -0.274 OA
ATOM      9  N   UNL     1      -0.599   4.524  24.897  0.00  0.00    -0.328 N 
ATOM     25  C   UNL     1      -1.694   5.308  25.190  0.00  0.00    +0.228 C 
ATOM     31  H   UNL     1       0.244   4.931  24.504  0.00  0.00    +0.145 HD
ATOM     32  H   UNL     1      -0.587   3.523  25.067  0.00  0.00    +0.145 HD
ENDBRANCH  24  25
ENDBRANCH   8  24
ENDBRANCH  21  23
BRANCH  17   1
ATOM      1  O   UNL     1      -1.503  -1.662  26.124  0.00  0.00    -0.387 OA
ATOM     28  H   UNL     1      -0.550  -1.484  26.051  0.00  0.00    +0.210 HD
ENDBRANCH  17   1
BRANCH  18   2
ATOM      2  O   UNL     1      -4.117  -1.904  23.576  0.00  0.00    -0.389 OA
ATOM     29  H   UNL     1      -3.388  -2.124  22.972  0.00  0.00    +0.210 HD
ENDBRANCH  18   2
TORSDOF 7
ENDMDL
MODEL 4
REMARK VINA RESULT:      -1.0      2.259      6.674
REMARK  Name = 11865665
REMARK  7 active torsions:
REMARK  status: ('A' for Active; 'I' for Inactive)
REMARK    1  A    between atoms: O_1  and  C_17
REMARK    2  A    between atoms: O_2  and  C_18
REMARK    3  A    between atoms: N_6  and  C_10
REMARK    4  A    between atoms: N_7  and  C_16
REMARK    5  A    between atoms: N_8  and  C_24
REMARK    6  A    between atoms: C_21  and  C_23
REMARK    7  A    between atoms: C_24  and  C_25
REMARK                            x       y       z     vdW  Elec       q    Type
REMARK                         _______ _______ _______ _____ _____    ______ ____
ROOT
ATOM     16  C   UNL     1      -3.802  -1.131  25.505  0.00  0.00    +0.129 C 
ATOM     17  C   UNL     1      -4.353  -1.878  24.276  0.00  0.00    +0.167 C 
ATOM     18  C   UNL     1      -3.532  -3.136  23.967  0.00  0.00    +0.149 C 
ATOM     19  C   UNL     1      -2.039  -2.820  23.774  0.00  0.00    +0.074 C 
ATOM     20  C   UNL     1      -2.302  -1.015  25.508  0.00  0.00    +0.006 C 
ATOM     21  C   UNL     1      -1.524  -1.773  24.721  0.00  0.00    +0.015 C 
ENDROOT
BRANCH  16   7
ATOM      3  O   UNL     1      -3.071   1.219  24.000  0.00  0.00    -0.253 OA
ATOM      6  N   UNL     1      -4.670   2.424  25.172  0.00  0.00    -0.297 N 
ATOM      7  N   UNL     1      -4.371   0.189  25.625  0.00  0.00    -0.291 N 
ATOM     22  C   UNL     1      -3.955   1.273  24.854  0.00  0.00    +0.300 C 
ATOM     26  H   UNL     1      -5.433   2.346  25.838  0.00  0.00    +0.151 HD
ATOM     27  H   UNL     1      -5.073   0.354  26.340  0.00  0.00    +0.151 HD
BRANCH   6  10
ATOM     10  C   UNL     1      -4.440   3.695  24.520  0.00  0.00    +0.074 C 
ATOM     11  C   UNL     1      -4.269   4.818  25.548  0.00  0.00    +0.022 C 
ATOM     12  C   UNL     1      -3.238   3.620  23.573  0.00  0.00    +0.022 C 
ATOM     13  C   UNL     1      -2.938   4.731  26.294  0.00  0.00    +0.002 C 
ATOM     14  C   UNL     1      -1.909   3.533  24.324  0.00  0.00    +0.002 C 
ATOM     15  C   UNL     1      -1.756   4.668  25.331  0.00  0.00    +0.000 C 
ENDBRANCH   6  10
ENDBRANCH  16   7
BRANCH  21  23
ATOM      4  O   UNL     1       0.600  -2.197  25.631  0.00  0.00    -0.271 OA
ATOM      8  N   UNL     1       0.402  -0.649  23.899  0.00  0.00    -0.303 N 
ATOM     23  C   UNL     1      -0.075  -1.576  24.810  0.00  0.00    +0.240 C 
ATOM     30  H   UNL     1      -0.244  -0.194  23.260  0.00  0.00    +0.150 HD
BRANCH   8  24
ATOM     24  C   UNL     1       1.796  -0.286  23.798  0.00  0.00    +0.200 C 
BRANCH  24  25
ATOM      5  O   UNL     1       1.491  -0.392  21.398  0.00  0.00    -0.274 OA
ATOM      9  N   UNL     1       3.301   0.750  22.239  0.00  0.00    -0.328 N 
ATOM     25  C   UNL     1       2.142   0.014  22.357  0.00  0.00    +0.228 C 
ATOM     31  H   UNL     1       3.662   1.012  21.327  0.00  0.00    +0.145 HD
ATOM     32  H   UNL     1       3.831   1.061  23.047  0.00  0.00    +0.145 HD
ENDBRANCH  24  25
ENDBRANCH   8  24
ENDBRANCH  21  23
BRANCH  17   1
ATOM      1  O   UNL     1      -4.318  -1.016  23.135  0.00  0.00    -0.387 OA
ATOM     28  H   UNL     1      -3.498  -0.496  23.187  0.00  0.00    +0.210 HD
ENDBRANCH  17   1
BRANCH  18   2
ATOM      2  O   UNL     1      -3.699  -4.097  25.007  0.00  0.00    -0.389 OA
ATOM     29  H   UNL     1      -4.383  -3.762  25.611  0.00  0.00    +0.210 HD
ENDBRANCH  18   2
TORSDOF 7
ENDMDL
