MODEL 1
REMARK VINA RESULT:       0.9      0.000      0.000
REMARK  Name = 11885911
REMARK  5 active torsions:
REMARK  status: ('A' for Active; 'I' for Inactive)
REMARK    1  A    between atoms: S_1  and  C_26
REMARK    2  A    between atoms: S_1  and  C_28
REMARK    3  A    between atoms: N_7  and  C_19
REMARK    4  A    between atoms: C_18  and  C_21
REMARK    5  A    between atoms: C_23  and  C_26
REMARK                            x       y       z     vdW  Elec       q    Type
REMARK                         _______ _______ _______ _____ _____    ______ ____
ROOT
ATOM      2  O   UNL     1       0.191   2.663  25.848  0.00  0.00    -0.266 OA
ATOM      3  O   UNL     1      -3.641  -0.583  27.093  0.00  0.00    -0.268 OA
ATOM      5  N   UNL     1      -4.398   0.770  25.341  0.00  0.00    -0.295 N 
ATOM      6  N   UNL     1      -1.826   2.504  24.679  0.00  0.00    -0.310 N 
ATOM      9  C   UNL     1      -4.071   3.212  25.689  0.00  0.00    +0.027 C 
ATOM     10  C   UNL     1      -3.993   2.281  23.412  0.00  0.00    +0.054 C 
ATOM     11  C   UNL     1      -4.481   3.466  24.243  0.00  0.00    +0.018 C 
ATOM     12  C   UNL     1      -4.705   1.908  26.207  0.00  0.00    +0.113 C 
ATOM     13  C   UNL     1      -2.540   3.182  25.771  0.00  0.00    +0.130 C 
ATOM     14  C   UNL     1      -4.668   0.987  23.910  0.00  0.00    +0.117 C 
ATOM     15  C   UNL     1      -2.485   2.137  23.501  0.00  0.00    +0.027 A 
ATOM     16  C   UNL     1      -1.791   1.625  22.470  0.00  0.00    +0.024 A 
ATOM     17  C   UNL     1      -0.435   2.339  24.838  0.00  0.00    +0.273 A 
ATOM     18  C   UNL     1      -3.868  -0.397  25.899  0.00  0.00    +0.265 C 
ATOM     19  C   UNL     1       0.296   1.739  23.677  0.00  0.00    +0.099 A 
ATOM     20  C   UNL     1      -0.373   1.422  22.564  0.00  0.00    +0.030 A 
ENDROOT
BRANCH  18  21
ATOM      8  N   UNL     1      -2.226  -1.846  24.964  0.00  0.00    -0.250 NA
ATOM     21  C   UNL     1      -3.529  -1.499  24.993  0.00  0.00    +0.126 A 
ATOM     22  C   UNL     1      -4.519  -2.107  24.242  0.00  0.00    +0.033 A 
ATOM     24  C   UNL     1      -4.143  -3.146  23.399  0.00  0.00    +0.004 A 
ATOM     25  C   UNL     1      -1.898  -2.860  24.133  0.00  0.00    +0.111 A 
ATOM     27  C   UNL     1      -2.809  -3.536  23.337  0.00  0.00    +0.020 A 
ENDBRANCH  18  21
BRANCH  19   7
ATOM      4  O   UNL     1       1.898  -0.056  22.126  0.00  0.00    -0.275 OA
ATOM      7  N   UNL     1       1.641   1.546  23.798  0.00  0.00    -0.281 N 
ATOM     23  C   UNL     1       2.364   0.663  23.009  0.00  0.00    +0.227 C 
ATOM     29  H   UNL     1       2.079   1.897  24.646  0.00  0.00    +0.155 HD
BRANCH  23  26
ATOM     26  C   UNL     1       3.835   0.642  23.352  0.00  0.00    +0.164 C 
BRANCH  26   1
ATOM      1  S   UNL     1       4.340  -1.066  23.663  0.00  0.00    -0.155 S 
ATOM     28  C   UNL     1       5.991  -0.744  24.327  0.00  0.00    +0.085 C 
ENDBRANCH  26   1
ENDBRANCH  23  26
ENDBRANCH  19   7
TORSDOF 4
ENDMDL
MODEL 2
REMARK VINA RESULT:       1.1      2.754      3.374
REMARK  Name = 11885911
REMARK  5 active torsions:
REMARK  status: ('A' for Active; 'I' for Inactive)
REMARK    1  A    between atoms: S_1  and  C_26
REMARK    2  A    between atoms: S_1  and  C_28
REMARK    3  A    between atoms: N_7  and  C_19
REMARK    4  A    between atoms: C_18  and  C_21
REMARK    5  A    between atoms: C_23  and  C_26
REMARK                            x       y       z     vdW  Elec       q    Type
REMARK                         _______ _______ _______ _____ _____    ______ ____
ROOT
ATOM      2  O   UNL     1      -1.562   3.953  27.033  0.00  0.00    -0.266 OA
ATOM      3  O   UNL     1      -4.770  -0.052  26.377  0.00  0.00    -0.268 OA
ATOM      5  N   UNL     1      -4.383   0.899  24.274  0.00  0.00    -0.295 N 
ATOM      6  N   UNL     1      -2.280   3.175  24.949  0.00  0.00    -0.310 N 
ATOM      9  C   UNL     1      -4.712   3.363  24.164  0.00  0.00    +0.027 C 
ATOM     10  C   UNL     1      -3.037   2.287  22.716  0.00  0.00    +0.054 C 
ATOM     11  C   UNL     1      -4.109   3.373  22.764  0.00  0.00    +0.018 C 
ATOM     12  C   UNL     1      -5.338   1.990  24.471  0.00  0.00    +0.113 C 
ATOM     13  C   UNL     1      -3.619   3.738  25.174  0.00  0.00    +0.130 C 
ATOM     14  C   UNL     1      -3.682   0.911  22.980  0.00  0.00    +0.117 C 
ATOM     15  C   UNL     1      -1.952   2.547  23.744  0.00  0.00    +0.027 A 
ATOM     16  C   UNL     1      -0.690   2.144  23.513  0.00  0.00    +0.024 A 
ATOM     17  C   UNL     1      -1.324   3.391  25.963  0.00  0.00    +0.273 A 
ATOM     18  C   UNL     1      -4.188  -0.037  25.294  0.00  0.00    +0.265 C 
ATOM     19  C   UNL     1       0.062   2.901  25.678  0.00  0.00    +0.099 A 
ATOM     20  C   UNL     1       0.334   2.324  24.503  0.00  0.00    +0.030 A 
ENDROOT
BRANCH  18  21
ATOM      8  N   UNL     1      -1.921  -0.760  25.400  0.00  0.00    -0.250 NA
ATOM     21  C   UNL     1      -3.190  -1.089  25.079  0.00  0.00    +0.126 A 
ATOM     22  C   UNL     1      -3.577  -2.318  24.578  0.00  0.00    +0.033 A 
ATOM     24  C   UNL     1      -2.590  -3.280  24.391  0.00  0.00    +0.004 A 
ATOM     25  C   UNL     1      -0.990  -1.720  25.206  0.00  0.00    +0.111 A 
ATOM     27  C   UNL     1      -1.269  -2.983  24.710  0.00  0.00    +0.020 A 
ENDBRANCH  18  21
BRANCH  19   7
ATOM      4  O   UNL     1       0.206   1.529  28.186  0.00  0.00    -0.275 OA
ATOM      7  N   UNL     1       1.012   3.074  26.641  0.00  0.00    -0.281 N 
ATOM     23  C   UNL     1       1.031   2.371  27.837  0.00  0.00    +0.227 C 
ATOM     29  H   UNL     1       1.592   3.907  26.568  0.00  0.00    +0.155 HD
BRANCH  23  26
ATOM     26  C   UNL     1       2.192   2.757  28.723  0.00  0.00    +0.164 C 
BRANCH  26   1
ATOM      1  S   UNL     1       1.956   2.014  30.356  0.00  0.00    -0.155 S 
ATOM     28  C   UNL     1       0.510   2.965  30.879  0.00  0.00    +0.085 C 
ENDBRANCH  26   1
ENDBRANCH  23  26
ENDBRANCH  19   7
TORSDOF 4
ENDMDL
MODEL 3
REMARK VINA RESULT:       2.5      1.966      4.453
REMARK  Name = 11885911
REMARK  5 active torsions:
REMARK  status: ('A' for Active; 'I' for Inactive)
REMARK    1  A    between atoms: S_1  and  C_26
REMARK    2  A    between atoms: S_1  and  C_28
REMARK    3  A    between atoms: N_7  and  C_19
REMARK    4  A    between atoms: C_18  and  C_21
REMARK    5  A    between atoms: C_23  and  C_26
REMARK                            x       y       z     vdW  Elec       q    Type
REMARK                         _______ _______ _______ _____ _____    ______ ____
ROOT
ATOM      2  O   UNL     1      -0.076  -0.369  22.236  0.00  0.00    -0.266 OA
ATOM      3  O   UNL     1      -4.652   1.966  22.847  0.00  0.00    -0.268 OA
ATOM      5  N   UNL     1      -4.343   0.525  24.664  0.00  0.00    -0.295 N 
ATOM      6  N   UNL     1      -1.432  -0.612  24.125  0.00  0.00    -0.310 N 
ATOM      9  C   UNL     1      -3.700  -1.801  24.056  0.00  0.00    +0.027 C 
ATOM     10  C   UNL     1      -2.894  -0.821  26.166  0.00  0.00    +0.054 C 
ATOM     11  C   UNL     1      -3.427  -2.101  25.526  0.00  0.00    +0.018 C 
ATOM     12  C   UNL     1      -4.739  -0.672  23.922  0.00  0.00    +0.113 C 
ATOM     13  C   UNL     1      -2.374  -1.450  23.369  0.00  0.00    +0.130 C 
ATOM     14  C   UNL     1      -3.959   0.289  26.066  0.00  0.00    +0.117 C 
ATOM     15  C   UNL     1      -1.615  -0.364  25.488  0.00  0.00    +0.027 A 
ATOM     16  C   UNL     1      -0.682   0.306  26.186  0.00  0.00    +0.024 A 
ATOM     17  C   UNL     1      -0.290  -0.161  23.432  0.00  0.00    +0.273 A 
ATOM     18  C   UNL     1      -4.333   1.763  24.016  0.00  0.00    +0.265 C 
ATOM     19  C   UNL     1       0.712   0.606  24.238  0.00  0.00    +0.099 A 
ATOM     20  C   UNL     1       0.503   0.801  25.544  0.00  0.00    +0.030 A 
ENDROOT
BRANCH  18  21
ATOM      8  N   UNL     1      -4.852   3.584  25.462  0.00  0.00    -0.250 NA
ATOM     21  C   UNL     1      -3.887   2.934  24.780  0.00  0.00    +0.126 A 
ATOM     22  C   UNL     1      -2.554   3.302  24.766  0.00  0.00    +0.033 A 
ATOM     24  C   UNL     1      -2.185   4.420  25.505  0.00  0.00    +0.004 A 
ATOM     25  C   UNL     1      -4.456   4.666  26.169  0.00  0.00    +0.111 A 
ATOM     27  C   UNL     1      -3.148   5.120  26.223  0.00  0.00    +0.020 A 
ENDBRANCH  18  21
BRANCH  19   7
ATOM      4  O   UNL     1       2.893  -0.962  23.250  0.00  0.00    -0.275 OA
ATOM      7  N   UNL     1       1.822   1.076  23.601  0.00  0.00    -0.281 N 
ATOM     23  C   UNL     1       2.845   0.262  23.138  0.00  0.00    +0.227 C 
ATOM     29  H   UNL     1       2.002   2.075  23.672  0.00  0.00    +0.155 HD
BRANCH  23  26
ATOM     26  C   UNL     1       3.955   1.039  22.471  0.00  0.00    +0.164 C 
BRANCH  26   1
ATOM      1  S   UNL     1       5.520   0.172  22.736  0.00  0.00    -0.155 S 
ATOM     28  C   UNL     1       5.509   0.140  24.544  0.00  0.00    +0.085 C 
ENDBRANCH  26   1
ENDBRANCH  23  26
ENDBRANCH  19   7
TORSDOF 4
ENDMDL
