MODEL 1
REMARK VINA RESULT:      -3.2      0.000      0.000
REMARK  Name = 45783718
REMARK  7 active torsions:
REMARK  status: ('A' for Active; 'I' for Inactive)
REMARK    1  A    between atoms: O_2  and  C_23
REMARK    2  A    between atoms: O_2  and  C_25
REMARK    3  A    between atoms: O_3  and  C_26
REMARK    4  A    between atoms: O_3  and  C_27
REMARK    5  A    between atoms: C_10  and  C_14
REMARK    6  A    between atoms: C_16  and  C_17
REMARK    7  A    between atoms: C_25  and  C_26
REMARK                            x       y       z     vdW  Elec       q    Type
REMARK                         _______ _______ _______ _____ _____    ______ ____
ROOT
ATOM      1  O   UNL     1      14.300  -6.551  30.563  0.00  0.00    -0.336 OA
ATOM      5  N   UNL     1      15.453  -8.335  29.854  0.00  0.00    -0.190 NA
ATOM      8  N   UNL     1      14.607  -6.307  29.219  0.00  0.00    -0.056 NA
ATOM     14  C   UNL     1      14.834  -7.765  30.857  0.00  0.00    +0.248 A 
ATOM     16  C   UNL     1      15.287  -7.403  28.871  0.00  0.00    +0.202 A 
ENDROOT
BRANCH  14  10
ATOM      4  N   UNL     1      13.699  -9.398  32.380  0.00  0.00    -0.288 N 
ATOM      6  N   UNL     1      11.822  -8.086  32.000  0.00  0.00    -0.223 NA
ATOM      7  N   UNL     1      11.621 -10.401  32.636  0.00  0.00    -0.223 NA
ATOM     10  C   UNL     1      14.635  -8.267  32.277  0.00  0.00    +0.165 C 
ATOM     11  C   UNL     1      15.939  -8.828  32.873  0.00  0.00    +0.034 C 
ATOM     12  C   UNL     1      15.872 -10.316  32.568  0.00  0.00    +0.021 C 
ATOM     13  C   UNL     1      14.391 -10.642  32.729  0.00  0.00    +0.109 C 
ATOM     15  C   UNL     1      12.322  -9.290  32.337  0.00  0.00    +0.218 A 
ATOM     18  C   UNL     1      10.280 -10.261  32.584  0.00  0.00    +0.116 A 
ATOM     19  C   UNL     1      10.476  -8.016  31.967  0.00  0.00    +0.116 A 
ATOM     20  C   UNL     1       9.646  -9.082  32.253  0.00  0.00    +0.039 A 
ENDBRANCH  14  10
BRANCH  16  17
ATOM      9  N   UNL     1      16.842  -7.977  24.980  0.00  0.00    -0.221 NA
ATOM     17  C   UNL     1      15.815  -7.598  27.551  0.00  0.00    +0.029 A 
ATOM     21  C   UNL     1      16.307  -6.516  26.830  0.00  0.00    +0.079 A 
ATOM     22  C   UNL     1      15.835  -8.869  26.988  0.00  0.00    +0.031 A 
ATOM     23  C   UNL     1      16.805  -6.757  25.559  0.00  0.00    +0.215 A 
ATOM     24  C   UNL     1      16.354  -9.005  25.712  0.00  0.00    +0.115 A 
BRANCH  23   2
ATOM      2  O   UNL     1      17.297  -5.707  24.828  0.00  0.00    -0.474 OA
BRANCH   2  25
ATOM     25  C   UNL     1      17.056  -4.403  25.342  0.00  0.00    +0.258 C 
BRANCH  25  26
ATOM     26  C   UNL     1      16.811  -3.453  24.184  0.00  0.00    +0.200 C 
BRANCH  26   3
ATOM      3  O   UNL     1      16.377  -2.199  24.697  0.00  0.00    -0.380 OA
ATOM     27  C   UNL     1      17.130  -1.125  24.151  0.00  0.00    +0.194 C 
ENDBRANCH  26   3
ENDBRANCH  25  26
ENDBRANCH   2  25
ENDBRANCH  23   2
ENDBRANCH  16  17
TORSDOF 6
ENDMDL
MODEL 2
REMARK VINA RESULT:      -2.6      1.803      2.306
REMARK  Name = 45783718
REMARK  7 active torsions:
REMARK  status: ('A' for Active; 'I' for Inactive)
REMARK    1  A    between atoms: O_2  and  C_23
REMARK    2  A    between atoms: O_2  and  C_25
REMARK    3  A    between atoms: O_3  and  C_26
REMARK    4  A    between atoms: O_3  and  C_27
REMARK    5  A    between atoms: C_10  and  C_14
REMARK    6  A    between atoms: C_16  and  C_17
REMARK    7  A    between atoms: C_25  and  C_26
REMARK                            x       y       z     vdW  Elec       q    Type
REMARK                         _______ _______ _______ _____ _____    ______ ____
ROOT
ATOM      1  O   UNL     1      15.374  -6.169  29.509  0.00  0.00    -0.336 OA
ATOM      5  N   UNL     1      16.175  -7.769  28.162  0.00  0.00    -0.190 NA
ATOM      8  N   UNL     1      15.653  -5.545  28.287  0.00  0.00    -0.056 NA
ATOM     14  C   UNL     1      15.710  -7.476  29.350  0.00  0.00    +0.248 A 
ATOM     16  C   UNL     1      16.121  -6.553  27.545  0.00  0.00    +0.202 A 
ENDROOT
BRANCH  14  10
ATOM      4  N   UNL     1      14.081  -8.655  30.844  0.00  0.00    -0.288 N 
ATOM      6  N   UNL     1      13.678  -6.531  31.687  0.00  0.00    -0.223 NA
ATOM      7  N   UNL     1      12.018  -8.270  31.835  0.00  0.00    -0.223 NA
ATOM     10  C   UNL     1      15.497  -8.381  30.551  0.00  0.00    +0.165 C 
ATOM     11  C   UNL     1      16.093  -9.783  30.324  0.00  0.00    +0.034 C 
ATOM     12  C   UNL     1      14.926 -10.592  29.779  0.00  0.00    +0.021 C 
ATOM     13  C   UNL     1      13.728 -10.047  30.551  0.00  0.00    +0.109 C 
ATOM     15  C   UNL     1      13.222  -7.781  31.483  0.00  0.00    +0.218 A 
ATOM     18  C   UNL     1      11.205  -7.390  32.456  0.00  0.00    +0.116 A 
ATOM     19  C   UNL     1      12.815  -5.704  32.312  0.00  0.00    +0.116 A 
ATOM     20  C   UNL     1      11.554  -6.082  32.724  0.00  0.00    +0.039 A 
ENDBRANCH  14  10
BRANCH  16  17
ATOM      9  N   UNL     1      17.371  -6.038  23.537  0.00  0.00    -0.221 NA
ATOM     17  C   UNL     1      16.545  -6.378  26.186  0.00  0.00    +0.029 A 
ATOM     21  C   UNL     1      16.769  -5.101  25.683  0.00  0.00    +0.079 A 
ATOM     22  C   UNL     1      16.733  -7.485  25.366  0.00  0.00    +0.031 A 
ATOM     23  C   UNL     1      17.178  -4.986  24.364  0.00  0.00    +0.215 A 
ATOM     24  C   UNL     1      17.143  -7.264  24.061  0.00  0.00    +0.115 A 
BRANCH  23   2
ATOM      2  O   UNL     1      17.405  -3.738  23.845  0.00  0.00    -0.474 OA
BRANCH   2  25
ATOM     25  C   UNL     1      16.422  -2.746  24.112  0.00  0.00    +0.258 C 
BRANCH  25  26
ATOM     26  C   UNL     1      15.610  -2.503  22.854  0.00  0.00    +0.200 C 
BRANCH  26   3
ATOM      3  O   UNL     1      15.992  -1.254  22.289  0.00  0.00    -0.380 OA
ATOM     27  C   UNL     1      17.127  -0.710  22.947  0.00  0.00    +0.194 C 
ENDBRANCH  26   3
ENDBRANCH  25  26
ENDBRANCH   2  25
ENDBRANCH  23   2
ENDBRANCH  16  17
TORSDOF 6
ENDMDL
MODEL 3
REMARK VINA RESULT:      -1.1      3.208      4.335
REMARK  Name = 45783718
REMARK  7 active torsions:
REMARK  status: ('A' for Active; 'I' for Inactive)
REMARK    1  A    between atoms: O_2  and  C_23
REMARK    2  A    between atoms: O_2  and  C_25
REMARK    3  A    between atoms: O_3  and  C_26
REMARK    4  A    between atoms: O_3  and  C_27
REMARK    5  A    between atoms: C_10  and  C_14
REMARK    6  A    between atoms: C_16  and  C_17
REMARK    7  A    between atoms: C_25  and  C_26
REMARK                            x       y       z     vdW  Elec       q    Type
REMARK                         _______ _______ _______ _____ _____    ______ ____
ROOT
ATOM      1  O   UNL     1      17.248  -4.822  28.568  0.00  0.00    -0.336 OA
ATOM      5  N   UNL     1      17.301  -6.768  27.460  0.00  0.00    -0.190 NA
ATOM      8  N   UNL     1      17.258  -4.494  27.206  0.00  0.00    -0.056 NA
ATOM     14  C   UNL     1      17.275  -6.180  28.628  0.00  0.00    +0.248 A 
ATOM     16  C   UNL     1      17.289  -5.693  26.618  0.00  0.00    +0.202 A 
ENDROOT
BRANCH  14  10
ATOM      4  N   UNL     1      16.056  -6.498  30.793  0.00  0.00    -0.288 N 
ATOM      6  N   UNL     1      16.651  -4.289  31.182  0.00  0.00    -0.223 NA
ATOM      7  N   UNL     1      14.732  -5.274  32.254  0.00  0.00    -0.223 NA
ATOM     10  C   UNL     1      17.270  -6.796  30.017  0.00  0.00    +0.165 C 
ATOM     11  C   UNL     1      17.291  -8.334  29.961  0.00  0.00    +0.034 C 
ATOM     12  C   UNL     1      15.822  -8.722  30.018  0.00  0.00    +0.021 C 
ATOM     13  C   UNL     1      15.222  -7.691  30.969  0.00  0.00    +0.109 C 
ATOM     15  C   UNL     1      15.802  -5.302  31.437  0.00  0.00    +0.218 A 
ATOM     18  C   UNL     1      14.513  -4.091  32.866  0.00  0.00    +0.116 A 
ATOM     19  C   UNL     1      16.374  -3.137  31.826  0.00  0.00    +0.116 A 
ATOM     20  C   UNL     1      15.309  -2.978  32.688  0.00  0.00    +0.039 A 
ENDBRANCH  14  10
BRANCH  16  17
ATOM      9  N   UNL     1      17.352  -6.164  22.415  0.00  0.00    -0.221 NA
ATOM     17  C   UNL     1      17.311  -5.853  25.192  0.00  0.00    +0.029 A 
ATOM     21  C   UNL     1      17.348  -4.736  24.365  0.00  0.00    +0.079 A 
ATOM     22  C   UNL     1      17.293  -7.125  24.632  0.00  0.00    +0.031 A 
ATOM     23  C   UNL     1      17.368  -4.944  22.995  0.00  0.00    +0.215 A 
ATOM     24  C   UNL     1      17.315  -7.227  23.251  0.00  0.00    +0.115 A 
BRANCH  23   2
ATOM      2  O   UNL     1      17.405  -3.859  22.159  0.00  0.00    -0.474 OA
BRANCH   2  25
ATOM     25  C   UNL     1      16.602  -2.743  22.523  0.00  0.00    +0.258 C 
BRANCH  25  26
ATOM     26  C   UNL     1      17.334  -1.928  23.573  0.00  0.00    +0.200 C 
BRANCH  26   3
ATOM      3  O   UNL     1      16.383  -1.350  24.459  0.00  0.00    -0.380 OA
ATOM     27  C   UNL     1      16.958  -1.065  25.726  0.00  0.00    +0.194 C 
ENDBRANCH  26   3
ENDBRANCH  25  26
ENDBRANCH   2  25
ENDBRANCH  23   2
ENDBRANCH  16  17
TORSDOF 6
ENDMDL
MODEL 4
REMARK VINA RESULT:      -0.9     16.653     18.524
REMARK  Name = 45783718
REMARK  7 active torsions:
REMARK  status: ('A' for Active; 'I' for Inactive)
REMARK    1  A    between atoms: O_2  and  C_23
REMARK    2  A    between atoms: O_2  and  C_25
REMARK    3  A    between atoms: O_3  and  C_26
REMARK    4  A    between atoms: O_3  and  C_27
REMARK    5  A    between atoms: C_10  and  C_14
REMARK    6  A    between atoms: C_16  and  C_17
REMARK    7  A    between atoms: C_25  and  C_26
REMARK                            x       y       z     vdW  Elec       q    Type
REMARK                         _______ _______ _______ _____ _____    ______ ____
ROOT
ATOM      1  O   UNL     1      -1.158   1.235  25.720  0.00  0.00    -0.336 OA
ATOM      5  N   UNL     1      -0.951  -0.381  24.184  0.00  0.00    -0.190 NA
ATOM      8  N   UNL     1       0.031   1.504  25.030  0.00  0.00    -0.056 NA
ATOM     14  C   UNL     1      -1.673   0.110  25.159  0.00  0.00    +0.248 A 
ATOM     16  C   UNL     1       0.084   0.508  24.142  0.00  0.00    +0.202 A 
ENDROOT
BRANCH  14  10
ATOM      4  N   UNL     1      -4.174   0.099  25.032  0.00  0.00    -0.288 N 
ATOM      6  N   UNL     1      -3.992   2.244  25.900  0.00  0.00    -0.223 NA
ATOM      7  N   UNL     1      -5.912   1.578  24.608  0.00  0.00    -0.223 NA
ATOM     10  C   UNL     1      -2.982  -0.398  25.738  0.00  0.00    +0.165 C 
ATOM     11  C   UNL     1      -3.107  -1.928  25.617  0.00  0.00    +0.034 C 
ATOM     12  C   UNL     1      -3.855  -2.131  24.309  0.00  0.00    +0.021 C 
ATOM     13  C   UNL     1      -4.842  -0.969  24.282  0.00  0.00    +0.109 C 
ATOM     15  C   UNL     1      -4.716   1.361  25.186  0.00  0.00    +0.218 A 
ATOM     18  C   UNL     1      -6.412   2.820  24.777  0.00  0.00    +0.116 A 
ATOM     19  C   UNL     1      -4.549   3.465  26.031  0.00  0.00    +0.116 A 
ATOM     20  C   UNL     1      -5.768   3.813  25.487  0.00  0.00    +0.039 A 
ENDBRANCH  14  10
BRANCH  16  17
ATOM      9  N   UNL     1       3.246   0.106  21.362  0.00  0.00    -0.221 NA
ATOM     17  C   UNL     1       1.156   0.371  23.199  0.00  0.00    +0.029 A 
ATOM     21  C   UNL     1       2.373   1.003  23.430  0.00  0.00    +0.079 A 
ATOM     22  C   UNL     1       0.983  -0.392  22.050  0.00  0.00    +0.031 A 
ATOM     23  C   UNL     1       3.378   0.840  22.489  0.00  0.00    +0.215 A 
ATOM     24  C   UNL     1       2.048  -0.493  21.171  0.00  0.00    +0.115 A 
BRANCH  23   2
ATOM      2  O   UNL     1       4.587   1.451  22.694  0.00  0.00    -0.474 OA
BRANCH   2  25
ATOM     25  C   UNL     1       5.366   0.976  23.785  0.00  0.00    +0.258 C 
BRANCH  25  26
ATOM     26  C   UNL     1       5.917  -0.394  23.440  0.00  0.00    +0.200 C 
BRANCH  26   3
ATOM      3  O   UNL     1       5.452  -1.336  24.399  0.00  0.00    -0.380 OA
ATOM     27  C   UNL     1       4.285  -2.008  23.947  0.00  0.00    +0.194 C 
ENDBRANCH  26   3
ENDBRANCH  25  26
ENDBRANCH   2  25
ENDBRANCH  23   2
ENDBRANCH  16  17
TORSDOF 6
ENDMDL
MODEL 5
REMARK VINA RESULT:       0.1     16.295     18.237
REMARK  Name = 45783718
REMARK  7 active torsions:
REMARK  status: ('A' for Active; 'I' for Inactive)
REMARK    1  A    between atoms: O_2  and  C_23
REMARK    2  A    between atoms: O_2  and  C_25
REMARK    3  A    between atoms: O_3  and  C_26
REMARK    4  A    between atoms: O_3  and  C_27
REMARK    5  A    between atoms: C_10  and  C_14
REMARK    6  A    between atoms: C_16  and  C_17
REMARK    7  A    between atoms: C_25  and  C_26
REMARK                            x       y       z     vdW  Elec       q    Type
REMARK                         _______ _______ _______ _____ _____    ______ ____
ROOT
ATOM      1  O   UNL     1      -0.870  -1.669  25.417  0.00  0.00    -0.336 OA
ATOM      5  N   UNL     1      -0.826   0.139  24.096  0.00  0.00    -0.190 NA
ATOM      8  N   UNL     1       0.347  -1.721  24.726  0.00  0.00    -0.056 NA
ATOM     14  C   UNL     1      -1.499  -0.543  24.987  0.00  0.00    +0.248 A 
ATOM     16  C   UNL     1       0.299  -0.622  23.968  0.00  0.00    +0.202 A 
ENDROOT
BRANCH  14  10
ATOM      4  N   UNL     1      -3.615   0.793  24.889  0.00  0.00    -0.288 N 
ATOM      6  N   UNL     1      -2.285   2.518  25.691  0.00  0.00    -0.223 NA
ATOM      7  N   UNL     1      -4.295   2.967  24.441  0.00  0.00    -0.223 NA
ATOM     10  C   UNL     1      -2.861  -0.254  25.596  0.00  0.00    +0.165 C 
ATOM     11  C   UNL     1      -3.792  -1.478  25.522  0.00  0.00    +0.034 C 
ATOM     12  C   UNL     1      -4.565  -1.271  24.229  0.00  0.00    +0.021 C 
ATOM     13  C   UNL     1      -4.772   0.239  24.179  0.00  0.00    +0.109 C 
ATOM     15  C   UNL     1      -3.388   2.151  25.012  0.00  0.00    +0.218 A 
ATOM     18  C   UNL     1      -4.043   4.286  24.579  0.00  0.00    +0.116 A 
ATOM     19  C   UNL     1      -2.094   3.849  25.792  0.00  0.00    +0.116 A 
ATOM     20  C   UNL     1      -2.948   4.789  25.251  0.00  0.00    +0.039 A 
ENDBRANCH  14  10
BRANCH  16  17
ATOM      9  N   UNL     1       3.420   0.456  21.325  0.00  0.00    -0.221 NA
ATOM     17  C   UNL     1       1.358  -0.257  23.072  0.00  0.00    +0.029 A 
ATOM     21  C   UNL     1       2.444   0.476  23.536  0.00  0.00    +0.079 A 
ATOM     22  C   UNL     1       1.301  -0.633  21.734  0.00  0.00    +0.031 A 
ATOM     23  C   UNL     1       3.440   0.804  22.630  0.00  0.00    +0.215 A 
ATOM     24  C   UNL     1       2.348  -0.256  20.909  0.00  0.00    +0.115 A 
BRANCH  23   2
ATOM      2  O   UNL     1       4.522   1.525  23.064  0.00  0.00    -0.474 OA
BRANCH   2  25
ATOM     25  C   UNL     1       5.347   0.910  24.047  0.00  0.00    +0.258 C 
BRANCH  25  26
ATOM     26  C   UNL     1       5.967  -0.343  23.459  0.00  0.00    +0.200 C 
BRANCH  26   3
ATOM      3  O   UNL     1       5.646  -1.453  24.289  0.00  0.00    -0.380 OA
ATOM     27  C   UNL     1       4.441  -2.082  23.874  0.00  0.00    +0.194 C 
ENDBRANCH  26   3
ENDBRANCH  25  26
ENDBRANCH   2  25
ENDBRANCH  23   2
ENDBRANCH  16  17
TORSDOF 6
ENDMDL
