MODEL 1
REMARK VINA RESULT:       5.3      0.000      0.000
REMARK  Name = 11912239
REMARK  8 active torsions:
REMARK  status: ('A' for Active; 'I' for Inactive)
REMARK    1  A    between atoms: O_4  and  C_24
REMARK    2  A    between atoms: N_6  and  C_13
REMARK    3  A    between atoms: N_7  and  C_16
REMARK    4  A    between atoms: C_10  and  C_17
REMARK    5  A    between atoms: C_10  and  C_21
REMARK    6  A    between atoms: C_17  and  C_23
REMARK    7  A    between atoms: C_21  and  C_24
REMARK    8  A    between atoms: C_26  and  C_29
REMARK                            x       y       z     vdW  Elec       q    Type
REMARK                         _______ _______ _______ _____ _____    ______ ____
ROOT
ATOM      1  O   UNL     1      -1.183  -1.133  26.197  0.00  0.00    -0.370 OA
ATOM      2  O   UNL     1      -2.891  -2.794  24.182  0.00  0.00    -0.370 OA
ATOM     11  C   UNL     1      -2.091  -1.606  24.050  0.00  0.00    +0.171 C 
ATOM     12  C   UNL     1      -2.272  -0.798  25.321  0.00  0.00    +0.171 C 
ATOM     13  C   UNL     1      -0.622  -1.961  24.046  0.00  0.00    +0.130 C 
ATOM     16  C   UNL     1      -3.578  -1.296  25.893  0.00  0.00    +0.130 C 
ATOM     20  C   UNL     1      -0.304  -2.048  25.528  0.00  0.00    +0.185 C 
ATOM     22  C   UNL     1      -3.624  -2.735  25.414  0.00  0.00    +0.185 C 
ENDROOT
BRANCH  16   7
ATOM      7  N   UNL     1      -4.682  -0.546  25.333  0.00  0.00    -0.306 N 
ATOM      8  N   UNL     1      -3.447   1.419  25.286  0.00  0.00    -0.214 NA
ATOM      9  N   UNL     1      -5.727   1.357  24.511  0.00  0.00    -0.223 NA
ATOM     25  C   UNL     1      -4.616   0.802  25.030  0.00  0.00    +0.216 A 
ATOM     26  C   UNL     1      -3.418   2.733  24.979  0.00  0.00    +0.076 A 
ATOM     27  C   UNL     1      -5.629   2.672  24.227  0.00  0.00    +0.116 A 
ATOM     28  C   UNL     1      -4.488   3.419  24.443  0.00  0.00    +0.048 A 
ATOM     36  H   UNL     1      -5.541  -1.029  25.093  0.00  0.00    +0.149 HD
BRANCH  26  29
ATOM     29  C   UNL     1      -2.165   3.398  25.251  0.00  0.00    +0.001 A 
ATOM     30  C   UNL     1      -1.293   2.877  26.206  0.00  0.00    +0.010 A 
ATOM     31  C   UNL     1      -1.828   4.561  24.558  0.00  0.00    +0.010 A 
ATOM     32  C   UNL     1      -0.082   3.519  26.469  0.00  0.00    +0.001 A 
ATOM     33  C   UNL     1      -0.618   5.202  24.821  0.00  0.00    +0.001 A 
ATOM     34  C   UNL     1       0.255   4.682  25.776  0.00  0.00    +0.000 A 
ENDBRANCH  26  29
ENDBRANCH  16   7
BRANCH  13   6
ATOM      3  O   UNL     1       0.632  -2.088  21.440  0.00  0.00    -0.276 OA
ATOM      6  N   UNL     1       0.161  -0.934  23.402  0.00  0.00    -0.308 N 
ATOM     23  C   UNL     1       0.726  -1.085  22.143  0.00  0.00    +0.214 C 
ATOM     35  H   UNL     1       0.270  -0.051  23.893  0.00  0.00    +0.149 HD
BRANCH  23  17
ATOM     17  C   UNL     1       1.490   0.156  21.720  0.00  0.00    +0.103 C 
BRANCH  17  10
ATOM     10  C   UNL     1       2.685   0.451  22.630  0.00  0.00    -0.011 C 
ATOM     14  C   UNL     1       3.080  -0.780  23.458  0.00  0.00    +0.008 C 
ATOM     15  C   UNL     1       3.964   0.703  21.820  0.00  0.00    +0.008 C 
ATOM     18  C   UNL     1       4.542  -0.552  23.835  0.00  0.00    +0.001 C 
ATOM     19  C   UNL     1       5.110   0.401  22.783  0.00  0.00    +0.001 C 
BRANCH  10  21
ATOM     21  C   UNL     1       2.350   1.648  23.534  0.00  0.00    +0.127 C 
BRANCH  21  24
ATOM      5  O   UNL     1      -0.037   2.044  23.232  0.00  0.00    -0.251 OA
ATOM     24  C   UNL     1       0.899   1.655  23.915  0.00  0.00    +0.305 C 
BRANCH  24   4
ATOM      4  O   UNL     1       0.760   1.150  25.168  0.00  0.00    -0.481 OA
ATOM     37  H   UNL     1       1.622   0.874  25.548  0.00  0.00    +0.295 HD
ENDBRANCH  24   4
ENDBRANCH  21  24
ENDBRANCH  10  21
ENDBRANCH  17  10
ENDBRANCH  23  17
ENDBRANCH  13   6
TORSDOF 8
ENDMDL
MODEL 2
REMARK VINA RESULT:       6.3      1.699      4.298
REMARK  Name = 11912239
REMARK  8 active torsions:
REMARK  status: ('A' for Active; 'I' for Inactive)
REMARK    1  A    between atoms: O_4  and  C_24
REMARK    2  A    between atoms: N_6  and  C_13
REMARK    3  A    between atoms: N_7  and  C_16
REMARK    4  A    between atoms: C_10  and  C_17
REMARK    5  A    between atoms: C_10  and  C_21
REMARK    6  A    between atoms: C_17  and  C_23
REMARK    7  A    between atoms: C_21  and  C_24
REMARK    8  A    between atoms: C_26  and  C_29
REMARK                            x       y       z     vdW  Elec       q    Type
REMARK                         _______ _______ _______ _____ _____    ______ ____
ROOT
ATOM      1  O   UNL     1      -1.022   4.179  24.122  0.00  0.00    -0.370 OA
ATOM      2  O   UNL     1      -2.395   3.684  26.880  0.00  0.00    -0.370 OA
ATOM     11  C   UNL     1      -1.922   2.807  25.843  0.00  0.00    +0.171 C 
ATOM     12  C   UNL     1      -2.214   3.480  24.516  0.00  0.00    +0.171 C 
ATOM     13  C   UNL     1      -0.415   2.711  25.884  0.00  0.00    +0.130 C 
ATOM     16  C   UNL     1      -3.317   4.461  24.833  0.00  0.00    +0.130 C 
ATOM     20  C   UNL     1       0.011   3.931  25.087  0.00  0.00    +0.185 C 
ATOM     22  C   UNL     1      -3.038   4.819  26.282  0.00  0.00    +0.185 C 
ENDROOT
BRANCH  16   7
ATOM      7  N   UNL     1      -4.606   3.813  24.717  0.00  0.00    -0.306 N 
ATOM      8  N   UNL     1      -3.664   1.699  24.905  0.00  0.00    -0.214 NA
ATOM      9  N   UNL     1      -6.041   1.990  24.635  0.00  0.00    -0.223 NA
ATOM     25  C   UNL     1      -4.778   2.441  24.754  0.00  0.00    +0.216 A 
ATOM     26  C   UNL     1      -3.869   0.366  24.937  0.00  0.00    +0.076 A 
ATOM     27  C   UNL     1      -6.173   0.648  24.676  0.00  0.00    +0.116 A 
ATOM     28  C   UNL     1      -5.112  -0.223  24.826  0.00  0.00    +0.048 A 
ATOM     36  H   UNL     1      -5.444   4.379  24.657  0.00  0.00    +0.149 HD
BRANCH  26  29
ATOM     29  C   UNL     1      -2.677  -0.433  25.100  0.00  0.00    +0.001 A 
ATOM     30  C   UNL     1      -1.986  -0.414  26.312  0.00  0.00    +0.010 A 
ATOM     31  C   UNL     1      -2.217  -1.224  24.047  0.00  0.00    +0.010 A 
ATOM     32  C   UNL     1      -0.834  -1.185  26.470  0.00  0.00    +0.001 A 
ATOM     33  C   UNL     1      -1.067  -1.996  24.206  0.00  0.00    +0.001 A 
ATOM     34  C   UNL     1      -0.376  -1.977  25.417  0.00  0.00    +0.000 A 
ENDBRANCH  26  29
ENDBRANCH  16   7
BRANCH  13   6
ATOM      3  O   UNL     1       1.523   2.459  23.748  0.00  0.00    -0.276 OA
ATOM      6  N   UNL     1       0.047   1.493  25.262  0.00  0.00    -0.308 N 
ATOM     23  C   UNL     1       0.985   1.469  24.238  0.00  0.00    +0.214 C 
ATOM     35  H   UNL     1      -0.318   0.616  25.621  0.00  0.00    +0.149 HD
BRANCH  23  17
ATOM     17  C   UNL     1       1.280   0.053  23.782  0.00  0.00    +0.103 C 
BRANCH  17  10
ATOM     10  C   UNL     1       2.646  -0.075  23.104  0.00  0.00    -0.011 C 
ATOM     14  C   UNL     1       3.531   1.148  23.383  0.00  0.00    +0.008 C 
ATOM     15  C   UNL     1       3.479  -1.208  23.720  0.00  0.00    +0.008 C 
ATOM     18  C   UNL     1       4.963   0.656  23.179  0.00  0.00    +0.001 C 
ATOM     19  C   UNL     1       4.929  -0.857  23.394  0.00  0.00    +0.001 C 
BRANCH  10  21
ATOM     21  C   UNL     1       2.445  -0.286  21.595  0.00  0.00    +0.127 C 
BRANCH  21  24
ATOM      5  O   UNL     1       0.042  -0.023  21.916  0.00  0.00    -0.251 OA
ATOM     24  C   UNL     1       0.990  -0.414  21.251  0.00  0.00    +0.305 C 
BRANCH  24   4
ATOM      4  O   UNL     1       0.864  -1.045  20.054  0.00  0.00    -0.481 OA
ATOM     37  H   UNL     1       1.721  -1.406  19.741  0.00  0.00    +0.295 HD
ENDBRANCH  24   4
ENDBRANCH  21  24
ENDBRANCH  10  21
ENDBRANCH  17  10
ENDBRANCH  23  17
ENDBRANCH  13   6
TORSDOF 8
ENDMDL
MODEL 3
REMARK VINA RESULT:       6.4      2.374      5.623
REMARK  Name = 11912239
REMARK  8 active torsions:
REMARK  status: ('A' for Active; 'I' for Inactive)
REMARK    1  A    between atoms: O_4  and  C_24
REMARK    2  A    between atoms: N_6  and  C_13
REMARK    3  A    between atoms: N_7  and  C_16
REMARK    4  A    between atoms: C_10  and  C_17
REMARK    5  A    between atoms: C_10  and  C_21
REMARK    6  A    between atoms: C_17  and  C_23
REMARK    7  A    between atoms: C_21  and  C_24
REMARK    8  A    between atoms: C_26  and  C_29
REMARK                            x       y       z     vdW  Elec       q    Type
REMARK                         _______ _______ _______ _____ _____    ______ ____
ROOT
ATOM      1  O   UNL     1      -0.481   0.632  26.171  0.00  0.00    -0.370 OA
ATOM      2  O   UNL     1       0.921  -0.349  23.562  0.00  0.00    -0.370 OA
ATOM     11  C   UNL     1      -0.314   0.343  23.816  0.00  0.00    +0.171 C 
ATOM     12  C   UNL     1      -0.893  -0.228  25.096  0.00  0.00    +0.171 C 
ATOM     13  C   UNL     1      -0.045   1.792  24.148  0.00  0.00    +0.130 C 
ATOM     16  C   UNL     1      -0.239  -1.582  25.228  0.00  0.00    +0.130 C 
ATOM     20  C   UNL     1       0.264   1.735  25.634  0.00  0.00    +0.185 C 
ATOM     22  C   UNL     1       1.104  -1.370  24.553  0.00  0.00    +0.185 C 
ENDROOT
BRANCH  16   7
ATOM      7  N   UNL     1      -1.008  -2.576  24.510  0.00  0.00    -0.306 N 
ATOM      8  N   UNL     1      -2.968  -1.351  24.724  0.00  0.00    -0.214 NA
ATOM      9  N   UNL     1      -2.937  -3.468  23.575  0.00  0.00    -0.223 NA
ATOM     25  C   UNL     1      -2.363  -2.460  24.259  0.00  0.00    +0.216 A 
ATOM     26  C   UNL     1      -4.289  -1.270  24.462  0.00  0.00    +0.076 A 
ATOM     27  C   UNL     1      -4.258  -3.323  23.348  0.00  0.00    +0.116 A 
ATOM     28  C   UNL     1      -4.994  -2.235  23.772  0.00  0.00    +0.048 A 
ATOM     36  H   UNL     1      -0.535  -3.382  24.116  0.00  0.00    +0.149 HD
BRANCH  26  29
ATOM     29  C   UNL     1      -4.941  -0.082  24.959  0.00  0.00    +0.001 A 
ATOM     30  C   UNL     1      -4.747   0.319  26.281  0.00  0.00    +0.010 A 
ATOM     31  C   UNL     1      -5.764   0.667  24.117  0.00  0.00    +0.010 A 
ATOM     32  C   UNL     1      -5.377   1.467  26.762  0.00  0.00    +0.001 A 
ATOM     33  C   UNL     1      -6.393   1.814  24.598  0.00  0.00    +0.001 A 
ATOM     34  C   UNL     1      -6.200   2.215  25.919  0.00  0.00    +0.000 A 
ENDBRANCH  26  29
ENDBRANCH  16   7
BRANCH  13   6
ATOM      3  O   UNL     1      -2.335   1.114  22.512  0.00  0.00    -0.276 OA
ATOM      6  N   UNL     1      -1.205   2.610  23.887  0.00  0.00    -0.308 N 
ATOM     23  C   UNL     1      -2.261   2.199  23.084  0.00  0.00    +0.214 C 
ATOM     35  H   UNL     1      -1.252   3.517  24.343  0.00  0.00    +0.149 HD
BRANCH  23  17
ATOM     17  C   UNL     1      -3.340   3.261  22.991  0.00  0.00    +0.103 C 
BRANCH  17  10
ATOM     10  C   UNL     1      -3.352   4.196  24.203  0.00  0.00    -0.011 C 
ATOM     14  C   UNL     1      -4.782   4.599  24.590  0.00  0.00    +0.008 C 
ATOM     15  C   UNL     1      -2.877   3.480  25.475  0.00  0.00    +0.008 C 
ATOM     18  C   UNL     1      -4.696   5.001  26.061  0.00  0.00    +0.001 C 
ATOM     19  C   UNL     1      -3.472   4.282  26.629  0.00  0.00    +0.001 C 
BRANCH  10  21
ATOM     21  C   UNL     1      -2.488   5.430  23.900  0.00  0.00    +0.127 C 
BRANCH  21  24
ATOM      5  O   UNL     1      -0.679   5.129  25.507  0.00  0.00    -0.251 OA
ATOM     24  C   UNL     1      -1.071   5.228  24.354  0.00  0.00    +0.305 C 
BRANCH  24   4
ATOM      4  O   UNL     1      -0.255   5.167  23.270  0.00  0.00    -0.481 OA
ATOM     37  H   UNL     1       0.585   4.702  23.471  0.00  0.00    +0.295 HD
ENDBRANCH  24   4
ENDBRANCH  21  24
ENDBRANCH  10  21
ENDBRANCH  17  10
ENDBRANCH  23  17
ENDBRANCH  13   6
TORSDOF 8
ENDMDL
MODEL 4
REMARK VINA RESULT:       6.6      2.097      4.440
REMARK  Name = 11912239
REMARK  8 active torsions:
REMARK  status: ('A' for Active; 'I' for Inactive)
REMARK    1  A    between atoms: O_4  and  C_24
REMARK    2  A    between atoms: N_6  and  C_13
REMARK    3  A    between atoms: N_7  and  C_16
REMARK    4  A    between atoms: C_10  and  C_17
REMARK    5  A    between atoms: C_10  and  C_21
REMARK    6  A    between atoms: C_17  and  C_23
REMARK    7  A    between atoms: C_21  and  C_24
REMARK    8  A    between atoms: C_26  and  C_29
REMARK                            x       y       z     vdW  Elec       q    Type
REMARK                         _______ _______ _______ _____ _____    ______ ____
ROOT
ATOM      1  O   UNL     1      -1.061   4.168  24.185  0.00  0.00    -0.370 OA
ATOM      2  O   UNL     1      -2.443   3.664  26.937  0.00  0.00    -0.370 OA
ATOM     11  C   UNL     1      -1.983   2.791  25.891  0.00  0.00    +0.171 C 
ATOM     12  C   UNL     1      -2.264   3.483  24.571  0.00  0.00    +0.171 C 
ATOM     13  C   UNL     1      -0.477   2.672  25.930  0.00  0.00    +0.130 C 
ATOM     16  C   UNL     1      -3.352   4.478  24.899  0.00  0.00    +0.130 C 
ATOM     20  C   UNL     1      -0.033   3.894  25.147  0.00  0.00    +0.185 C 
ATOM     22  C   UNL     1      -3.068   4.815  26.352  0.00  0.00    +0.185 C 
ENDROOT
BRANCH  16   7
ATOM      7  N   UNL     1      -4.650   3.851  24.776  0.00  0.00    -0.306 N 
ATOM      8  N   UNL     1      -3.738   1.720  24.907  0.00  0.00    -0.214 NA
ATOM      9  N   UNL     1      -6.112   2.050  24.659  0.00  0.00    -0.223 NA
ATOM     25  C   UNL     1      -4.842   2.481  24.781  0.00  0.00    +0.216 A 
ATOM     26  C   UNL     1      -3.962   0.389  24.908  0.00  0.00    +0.076 A 
ATOM     27  C   UNL     1      -6.263   0.710  24.669  0.00  0.00    +0.116 A 
ATOM     28  C   UNL     1      -5.214  -0.179  24.790  0.00  0.00    +0.048 A 
ATOM     36  H   UNL     1      -5.481   4.430  24.735  0.00  0.00    +0.149 HD
BRANCH  26  29
ATOM     29  C   UNL     1      -2.781  -0.430  25.044  0.00  0.00    +0.001 A 
ATOM     30  C   UNL     1      -2.112  -0.492  26.267  0.00  0.00    +0.010 A 
ATOM     31  C   UNL     1      -2.308  -1.161  23.953  0.00  0.00    +0.010 A 
ATOM     32  C   UNL     1      -0.971  -1.283  26.399  0.00  0.00    +0.001 A 
ATOM     33  C   UNL     1      -1.168  -1.952  24.086  0.00  0.00    +0.001 A 
ATOM     34  C   UNL     1      -0.499  -2.014  25.308  0.00  0.00    +0.000 A 
ENDBRANCH  26  29
ENDBRANCH  16   7
BRANCH  13   6
ATOM      3  O   UNL     1       1.326   2.425  23.679  0.00  0.00    -0.276 OA
ATOM      6  N   UNL     1      -0.034   1.453  25.295  0.00  0.00    -0.308 N 
ATOM     23  C   UNL     1       0.837   1.432  24.214  0.00  0.00    +0.214 C 
ATOM     35  H   UNL     1      -0.361   0.575  25.687  0.00  0.00    +0.149 HD
BRANCH  23  17
ATOM     17  C   UNL     1       1.128   0.015  23.757  0.00  0.00    +0.103 C 
BRANCH  17  10
ATOM     10  C   UNL     1       2.499  -0.119  23.090  0.00  0.00    -0.011 C 
ATOM     14  C   UNL     1       2.379  -0.183  21.561  0.00  0.00    +0.008 C 
ATOM     15  C   UNL     1       3.347   1.146  23.282  0.00  0.00    +0.008 C 
ATOM     18  C   UNL     1       3.742   0.266  21.037  0.00  0.00    +0.001 C 
ATOM     19  C   UNL     1       4.363   1.119  22.143  0.00  0.00    +0.001 C 
BRANCH  10  21
ATOM     21  C   UNL     1       3.213  -1.361  23.646  0.00  0.00    +0.127 C 
BRANCH  21  24
ATOM      5  O   UNL     1       5.019   0.022  24.525  0.00  0.00    -0.251 OA
ATOM     24  C   UNL     1       4.616  -1.039  24.072  0.00  0.00    +0.305 C 
BRANCH  24   4
ATOM      4  O   UNL     1       5.405  -2.128  23.881  0.00  0.00    -0.481 OA
ATOM     37  H   UNL     1       4.921  -2.964  24.054  0.00  0.00    +0.295 HD
ENDBRANCH  24   4
ENDBRANCH  21  24
ENDBRANCH  10  21
ENDBRANCH  17  10
ENDBRANCH  23  17
ENDBRANCH  13   6
TORSDOF 8
ENDMDL
MODEL 5
REMARK VINA RESULT:       6.7      2.674      7.286
REMARK  Name = 11912239
REMARK  8 active torsions:
REMARK  status: ('A' for Active; 'I' for Inactive)
REMARK    1  A    between atoms: O_4  and  C_24
REMARK    2  A    between atoms: N_6  and  C_13
REMARK    3  A    between atoms: N_7  and  C_16
REMARK    4  A    between atoms: C_10  and  C_17
REMARK    5  A    between atoms: C_10  and  C_21
REMARK    6  A    between atoms: C_17  and  C_23
REMARK    7  A    between atoms: C_21  and  C_24
REMARK    8  A    between atoms: C_26  and  C_29
REMARK                            x       y       z     vdW  Elec       q    Type
REMARK                         _______ _______ _______ _____ _____    ______ ____
ROOT
ATOM      1  O   UNL     1      -1.664   3.266  26.671  0.00  0.00    -0.370 OA
ATOM      2  O   UNL     1      -1.022   5.185  24.296  0.00  0.00    -0.370 OA
ATOM     11  C   UNL     1      -1.809   3.988  24.409  0.00  0.00    +0.171 C 
ATOM     12  C   UNL     1      -1.087   3.063  25.370  0.00  0.00    +0.171 C 
ATOM     13  C   UNL     1      -3.121   4.284  25.100  0.00  0.00    +0.130 C 
ATOM     16  C   UNL     1       0.342   3.551  25.349  0.00  0.00    +0.130 C 
ATOM     20  C   UNL     1      -2.740   4.210  26.568  0.00  0.00    +0.185 C 
ATOM     22  C   UNL     1       0.184   5.032  25.057  0.00  0.00    +0.185 C 
ENDROOT
BRANCH  16   7
ATOM      7  N   UNL     1       1.070   2.904  24.277  0.00  0.00    -0.306 N 
ATOM      8  N   UNL     1      -0.054   0.898  24.597  0.00  0.00    -0.214 NA
ATOM      9  N   UNL     1       1.625   1.131  22.885  0.00  0.00    -0.223 NA
ATOM     25  C   UNL     1       0.872   1.587  23.904  0.00  0.00    +0.216 A 
ATOM     26  C   UNL     1      -0.221  -0.382  24.207  0.00  0.00    +0.076 A 
ATOM     27  C   UNL     1       1.406  -0.156  22.547  0.00  0.00    +0.116 A 
ATOM     28  C   UNL     1       0.487  -0.970  23.179  0.00  0.00    +0.048 A 
ATOM     36  H   UNL     1       1.727   3.444  23.725  0.00  0.00    +0.149 HD
BRANCH  26  29
ATOM     29  C   UNL     1      -1.214  -1.124  24.948  0.00  0.00    +0.001 A 
ATOM     30  C   UNL     1      -1.652  -2.364  24.479  0.00  0.00    +0.010 A 
ATOM     31  C   UNL     1      -1.737  -0.603  26.131  0.00  0.00    +0.010 A 
ATOM     32  C   UNL     1      -2.611  -3.081  25.194  0.00  0.00    +0.001 A 
ATOM     33  C   UNL     1      -2.695  -1.320  26.846  0.00  0.00    +0.001 A 
ATOM     34  C   UNL     1      -3.132  -2.559  26.378  0.00  0.00    +0.000 A 
ENDBRANCH  26  29
ENDBRANCH  16   7
BRANCH  13   6
ATOM      3  O   UNL     1      -5.990   4.526  25.398  0.00  0.00    -0.276 OA
ATOM      6  N   UNL     1      -4.120   3.297  24.767  0.00  0.00    -0.308 N 
ATOM     23  C   UNL     1      -5.482   3.503  24.946  0.00  0.00    +0.214 C 
ATOM     35  H   UNL     1      -3.799   2.425  24.356  0.00  0.00    +0.149 HD
BRANCH  23  17
ATOM     17  C   UNL     1      -6.292   2.297  24.508  0.00  0.00    +0.103 C 
BRANCH  17  10
ATOM     10  C   UNL     1      -5.525   0.982  24.672  0.00  0.00    -0.011 C 
ATOM     14  C   UNL     1      -6.284  -0.195  24.043  0.00  0.00    +0.008 C 
ATOM     15  C   UNL     1      -4.223   0.982  23.860  0.00  0.00    +0.008 C 
ATOM     18  C   UNL     1      -5.215  -1.248  23.759  0.00  0.00    +0.001 C 
ATOM     19  C   UNL     1      -3.892  -0.492  23.641  0.00  0.00    +0.001 C 
BRANCH  10  21
ATOM     21  C   UNL     1      -5.253   0.737  26.165  0.00  0.00    +0.127 C 
BRANCH  21  24
ATOM      5  O   UNL     1      -7.348   0.894  27.403  0.00  0.00    -0.251 OA
ATOM     24  C   UNL     1      -6.297   1.389  27.024  0.00  0.00    +0.305 C 
BRANCH  24   4
ATOM      4  O   UNL     1      -5.899   2.649  27.337  0.00  0.00    -0.481 OA
ATOM     37  H   UNL     1      -6.662   3.261  27.428  0.00  0.00    +0.295 HD
ENDBRANCH  24   4
ENDBRANCH  21  24
ENDBRANCH  10  21
ENDBRANCH  17  10
ENDBRANCH  23  17
ENDBRANCH  13   6
TORSDOF 8
ENDMDL
MODEL 6
REMARK VINA RESULT:       7.1      1.500      2.110
REMARK  Name = 11912239
REMARK  8 active torsions:
REMARK  status: ('A' for Active; 'I' for Inactive)
REMARK    1  A    between atoms: O_4  and  C_24
REMARK    2  A    between atoms: N_6  and  C_13
REMARK    3  A    between atoms: N_7  and  C_16
REMARK    4  A    between atoms: C_10  and  C_17
REMARK    5  A    between atoms: C_10  and  C_21
REMARK    6  A    between atoms: C_17  and  C_23
REMARK    7  A    between atoms: C_21  and  C_24
REMARK    8  A    between atoms: C_26  and  C_29
REMARK                            x       y       z     vdW  Elec       q    Type
REMARK                         _______ _______ _______ _____ _____    ______ ____
ROOT
ATOM      1  O   UNL     1      -2.249  -1.586  26.368  0.00  0.00    -0.370 OA
ATOM      2  O   UNL     1      -3.331  -2.126  23.491  0.00  0.00    -0.370 OA
ATOM     11  C   UNL     1      -2.383  -1.187  24.027  0.00  0.00    +0.171 C 
ATOM     12  C   UNL     1      -2.895  -0.757  25.388  0.00  0.00    +0.171 C 
ATOM     13  C   UNL     1      -1.073  -1.879  24.329  0.00  0.00    +0.130 C 
ATOM     16  C   UNL     1      -4.374  -1.057  25.338  0.00  0.00    +0.130 C 
ATOM     20  C   UNL     1      -1.322  -2.461  25.708  0.00  0.00    +0.185 C 
ATOM     22  C   UNL     1      -4.442  -2.242  24.392  0.00  0.00    +0.185 C 
ENDROOT
BRANCH  16   7
ATOM      7  N   UNL     1      -5.090   0.070  24.781  0.00  0.00    -0.306 N 
ATOM      8  N   UNL     1      -3.318   1.515  25.183  0.00  0.00    -0.214 NA
ATOM      9  N   UNL     1      -5.355   2.290  24.155  0.00  0.00    -0.223 NA
ATOM     25  C   UNL     1      -4.565   1.347  24.703  0.00  0.00    +0.216 A 
ATOM     26  C   UNL     1      -2.838   2.773  25.091  0.00  0.00    +0.076 A 
ATOM     27  C   UNL     1      -4.812   3.523  24.094  0.00  0.00    +0.116 A 
ATOM     28  C   UNL     1      -3.546   3.827  24.551  0.00  0.00    +0.048 A 
ATOM     36  H   UNL     1      -6.007  -0.075  24.373  0.00  0.00    +0.149 HD
BRANCH  26  29
ATOM     29  C   UNL     1      -1.501   2.956  25.604  0.00  0.00    +0.001 A 
ATOM     30  C   UNL     1      -0.991   2.072  26.555  0.00  0.00    +0.010 A 
ATOM     31  C   UNL     1      -0.718   4.018  25.149  0.00  0.00    +0.010 A 
ATOM     32  C   UNL     1       0.301   2.249  27.050  0.00  0.00    +0.001 A 
ATOM     33  C   UNL     1       0.573   4.194  25.644  0.00  0.00    +0.001 A 
ATOM     34  C   UNL     1       1.083   3.310  26.594  0.00  0.00    +0.000 A 
ENDBRANCH  26  29
ENDBRANCH  16   7
BRANCH  13   6
ATOM      3  O   UNL     1      -0.926   0.666  22.955  0.00  0.00    -0.276 OA
ATOM      6  N   UNL     1       0.021  -0.937  24.348  0.00  0.00    -0.308 N 
ATOM     23  C   UNL     1       0.002   0.266  23.654  0.00  0.00    +0.214 C 
ATOM     35  H   UNL     1       0.825  -1.165  24.925  0.00  0.00    +0.149 HD
BRANCH  23  17
ATOM     17  C   UNL     1       1.283   1.051  23.860  0.00  0.00    +0.103 C 
BRANCH  17  10
ATOM     10  C   UNL     1       2.475   0.439  23.120  0.00  0.00    -0.011 C 
ATOM     14  C   UNL     1       2.082  -0.030  21.712  0.00  0.00    +0.008 C 
ATOM     15  C   UNL     1       3.548   1.491  22.808  0.00  0.00    +0.008 C 
ATOM     18  C   UNL     1       3.391  -0.055  20.924  0.00  0.00    +0.001 C 
ATOM     19  C   UNL     1       4.332   0.922  21.628  0.00  0.00    +0.001 C 
BRANCH  10  21
ATOM     21  C   UNL     1       3.050  -0.717  23.953  0.00  0.00    +0.127 C 
BRANCH  21  24
ATOM      5  O   UNL     1       5.120   0.451  24.499  0.00  0.00    -0.251 OA
ATOM     24  C   UNL     1       4.529  -0.562  24.154  0.00  0.00    +0.305 C 
BRANCH  24   4
ATOM      4  O   UNL     1       5.145  -1.743  23.893  0.00  0.00    -0.481 OA
ATOM     37  H   UNL     1       6.072  -1.614  23.597  0.00  0.00    +0.295 HD
ENDBRANCH  24   4
ENDBRANCH  21  24
ENDBRANCH  10  21
ENDBRANCH  17  10
ENDBRANCH  23  17
ENDBRANCH  13   6
TORSDOF 8
ENDMDL
MODEL 7
REMARK VINA RESULT:       7.2      2.447      5.957
REMARK  Name = 11912239
REMARK  8 active torsions:
REMARK  status: ('A' for Active; 'I' for Inactive)
REMARK    1  A    between atoms: O_4  and  C_24
REMARK    2  A    between atoms: N_6  and  C_13
REMARK    3  A    between atoms: N_7  and  C_16
REMARK    4  A    between atoms: C_10  and  C_17
REMARK    5  A    between atoms: C_10  and  C_21
REMARK    6  A    between atoms: C_17  and  C_23
REMARK    7  A    between atoms: C_21  and  C_24
REMARK    8  A    between atoms: C_26  and  C_29
REMARK                            x       y       z     vdW  Elec       q    Type
REMARK                         _______ _______ _______ _____ _____    ______ ____
ROOT
ATOM      1  O   UNL     1      -0.531   0.645  26.268  0.00  0.00    -0.370 OA
ATOM      2  O   UNL     1       1.156  -0.418  23.869  0.00  0.00    -0.370 OA
ATOM     11  C   UNL     1      -0.054   0.354  23.956  0.00  0.00    +0.171 C 
ATOM     12  C   UNL     1      -0.844  -0.181  25.135  0.00  0.00    +0.171 C 
ATOM     13  C   UNL     1       0.260   1.781  24.342  0.00  0.00    +0.130 C 
ATOM     16  C   UNL     1      -0.306  -1.577  25.339  0.00  0.00    +0.130 C 
ATOM     20  C   UNL     1       0.353   1.697  25.855  0.00  0.00    +0.185 C 
ATOM     22  C   UNL     1       1.130  -1.453  24.862  0.00  0.00    +0.185 C 
ENDROOT
BRANCH  16   7
ATOM      7  N   UNL     1      -1.030  -2.514  24.507  0.00  0.00    -0.306 N 
ATOM      8  N   UNL     1      -3.013  -1.329  24.735  0.00  0.00    -0.214 NA
ATOM      9  N   UNL     1      -2.905  -3.343  23.417  0.00  0.00    -0.223 NA
ATOM     25  C   UNL     1      -2.374  -2.390  24.207  0.00  0.00    +0.216 A 
ATOM     26  C   UNL     1      -4.322  -1.239  24.422  0.00  0.00    +0.076 A 
ATOM     27  C   UNL     1      -4.217  -3.191  23.143  0.00  0.00    +0.116 A 
ATOM     28  C   UNL     1      -4.984  -2.149  23.623  0.00  0.00    +0.048 A 
ATOM     36  H   UNL     1      -0.531  -3.281  24.070  0.00  0.00    +0.149 HD
BRANCH  26  29
ATOM     29  C   UNL     1      -5.010  -0.102  24.986  0.00  0.00    +0.001 A 
ATOM     30  C   UNL     1      -6.021   0.531  24.261  0.00  0.00    +0.010 A 
ATOM     31  C   UNL     1      -4.666   0.365  26.255  0.00  0.00    +0.010 A 
ATOM     32  C   UNL     1      -6.686   1.630  24.805  0.00  0.00    +0.001 A 
ATOM     33  C   UNL     1      -5.331   1.462  26.798  0.00  0.00    +0.001 A 
ATOM     34  C   UNL     1      -6.341   2.095  26.075  0.00  0.00    +0.000 A 
ENDBRANCH  26  29
ENDBRANCH  16   7
BRANCH  13   6
ATOM      3  O   UNL     1       0.004   4.595  24.972  0.00  0.00    -0.276 OA
ATOM      6  N   UNL     1      -0.795   2.676  23.931  0.00  0.00    -0.308 N 
ATOM     23  C   UNL     1      -0.834   4.019  24.283  0.00  0.00    +0.214 C 
ATOM     35  H   UNL     1      -1.522   2.298  23.330  0.00  0.00    +0.149 HD
BRANCH  23  17
ATOM     17  C   UNL     1      -2.055   4.712  23.709  0.00  0.00    +0.103 C 
BRANCH  17  10
ATOM     10  C   UNL     1      -3.358   4.249  24.364  0.00  0.00    -0.011 C 
ATOM     14  C   UNL     1      -3.235   4.201  25.893  0.00  0.00    +0.008 C 
ATOM     15  C   UNL     1      -4.483   5.276  24.175  0.00  0.00    +0.008 C 
ATOM     18  C   UNL     1      -4.668   4.307  26.410  0.00  0.00    +0.001 C 
ATOM     19  C   UNL     1      -5.469   4.997  25.307  0.00  0.00    +0.001 C 
BRANCH  10  21
ATOM     21  C   UNL     1      -3.752   2.877  23.793  0.00  0.00    +0.127 C 
BRANCH  21  24
ATOM      5  O   UNL     1      -4.064   3.537  21.467  0.00  0.00    -0.251 OA
ATOM     24  C   UNL     1      -3.540   2.823  22.308  0.00  0.00    +0.305 C 
BRANCH  24   4
ATOM      4  O   UNL     1      -2.653   1.837  22.016  0.00  0.00    -0.481 OA
ATOM     37  H   UNL     1      -3.029   0.946  22.185  0.00  0.00    +0.295 HD
ENDBRANCH  24   4
ENDBRANCH  21  24
ENDBRANCH  10  21
ENDBRANCH  17  10
ENDBRANCH  23  17
ENDBRANCH  13   6
TORSDOF 8
ENDMDL
MODEL 8
REMARK VINA RESULT:       7.4      2.180      7.201
REMARK  Name = 11912239
REMARK  8 active torsions:
REMARK  status: ('A' for Active; 'I' for Inactive)
REMARK    1  A    between atoms: O_4  and  C_24
REMARK    2  A    between atoms: N_6  and  C_13
REMARK    3  A    between atoms: N_7  and  C_16
REMARK    4  A    between atoms: C_10  and  C_17
REMARK    5  A    between atoms: C_10  and  C_21
REMARK    6  A    between atoms: C_17  and  C_23
REMARK    7  A    between atoms: C_21  and  C_24
REMARK    8  A    between atoms: C_26  and  C_29
REMARK                            x       y       z     vdW  Elec       q    Type
REMARK                         _______ _______ _______ _____ _____    ______ ____
ROOT
ATOM      1  O   UNL     1      -1.680   3.281  26.622  0.00  0.00    -0.370 OA
ATOM      2  O   UNL     1      -0.764   5.280  24.409  0.00  0.00    -0.370 OA
ATOM     11  C   UNL     1      -1.626   4.129  24.401  0.00  0.00    +0.171 C 
ATOM     12  C   UNL     1      -1.028   3.112  25.353  0.00  0.00    +0.171 C 
ATOM     13  C   UNL     1      -2.962   4.471  25.019  0.00  0.00    +0.130 C 
ATOM     16  C   UNL     1       0.426   3.509  25.454  0.00  0.00    +0.130 C 
ATOM     20  C   UNL     1      -2.689   4.294  26.502  0.00  0.00    +0.185 C 
ATOM     22  C   UNL     1       0.376   5.011  25.238  0.00  0.00    +0.185 C 
ENDROOT
BRANCH  16   7
ATOM      7  N   UNL     1       1.187   2.876  24.397  0.00  0.00    -0.306 N 
ATOM      8  N   UNL     1       0.027   0.879  24.630  0.00  0.00    -0.214 NA
ATOM      9  N   UNL     1       1.774   1.126  22.990  0.00  0.00    -0.223 NA
ATOM     25  C   UNL     1       0.988   1.570  23.988  0.00  0.00    +0.216 A 
ATOM     26  C   UNL     1      -0.140  -0.391  24.206  0.00  0.00    +0.076 A 
ATOM     27  C   UNL     1       1.553  -0.151  22.615  0.00  0.00    +0.116 A 
ATOM     28  C   UNL     1       0.601  -0.966  23.194  0.00  0.00    +0.048 A 
ATOM     36  H   UNL     1       1.871   3.419  23.883  0.00  0.00    +0.149 HD
BRANCH  26  29
ATOM     29  C   UNL     1      -1.170  -1.136  24.892  0.00  0.00    +0.001 A 
ATOM     30  C   UNL     1      -1.490  -2.428  24.475  0.00  0.00    +0.010 A 
ATOM     31  C   UNL     1      -1.845  -0.563  25.970  0.00  0.00    +0.010 A 
ATOM     32  C   UNL     1      -2.485  -3.148  25.137  0.00  0.00    +0.001 A 
ATOM     33  C   UNL     1      -2.839  -1.283  26.631  0.00  0.00    +0.001 A 
ATOM     34  C   UNL     1      -3.159  -2.575  26.216  0.00  0.00    +0.000 A 
ENDBRANCH  26  29
ENDBRANCH  16   7
BRANCH  13   6
ATOM      3  O   UNL     1      -2.843   2.672  22.754  0.00  0.00    -0.276 OA
ATOM      6  N   UNL     1      -3.992   3.567  24.566  0.00  0.00    -0.308 N 
ATOM     23  C   UNL     1      -3.844   2.737  23.462  0.00  0.00    +0.214 C 
ATOM     35  H   UNL     1      -4.851   3.525  25.107  0.00  0.00    +0.149 HD
BRANCH  23  17
ATOM     17  C   UNL     1      -5.085   1.897  23.223  0.00  0.00    +0.103 C 
BRANCH  17  10
ATOM     10  C   UNL     1      -5.623   1.262  24.508  0.00  0.00    -0.011 C 
ATOM     14  C   UNL     1      -4.679   1.504  25.694  0.00  0.00    +0.008 C 
ATOM     15  C   UNL     1      -6.907   1.954  24.987  0.00  0.00    +0.008 C 
ATOM     18  C   UNL     1      -5.558   1.361  26.935  0.00  0.00    +0.001 C 
ATOM     19  C   UNL     1      -6.989   1.650  26.480  0.00  0.00    +0.001 C 
BRANCH  10  21
ATOM     21  C   UNL     1      -5.850  -0.239  24.274  0.00  0.00    +0.127 C 
BRANCH  21  24
ATOM      5  O   UNL     1      -3.652  -0.313  23.221  0.00  0.00    -0.251 OA
ATOM     24  C   UNL     1      -4.655  -0.879  23.630  0.00  0.00    +0.305 C 
BRANCH  24   4
ATOM      4  O   UNL     1      -4.844  -2.222  23.563  0.00  0.00    -0.481 OA
ATOM     37  H   UNL     1      -5.514  -2.463  22.888  0.00  0.00    +0.295 HD
ENDBRANCH  24   4
ENDBRANCH  21  24
ENDBRANCH  10  21
ENDBRANCH  17  10
ENDBRANCH  23  17
ENDBRANCH  13   6
TORSDOF 8
ENDMDL
MODEL 9
REMARK VINA RESULT:       7.6      2.503      5.854
REMARK  Name = 11912239
REMARK  8 active torsions:
REMARK  status: ('A' for Active; 'I' for Inactive)
REMARK    1  A    between atoms: O_4  and  C_24
REMARK    2  A    between atoms: N_6  and  C_13
REMARK    3  A    between atoms: N_7  and  C_16
REMARK    4  A    between atoms: C_10  and  C_17
REMARK    5  A    between atoms: C_10  and  C_21
REMARK    6  A    between atoms: C_17  and  C_23
REMARK    7  A    between atoms: C_21  and  C_24
REMARK    8  A    between atoms: C_26  and  C_29
REMARK                            x       y       z     vdW  Elec       q    Type
REMARK                         _______ _______ _______ _____ _____    ______ ____
ROOT
ATOM      1  O   UNL     1      -0.356   0.641  26.025  0.00  0.00    -0.370 OA
ATOM      2  O   UNL     1       0.837  -0.174  23.259  0.00  0.00    -0.370 OA
ATOM     11  C   UNL     1      -0.416   0.407  23.658  0.00  0.00    +0.171 C 
ATOM     12  C   UNL     1      -0.809  -0.232  24.976  0.00  0.00    +0.171 C 
ATOM     13  C   UNL     1      -0.232   1.868  23.999  0.00  0.00    +0.130 C 
ATOM     16  C   UNL     1      -0.036  -1.529  25.003  0.00  0.00    +0.130 C 
ATOM     20  C   UNL     1       0.236   1.810  25.441  0.00  0.00    +0.185 C 
ATOM     22  C   UNL     1       1.206  -1.194  24.199  0.00  0.00    +0.185 C 
ENDROOT
BRANCH  16   7
ATOM      7  N   UNL     1      -0.794  -2.571  24.343  0.00  0.00    -0.306 N 
ATOM      8  N   UNL     1      -2.792  -1.422  24.618  0.00  0.00    -0.214 NA
ATOM      9  N   UNL     1      -2.723  -3.564  23.517  0.00  0.00    -0.223 NA
ATOM     25  C   UNL     1      -2.162  -2.517  24.151  0.00  0.00    +0.216 A 
ATOM     26  C   UNL     1      -4.126  -1.402  24.413  0.00  0.00    +0.076 A 
ATOM     27  C   UNL     1      -4.058  -3.478  23.345  0.00  0.00    +0.116 A 
ATOM     28  C   UNL     1      -4.820  -2.411  23.778  0.00  0.00    +0.048 A 
ATOM     36  H   UNL     1      -0.306  -3.367  23.947  0.00  0.00    +0.149 HD
BRANCH  26  29
ATOM     29  C   UNL     1      -4.805  -0.229  24.912  0.00  0.00    +0.001 A 
ATOM     30  C   UNL     1      -5.792   0.385  24.140  0.00  0.00    +0.010 A 
ATOM     31  C   UNL     1      -4.474   0.290  26.164  0.00  0.00    +0.010 A 
ATOM     32  C   UNL     1      -6.448   1.518  24.621  0.00  0.00    +0.001 A 
ATOM     33  C   UNL     1      -5.130   1.423  26.644  0.00  0.00    +0.001 A 
ATOM     34  C   UNL     1      -6.118   2.037  25.874  0.00  0.00    +0.000 A 
ENDBRANCH  26  29
ENDBRANCH  16   7
BRANCH  13   6
ATOM      3  O   UNL     1      -2.476   1.228  22.285  0.00  0.00    -0.276 OA
ATOM      6  N   UNL     1      -1.476   2.591  23.880  0.00  0.00    -0.308 N 
ATOM     23  C   UNL     1      -2.501   2.207  23.026  0.00  0.00    +0.214 C 
ATOM     35  H   UNL     1      -1.605   3.402  24.479  0.00  0.00    +0.149 HD
BRANCH  23  17
ATOM     17  C   UNL     1      -3.686   3.151  23.114  0.00  0.00    +0.103 C 
BRANCH  17  10
ATOM     10  C   UNL     1      -3.493   4.240  24.172  0.00  0.00    -0.011 C 
ATOM     14  C   UNL     1      -3.089   3.645  25.528  0.00  0.00    +0.008 C 
ATOM     15  C   UNL     1      -2.285   5.132  23.852  0.00  0.00    +0.008 C 
ATOM     18  C   UNL     1      -2.389   4.784  26.267  0.00  0.00    +0.001 C 
ATOM     19  C   UNL     1      -1.874   5.738  25.191  0.00  0.00    +0.001 C 
BRANCH  10  21
ATOM     21  C   UNL     1      -4.783   5.067  24.287  0.00  0.00    +0.127 C 
BRANCH  21  24
ATOM      5  O   UNL     1      -4.905   4.471  26.649  0.00  0.00    -0.251 OA
ATOM     24  C   UNL     1      -5.437   4.875  25.625  0.00  0.00    +0.305 C 
BRANCH  24   4
ATOM      4  O   UNL     1      -6.746   5.227  25.541  0.00  0.00    -0.481 OA
ATOM     37  H   UNL     1      -7.306   4.698  26.149  0.00  0.00    +0.295 HD
ENDBRANCH  24   4
ENDBRANCH  21  24
ENDBRANCH  10  21
ENDBRANCH  17  10
ENDBRANCH  23  17
ENDBRANCH  13   6
TORSDOF 8
ENDMDL
MODEL 10
REMARK VINA RESULT:       7.8      2.052      5.211
REMARK  Name = 11912239
REMARK  8 active torsions:
REMARK  status: ('A' for Active; 'I' for Inactive)
REMARK    1  A    between atoms: O_4  and  C_24
REMARK    2  A    between atoms: N_6  and  C_13
REMARK    3  A    between atoms: N_7  and  C_16
REMARK    4  A    between atoms: C_10  and  C_17
REMARK    5  A    between atoms: C_10  and  C_21
REMARK    6  A    between atoms: C_17  and  C_23
REMARK    7  A    between atoms: C_21  and  C_24
REMARK    8  A    between atoms: C_26  and  C_29
REMARK                            x       y       z     vdW  Elec       q    Type
REMARK                         _______ _______ _______ _____ _____    ______ ____
ROOT
ATOM      1  O   UNL     1      -1.866   3.161  23.140  0.00  0.00    -0.370 OA
ATOM      2  O   UNL     1      -1.686   5.472  25.228  0.00  0.00    -0.370 OA
ATOM     11  C   UNL     1      -1.671   4.039  25.342  0.00  0.00    +0.171 C 
ATOM     12  C   UNL     1      -2.636   3.495  24.306  0.00  0.00    +0.171 C 
ATOM     13  C   UNL     1      -0.328   3.493  24.915  0.00  0.00    +0.130 C 
ATOM     16  C   UNL     1      -3.556   4.656  24.012  0.00  0.00    +0.130 C 
ATOM     20  C   UNL     1      -0.477   3.402  23.407  0.00  0.00    +0.185 C 
ATOM     22  C   UNL     1      -2.660   5.859  24.248  0.00  0.00    +0.185 C 
ENDROOT
BRANCH  16   7
ATOM      7  N   UNL     1      -4.660   4.663  24.947  0.00  0.00    -0.306 N 
ATOM      8  N   UNL     1      -4.693   2.345  25.070  0.00  0.00    -0.214 NA
ATOM      9  N   UNL     1      -6.245   3.685  26.334  0.00  0.00    -0.223 NA
ATOM     25  C   UNL     1      -5.224   3.515  25.473  0.00  0.00    +0.216 A 
ATOM     26  C   UNL     1      -5.267   1.246  25.602  0.00  0.00    +0.076 A 
ATOM     27  C   UNL     1      -6.771   2.546  26.829  0.00  0.00    +0.116 A 
ATOM     28  C   UNL     1      -6.318   1.285  26.494  0.00  0.00    +0.048 A 
ATOM     36  H   UNL     1      -5.020   5.548  25.287  0.00  0.00    +0.149 HD
BRANCH  26  29
ATOM     29  C   UNL     1      -4.700  -0.011  25.173  0.00  0.00    +0.001 A 
ATOM     30  C   UNL     1      -4.804  -0.402  23.837  0.00  0.00    +0.010 A 
ATOM     31  C   UNL     1      -4.047  -0.833  26.091  0.00  0.00    +0.010 A 
ATOM     32  C   UNL     1      -4.256  -1.616  23.422  0.00  0.00    +0.001 A 
ATOM     33  C   UNL     1      -3.500  -2.046  25.675  0.00  0.00    +0.001 A 
ATOM     34  C   UNL     1      -3.603  -2.438  24.341  0.00  0.00    +0.000 A 
ENDBRANCH  26  29
ENDBRANCH  16   7
BRANCH  13   6
ATOM      3  O   UNL     1      -1.786   1.045  24.404  0.00  0.00    -0.276 OA
ATOM      6  N   UNL     1      -0.085   2.194  25.496  0.00  0.00    -0.308 N 
ATOM     23  C   UNL     1      -0.841   1.070  25.189  0.00  0.00    +0.214 C 
ATOM     35  H   UNL     1       0.698   2.105  26.136  0.00  0.00    +0.149 HD
BRANCH  23  17
ATOM     17  C   UNL     1      -0.359  -0.153  25.946  0.00  0.00    +0.103 C 
BRANCH  17  10
ATOM     10  C   UNL     1      -0.009  -1.320  25.019  0.00  0.00    -0.011 C 
ATOM     14  C   UNL     1      -0.053  -2.663  25.761  0.00  0.00    +0.008 C 
ATOM     15  C   UNL     1      -1.081  -1.526  23.940  0.00  0.00    +0.008 C 
ATOM     18  C   UNL     1      -0.269  -3.711  24.671  0.00  0.00    +0.001 C 
ATOM     19  C   UNL     1      -0.929  -2.980  23.502  0.00  0.00    +0.001 C 
BRANCH  10  21
ATOM     21  C   UNL     1       1.373  -1.073  24.393  0.00  0.00    +0.127 C 
BRANCH  21  24
ATOM      5  O   UNL     1       0.703  -0.321  22.172  0.00  0.00    -0.251 OA
ATOM     24  C   UNL     1       1.285  -0.129  23.230  0.00  0.00    +0.305 C 
BRANCH  24   4
ATOM      4  O   UNL     1       1.962   1.012  23.523  0.00  0.00    -0.481 OA
ATOM     37  H   UNL     1       1.380   1.801  23.484  0.00  0.00    +0.295 HD
ENDBRANCH  24   4
ENDBRANCH  21  24
ENDBRANCH  10  21
ENDBRANCH  17  10
ENDBRANCH  23  17
ENDBRANCH  13   6
TORSDOF 8
ENDMDL
