MODEL 1
REMARK VINA RESULT:      -6.3      0.000      0.000
REMARK  Name = 25390318
REMARK  9 active torsions:
REMARK  status: ('A' for Active; 'I' for Inactive)
REMARK    1  A    between atoms: O_3  and  C_9
REMARK    2  A    between atoms: O_4  and  C_10
REMARK    3  A    between atoms: N_7  and  C_13
REMARK    4  A    between atoms: N_8  and  C_18
REMARK    5  A    between atoms: C_11  and  C_13
REMARK    6  A    between atoms: C_12  and  C_14
REMARK    7  A    between atoms: C_14  and  C_15
REMARK    8  A    between atoms: C_16  and  C_17
REMARK    9  A    between atoms: C_18  and  C_23
REMARK                            x       y       z     vdW  Elec       q    Type
REMARK                         _______ _______ _______ _____ _____    ______ ____
ROOT
ATOM      2  O   UNL     1      -2.144   3.276  26.284  0.00  0.00    -0.366 OA
ATOM      9  C   UNL     1      -1.842   4.748  24.439  0.00  0.00    +0.176 C 
ATOM     10  C   UNL     1      -0.905   3.566  24.299  0.00  0.00    +0.175 C 
ATOM     11  C   UNL     1      -2.850   4.234  25.463  0.00  0.00    +0.167 C 
ATOM     12  C   UNL     1      -0.834   3.063  25.730  0.00  0.00    +0.158 C 
ENDROOT
BRANCH   9   3
ATOM      3  O   UNL     1      -1.155   5.859  25.014  0.00  0.00    -0.387 OA
ATOM     26  H   UNL     1      -1.772   6.299  25.624  0.00  0.00    +0.210 HD
ENDBRANCH   9   3
BRANCH  10   4
ATOM      4  O   UNL     1       0.366   3.916  23.796  0.00  0.00    -0.387 OA
ATOM     27  H   UNL     1       0.671   4.696  24.292  0.00  0.00    +0.210 HD
ENDBRANCH  10   4
BRANCH  11  13
ATOM     13  C   UNL     1      -4.033   3.519  24.825  0.00  0.00    +0.138 C 
BRANCH  13   7
ATOM      6  O   UNL     1      -5.680   1.419  25.883  0.00  0.00    -0.270 OA
ATOM      7  N   UNL     1      -3.793   2.110  24.724  0.00  0.00    -0.309 N 
ATOM     16  C   UNL     1      -4.649   1.156  25.270  0.00  0.00    +0.244 C 
ATOM     28  H   UNL     1      -2.928   1.828  24.277  0.00  0.00    +0.149 HD
BRANCH  16  17
ATOM      1  F   UNL     1      -4.574  -2.959  22.680  0.00  0.00    -0.205 F 
ATOM     17  C   UNL     1      -4.245  -0.263  25.101  0.00  0.00    +0.039 A 
ATOM     19  C   UNL     1      -4.607  -0.958  23.947  0.00  0.00    +0.051 A 
ATOM     20  C   UNL     1      -3.504  -0.900  26.096  0.00  0.00    +0.013 A 
ATOM     21  C   UNL     1      -4.228  -2.291  23.789  0.00  0.00    +0.124 A 
ATOM     22  C   UNL     1      -3.126  -2.234  25.938  0.00  0.00    +0.004 A 
ATOM     24  C   UNL     1      -3.488  -2.928  24.784  0.00  0.00    +0.038 A 
ENDBRANCH  16  17
ENDBRANCH  13   7
ENDBRANCH  11  13
BRANCH  12  14
ATOM     14  C   UNL     1      -0.469   1.592  25.834  0.00  0.00    +0.130 C 
BRANCH  14  15
ATOM      5  O   UNL     1      -1.251   0.504  23.819  0.00  0.00    -0.276 OA
ATOM      8  N   UNL     1       1.024   0.892  24.088  0.00  0.00    -0.304 N 
ATOM     15  C   UNL     1      -0.307   0.935  24.475  0.00  0.00    +0.216 C 
ATOM     29  H   UNL     1       1.732   1.292  24.698  0.00  0.00    +0.150 HD
BRANCH   8  18
ATOM     18  C   UNL     1       1.464   0.318  22.836  0.00  0.00    +0.193 C 
BRANCH  18  23
ATOM     23  C   UNL     1       2.909   0.470  22.666  0.00  0.00    -0.087 C 
ATOM     25  C   UNL     1       4.095   0.597  22.529  0.00  0.00    +0.005 C 
ENDBRANCH  18  23
ENDBRANCH   8  18
ENDBRANCH  14  15
ENDBRANCH  12  14
TORSDOF 9
ENDMDL
MODEL 2
REMARK VINA RESULT:      -5.9      2.789      6.791
REMARK  Name = 25390318
REMARK  9 active torsions:
REMARK  status: ('A' for Active; 'I' for Inactive)
REMARK    1  A    between atoms: O_3  and  C_9
REMARK    2  A    between atoms: O_4  and  C_10
REMARK    3  A    between atoms: N_7  and  C_13
REMARK    4  A    between atoms: N_8  and  C_18
REMARK    5  A    between atoms: C_11  and  C_13
REMARK    6  A    between atoms: C_12  and  C_14
REMARK    7  A    between atoms: C_14  and  C_15
REMARK    8  A    between atoms: C_16  and  C_17
REMARK    9  A    between atoms: C_18  and  C_23
REMARK                            x       y       z     vdW  Elec       q    Type
REMARK                         _______ _______ _______ _____ _____    ______ ____
ROOT
ATOM      2  O   UNL     1      -2.558   0.487  25.432  0.00  0.00    -0.366 OA
ATOM      9  C   UNL     1      -2.238  -1.510  24.178  0.00  0.00    +0.176 C 
ATOM     10  C   UNL     1      -3.627  -0.966  23.913  0.00  0.00    +0.175 C 
ATOM     11  C   UNL     1      -1.533  -0.299  24.781  0.00  0.00    +0.167 C 
ATOM     12  C   UNL     1      -3.844  -0.082  25.129  0.00  0.00    +0.158 C 
ENDROOT
BRANCH   9   3
ATOM      3  O   UNL     1      -2.288  -2.534  25.171  0.00  0.00    -0.387 OA
ATOM     26  H   UNL     1      -1.596  -3.182  24.955  0.00  0.00    +0.210 HD
ENDBRANCH   9   3
BRANCH  10   4
ATOM      4  O   UNL     1      -4.611  -1.972  23.808  0.00  0.00    -0.387 OA
ATOM     27  H   UNL     1      -5.278  -1.663  23.170  0.00  0.00    +0.210 HD
ENDBRANCH  10   4
BRANCH  11  13
ATOM     13  C   UNL     1      -0.864   0.582  23.735  0.00  0.00    +0.138 C 
BRANCH  13   7
ATOM      6  O   UNL     1       0.933  -0.386  21.716  0.00  0.00    -0.270 OA
ATOM      7  N   UNL     1       0.564   0.502  23.827  0.00  0.00    -0.309 N 
ATOM     16  C   UNL     1       1.362   0.016  22.794  0.00  0.00    +0.244 C 
ATOM     28  H   UNL     1       0.977   0.767  24.715  0.00  0.00    +0.149 HD
BRANCH  16  17
ATOM      1  F   UNL     1       5.352  -2.370  24.218  0.00  0.00    -0.205 F 
ATOM     17  C   UNL     1       2.823  -0.027  23.057  0.00  0.00    +0.039 A 
ATOM     19  C   UNL     1       3.413  -1.202  23.524  0.00  0.00    +0.051 A 
ATOM     20  C   UNL     1       3.605   1.107  22.837  0.00  0.00    +0.013 A 
ATOM     21  C   UNL     1       4.785  -1.242  23.770  0.00  0.00    +0.124 A 
ATOM     22  C   UNL     1       4.977   1.067  23.085  0.00  0.00    +0.004 A 
ATOM     24  C   UNL     1       5.567  -0.108  23.551  0.00  0.00    +0.038 A 
ENDBRANCH  16  17
ENDBRANCH  13   7
ENDBRANCH  11  13
BRANCH  12  14
ATOM     14  C   UNL     1      -4.851   1.031  24.892  0.00  0.00    +0.130 C 
BRANCH  14  15
ATOM      5  O   UNL     1      -4.016   2.769  23.431  0.00  0.00    -0.276 OA
ATOM      8  N   UNL     1      -3.813   3.028  25.731  0.00  0.00    -0.304 N 
ATOM     15  C   UNL     1      -4.188   2.359  24.576  0.00  0.00    +0.216 C 
ATOM     29  H   UNL     1      -4.015   2.608  26.635  0.00  0.00    +0.150 HD
BRANCH   8  18
ATOM     18  C   UNL     1      -3.158   4.316  25.721  0.00  0.00    +0.193 C 
BRANCH  18  23
ATOM     23  C   UNL     1      -1.757   4.192  25.320  0.00  0.00    -0.087 C 
ATOM     25  C   UNL     1      -0.606   4.088  24.994  0.00  0.00    +0.005 C 
ENDBRANCH  18  23
ENDBRANCH   8  18
ENDBRANCH  14  15
ENDBRANCH  12  14
TORSDOF 9
ENDMDL
MODEL 3
REMARK VINA RESULT:      -5.7      2.371      6.265
REMARK  Name = 25390318
REMARK  9 active torsions:
REMARK  status: ('A' for Active; 'I' for Inactive)
REMARK    1  A    between atoms: O_3  and  C_9
REMARK    2  A    between atoms: O_4  and  C_10
REMARK    3  A    between atoms: N_7  and  C_13
REMARK    4  A    between atoms: N_8  and  C_18
REMARK    5  A    between atoms: C_11  and  C_13
REMARK    6  A    between atoms: C_12  and  C_14
REMARK    7  A    between atoms: C_14  and  C_15
REMARK    8  A    between atoms: C_16  and  C_17
REMARK    9  A    between atoms: C_18  and  C_23
REMARK                            x       y       z     vdW  Elec       q    Type
REMARK                         _______ _______ _______ _____ _____    ______ ____
ROOT
ATOM      2  O   UNL     1      -2.405   2.709  23.257  0.00  0.00    -0.366 OA
ATOM      9  C   UNL     1      -1.202   3.414  25.184  0.00  0.00    +0.176 C 
ATOM     10  C   UNL     1      -2.666   3.250  25.537  0.00  0.00    +0.175 C 
ATOM     11  C   UNL     1      -1.101   2.635  23.877  0.00  0.00    +0.167 C 
ATOM     12  C   UNL     1      -3.320   3.341  24.170  0.00  0.00    +0.158 C 
ENDROOT
BRANCH   9   3
ATOM      3  O   UNL     1      -0.910   4.784  24.907  0.00  0.00    -0.387 OA
ATOM     26  H   UNL     1      -0.614   5.192  25.738  0.00  0.00    +0.210 HD
ENDBRANCH   9   3
BRANCH  10   4
ATOM      4  O   UNL     1      -3.143   4.242  26.421  0.00  0.00    -0.387 OA
ATOM     27  H   UNL     1      -3.165   3.852  27.312  0.00  0.00    +0.210 HD
ENDBRANCH  10   4
BRANCH  11  13
ATOM     13  C   UNL     1      -0.767   1.164  24.085  0.00  0.00    +0.138 C 
BRANCH  13   7
ATOM      6  O   UNL     1       0.705  -0.316  22.113  0.00  0.00    -0.270 OA
ATOM      7  N   UNL     1       0.649   0.947  24.059  0.00  0.00    -0.309 N 
ATOM     16  C   UNL     1       1.283   0.212  23.060  0.00  0.00    +0.244 C 
ATOM     28  H   UNL     1       1.178   1.310  24.844  0.00  0.00    +0.149 HD
BRANCH  16  17
ATOM      1  F   UNL     1       5.189  -2.477  24.133  0.00  0.00    -0.205 F 
ATOM     17  C   UNL     1       2.754   0.056  23.191  0.00  0.00    +0.039 A 
ATOM     19  C   UNL     1       3.292  -1.162  23.609  0.00  0.00    +0.051 A 
ATOM     20  C   UNL     1       3.598   1.127  22.896  0.00  0.00    +0.013 A 
ATOM     21  C   UNL     1       4.673  -1.308  23.732  0.00  0.00    +0.124 A 
ATOM     22  C   UNL     1       4.980   0.980  23.021  0.00  0.00    +0.004 A 
ATOM     24  C   UNL     1       5.517  -0.237  23.439  0.00  0.00    +0.038 A 
ENDBRANCH  16  17
ENDBRANCH  13   7
ENDBRANCH  11  13
BRANCH  12  14
ATOM     14  C   UNL     1      -4.670   2.647  24.101  0.00  0.00    +0.130 C 
BRANCH  14  15
ATOM      5  O   UNL     1      -5.592   1.529  26.039  0.00  0.00    -0.276 OA
ATOM      8  N   UNL     1      -3.905   0.489  24.826  0.00  0.00    -0.304 N 
ATOM     15  C   UNL     1      -4.795   1.515  25.105  0.00  0.00    +0.216 C 
ATOM     29  H   UNL     1      -3.295   0.568  24.016  0.00  0.00    +0.150 HD
BRANCH   8  18
ATOM     18  C   UNL     1      -3.809  -0.712  25.623  0.00  0.00    +0.193 C 
BRANCH  18  23
ATOM     23  C   UNL     1      -3.710  -1.900  24.777  0.00  0.00    -0.087 C 
ATOM     25  C   UNL     1      -3.630  -2.878  24.085  0.00  0.00    +0.005 C 
ENDBRANCH  18  23
ENDBRANCH   8  18
ENDBRANCH  14  15
ENDBRANCH  12  14
TORSDOF 9
ENDMDL
MODEL 4
REMARK VINA RESULT:      -4.5      2.443      5.225
REMARK  Name = 25390318
REMARK  9 active torsions:
REMARK  status: ('A' for Active; 'I' for Inactive)
REMARK    1  A    between atoms: O_3  and  C_9
REMARK    2  A    between atoms: O_4  and  C_10
REMARK    3  A    between atoms: N_7  and  C_13
REMARK    4  A    between atoms: N_8  and  C_18
REMARK    5  A    between atoms: C_11  and  C_13
REMARK    6  A    between atoms: C_12  and  C_14
REMARK    7  A    between atoms: C_14  and  C_15
REMARK    8  A    between atoms: C_16  and  C_17
REMARK    9  A    between atoms: C_18  and  C_23
REMARK                            x       y       z     vdW  Elec       q    Type
REMARK                         _______ _______ _______ _____ _____    ______ ____
ROOT
ATOM      2  O   UNL     1      -3.644   3.507  24.233  0.00  0.00    -0.366 OA
ATOM      9  C   UNL     1      -5.112   3.583  26.103  0.00  0.00    +0.176 C 
ATOM     10  C   UNL     1      -5.218   2.228  25.435  0.00  0.00    +0.175 C 
ATOM     11  C   UNL     1      -3.801   4.116  25.535  0.00  0.00    +0.167 C 
ATOM     12  C   UNL     1      -4.684   2.531  24.046  0.00  0.00    +0.158 C 
ENDROOT
BRANCH   9   3
ATOM      3  O   UNL     1      -6.166   4.438  25.660  0.00  0.00    -0.387 OA
ATOM     26  H   UNL     1      -5.873   5.355  25.793  0.00  0.00    +0.210 HD
ENDBRANCH   9   3
BRANCH  10   4
ATOM      4  O   UNL     1      -6.535   1.723  25.398  0.00  0.00    -0.387 OA
ATOM     27  H   UNL     1      -6.864   1.698  26.314  0.00  0.00    +0.210 HD
ENDBRANCH  10   4
BRANCH  11  13
ATOM     13  C   UNL     1      -2.590   3.736  26.375  0.00  0.00    +0.138 C 
BRANCH  13   7
ATOM      6  O   UNL     1      -0.337   4.241  24.668  0.00  0.00    -0.270 OA
ATOM      7  N   UNL     1      -1.784   2.756  25.709  0.00  0.00    -0.309 N 
ATOM     16  C   UNL     1      -0.705   3.091  24.895  0.00  0.00    +0.244 C 
ATOM     28  H   UNL     1      -2.069   1.788  25.811  0.00  0.00    +0.149 HD
BRANCH  16  17
ATOM      1  F   UNL     1       3.298   1.190  22.893  0.00  0.00    -0.205 F 
ATOM     17  C   UNL     1       0.013   1.960  24.256  0.00  0.00    +0.039 A 
ATOM     19  C   UNL     1       1.345   2.109  23.867  0.00  0.00    +0.051 A 
ATOM     20  C   UNL     1      -0.643   0.747  24.044  0.00  0.00    +0.013 A 
ATOM     21  C   UNL     1       2.019   1.046  23.266  0.00  0.00    +0.124 A 
ATOM     22  C   UNL     1       0.031  -0.315  23.442  0.00  0.00    +0.004 A 
ATOM     24  C   UNL     1       1.363  -0.165  23.054  0.00  0.00    +0.038 A 
ENDBRANCH  16  17
ENDBRANCH  13   7
ENDBRANCH  11  13
BRANCH  12  14
ATOM     14  C   UNL     1      -4.118   1.311  23.339  0.00  0.00    +0.130 C 
BRANCH  14  15
ATOM      5  O   UNL     1      -3.651   0.257  25.466  0.00  0.00    -0.276 OA
ATOM      8  N   UNL     1      -4.101  -1.075  23.616  0.00  0.00    -0.304 N 
ATOM     15  C   UNL     1      -3.926   0.132  24.276  0.00  0.00    +0.216 C 
ATOM     29  H   UNL     1      -4.344  -1.070  22.629  0.00  0.00    +0.150 HD
BRANCH   8  18
ATOM     18  C   UNL     1      -3.974  -2.357  24.269  0.00  0.00    +0.193 C 
BRANCH  18  23
ATOM     23  C   UNL     1      -2.587  -2.619  24.652  0.00  0.00    -0.087 C 
ATOM     25  C   UNL     1      -1.449  -2.832  24.971  0.00  0.00    +0.005 C 
ENDBRANCH  18  23
ENDBRANCH   8  18
ENDBRANCH  14  15
ENDBRANCH  12  14
TORSDOF 9
ENDMDL
MODEL 5
REMARK VINA RESULT:      -3.9      2.100      4.614
REMARK  Name = 25390318
REMARK  9 active torsions:
REMARK  status: ('A' for Active; 'I' for Inactive)
REMARK    1  A    between atoms: O_3  and  C_9
REMARK    2  A    between atoms: O_4  and  C_10
REMARK    3  A    between atoms: N_7  and  C_13
REMARK    4  A    between atoms: N_8  and  C_18
REMARK    5  A    between atoms: C_11  and  C_13
REMARK    6  A    between atoms: C_12  and  C_14
REMARK    7  A    between atoms: C_14  and  C_15
REMARK    8  A    between atoms: C_16  and  C_17
REMARK    9  A    between atoms: C_18  and  C_23
REMARK                            x       y       z     vdW  Elec       q    Type
REMARK                         _______ _______ _______ _____ _____    ______ ____
ROOT
ATOM      2  O   UNL     1       0.338   2.279  25.548  0.00  0.00    -0.366 OA
ATOM      9  C   UNL     1       1.012   1.799  23.317  0.00  0.00    +0.176 C 
ATOM     10  C   UNL     1       0.022   0.750  23.781  0.00  0.00    +0.175 C 
ATOM     11  C   UNL     1       0.788   2.916  24.331  0.00  0.00    +0.167 C 
ATOM     12  C   UNL     1       0.127   0.879  25.291  0.00  0.00    +0.158 C 
ENDROOT
BRANCH   9   3
ATOM      3  O   UNL     1       2.348   1.322  23.472  0.00  0.00    -0.387 OA
ATOM     26  H   UNL     1       2.686   1.110  22.586  0.00  0.00    +0.210 HD
ENDBRANCH   9   3
BRANCH  10   4
ATOM      4  O   UNL     1       0.338  -0.552  23.337  0.00  0.00    -0.387 OA
ATOM     27  H   UNL     1      -0.123  -0.692  22.491  0.00  0.00    +0.210 HD
ENDBRANCH  10   4
BRANCH  11  13
ATOM     13  C   UNL     1      -0.286   3.905  23.899  0.00  0.00    +0.138 C 
BRANCH  13   7
ATOM      6  O   UNL     1      -2.253   4.777  25.800  0.00  0.00    -0.270 OA
ATOM      7  N   UNL     1      -1.598   3.359  24.085  0.00  0.00    -0.309 N 
ATOM     16  C   UNL     1      -2.492   3.846  25.036  0.00  0.00    +0.244 C 
ATOM     28  H   UNL     1      -1.837   2.550  23.522  0.00  0.00    +0.149 HD
BRANCH  16  17
ATOM      1  F   UNL     1      -5.278  -0.075  24.321  0.00  0.00    -0.205 F 
ATOM     17  C   UNL     1      -3.802   3.153  25.122  0.00  0.00    +0.039 A 
ATOM     19  C   UNL     1      -3.927   1.838  24.672  0.00  0.00    +0.051 A 
ATOM     20  C   UNL     1      -4.909   3.817  25.652  0.00  0.00    +0.013 A 
ATOM     21  C   UNL     1      -5.158   1.188  24.752  0.00  0.00    +0.124 A 
ATOM     22  C   UNL     1      -6.140   3.166  25.731  0.00  0.00    +0.004 A 
ATOM     24  C   UNL     1      -6.264   1.852  25.282  0.00  0.00    +0.038 A 
ENDBRANCH  16  17
ENDBRANCH  13   7
ENDBRANCH  11  13
BRANCH  12  14
ATOM     14  C   UNL     1      -1.118   0.408  26.023  0.00  0.00    +0.130 C 
BRANCH  14  15
ATOM      5  O   UNL     1      -0.538  -1.896  25.562  0.00  0.00    -0.276 OA
ATOM      8  N   UNL     1      -2.772  -1.325  25.850  0.00  0.00    -0.304 N 
ATOM     15  C   UNL     1      -1.412  -1.062  25.784  0.00  0.00    +0.216 C 
ATOM     29  H   UNL     1      -3.415  -0.565  26.056  0.00  0.00    +0.150 HD
BRANCH   8  18
ATOM     18  C   UNL     1      -3.332  -2.644  25.658  0.00  0.00    +0.193 C 
BRANCH  18  23
ATOM     23  C   UNL     1      -3.876  -2.794  24.309  0.00  0.00    -0.087 C 
ATOM     25  C   UNL     1      -4.323  -2.922  23.202  0.00  0.00    +0.005 C 
ENDBRANCH  18  23
ENDBRANCH   8  18
ENDBRANCH  14  15
ENDBRANCH  12  14
TORSDOF 9
ENDMDL
MODEL 6
REMARK VINA RESULT:      -3.7      2.818      6.277
REMARK  Name = 25390318
REMARK  9 active torsions:
REMARK  status: ('A' for Active; 'I' for Inactive)
REMARK    1  A    between atoms: O_3  and  C_9
REMARK    2  A    between atoms: O_4  and  C_10
REMARK    3  A    between atoms: N_7  and  C_13
REMARK    4  A    between atoms: N_8  and  C_18
REMARK    5  A    between atoms: C_11  and  C_13
REMARK    6  A    between atoms: C_12  and  C_14
REMARK    7  A    between atoms: C_14  and  C_15
REMARK    8  A    between atoms: C_16  and  C_17
REMARK    9  A    between atoms: C_18  and  C_23
REMARK                            x       y       z     vdW  Elec       q    Type
REMARK                         _______ _______ _______ _____ _____    ______ ____
ROOT
ATOM      2  O   UNL     1      -2.322  -1.342  26.319  0.00  0.00    -0.366 OA
ATOM      9  C   UNL     1      -2.358  -2.369  24.173  0.00  0.00    +0.176 C 
ATOM     10  C   UNL     1      -3.416  -1.287  24.231  0.00  0.00    +0.175 C 
ATOM     11  C   UNL     1      -1.470  -2.008  25.360  0.00  0.00    +0.167 C 
ATOM     12  C   UNL     1      -3.619  -1.139  25.729  0.00  0.00    +0.158 C 
ENDROOT
BRANCH   9   3
ATOM      3  O   UNL     1      -2.941  -3.646  24.429  0.00  0.00    -0.387 OA
ATOM     26  H   UNL     1      -3.906  -3.536  24.400  0.00  0.00    +0.210 HD
ENDBRANCH   9   3
BRANCH  10   4
ATOM      4  O   UNL     1      -4.611  -1.637  23.567  0.00  0.00    -0.387 OA
ATOM     27  H   UNL     1      -5.236  -0.900  23.683  0.00  0.00    +0.210 HD
ENDBRANCH  10   4
BRANCH  11  13
ATOM     13  C   UNL     1      -0.346  -1.049  24.992  0.00  0.00    +0.138 C 
BRANCH  13   7
ATOM      6  O   UNL     1       0.857   1.253  23.770  0.00  0.00    -0.270 OA
ATOM      7  N   UNL     1      -0.757   0.315  25.146  0.00  0.00    -0.309 N 
ATOM     16  C   UNL     1      -0.113   1.375  24.513  0.00  0.00    +0.244 C 
ATOM     28  H   UNL     1      -1.519   0.489  25.792  0.00  0.00    +0.149 HD
BRANCH  16  17
ATOM      1  F   UNL     1      -3.067   4.347  26.980  0.00  0.00    -0.205 F 
ATOM     17  C   UNL     1      -0.646   2.732  24.797  0.00  0.00    +0.039 A 
ATOM     19  C   UNL     1      -1.626   2.906  25.775  0.00  0.00    +0.051 A 
ATOM     20  C   UNL     1      -0.166   3.832  24.086  0.00  0.00    +0.013 A 
ATOM     21  C   UNL     1      -2.126   4.180  26.041  0.00  0.00    +0.124 A 
ATOM     22  C   UNL     1      -0.668   5.106  24.353  0.00  0.00    +0.004 A 
ATOM     24  C   UNL     1      -1.648   5.280  25.330  0.00  0.00    +0.038 A 
ENDBRANCH  16  17
ENDBRANCH  13   7
ENDBRANCH  11  13
BRANCH  12  14
ATOM     14  C   UNL     1      -4.155   0.224  26.132  0.00  0.00    +0.130 C 
BRANCH  14  15
ATOM      5  O   UNL     1      -5.869   0.841  24.540  0.00  0.00    -0.276 OA
ATOM      8  N   UNL     1      -3.794   1.882  24.432  0.00  0.00    -0.304 N 
ATOM     15  C   UNL     1      -4.724   0.997  24.956  0.00  0.00    +0.216 C 
ATOM     29  H   UNL     1      -2.874   1.947  24.861  0.00  0.00    +0.150 HD
BRANCH   8  18
ATOM     18  C   UNL     1      -4.071   2.742  23.305  0.00  0.00    +0.193 C 
BRANCH  18  23
ATOM     23  C   UNL     1      -3.147   2.481  22.202  0.00  0.00    -0.087 C 
ATOM     25  C   UNL     1      -2.390   2.262  21.296  0.00  0.00    +0.005 C 
ENDBRANCH  18  23
ENDBRANCH   8  18
ENDBRANCH  14  15
ENDBRANCH  12  14
TORSDOF 9
ENDMDL
MODEL 7
REMARK VINA RESULT:      -3.7      1.680      2.128
REMARK  Name = 25390318
REMARK  9 active torsions:
REMARK  status: ('A' for Active; 'I' for Inactive)
REMARK    1  A    between atoms: O_3  and  C_9
REMARK    2  A    between atoms: O_4  and  C_10
REMARK    3  A    between atoms: N_7  and  C_13
REMARK    4  A    between atoms: N_8  and  C_18
REMARK    5  A    between atoms: C_11  and  C_13
REMARK    6  A    between atoms: C_12  and  C_14
REMARK    7  A    between atoms: C_14  and  C_15
REMARK    8  A    between atoms: C_16  and  C_17
REMARK    9  A    between atoms: C_18  and  C_23
REMARK                            x       y       z     vdW  Elec       q    Type
REMARK                         _______ _______ _______ _____ _____    ______ ____
ROOT
ATOM      2  O   UNL     1      -3.316   2.974  26.353  0.00  0.00    -0.366 OA
ATOM      9  C   UNL     1      -3.044   4.816  24.872  0.00  0.00    +0.176 C 
ATOM     10  C   UNL     1      -1.802   3.951  24.833  0.00  0.00    +0.175 C 
ATOM     11  C   UNL     1      -4.065   3.877  25.508  0.00  0.00    +0.167 C 
ATOM     12  C   UNL     1      -1.911   3.202  26.150  0.00  0.00    +0.158 C 
ENDROOT
BRANCH   9   3
ATOM      3  O   UNL     1      -2.851   5.922  25.754  0.00  0.00    -0.387 OA
ATOM     26  H   UNL     1      -3.550   6.570  25.565  0.00  0.00    +0.210 HD
ENDBRANCH   9   3
BRANCH  10   4
ATOM      4  O   UNL     1      -0.605   4.694  24.743  0.00  0.00    -0.387 OA
ATOM     27  H   UNL     1      -0.835   5.576  24.403  0.00  0.00    +0.210 HD
ENDBRANCH  10   4
BRANCH  11  13
ATOM     13  C   UNL     1      -4.820   3.039  24.486  0.00  0.00    +0.138 C 
BRANCH  13   7
ATOM      6  O   UNL     1      -2.976   1.538  22.878  0.00  0.00    -0.270 OA
ATOM      7  N   UNL     1      -4.503   1.648  24.620  0.00  0.00    -0.309 N 
ATOM     16  C   UNL     1      -3.592   0.997  23.793  0.00  0.00    +0.244 C 
ATOM     28  H   UNL     1      -5.020   1.131  25.323  0.00  0.00    +0.149 HD
BRANCH  16  17
ATOM      1  F   UNL     1      -0.807  -2.721  25.230  0.00  0.00    -0.205 F 
ATOM     17  C   UNL     1      -3.393  -0.452  24.046  0.00  0.00    +0.039 A 
ATOM     19  C   UNL     1      -2.169  -0.915  24.529  0.00  0.00    +0.051 A 
ATOM     20  C   UNL     1      -4.431  -1.352  23.801  0.00  0.00    +0.013 A 
ATOM     21  C   UNL     1      -1.982  -2.277  24.766  0.00  0.00    +0.124 A 
ATOM     22  C   UNL     1      -4.244  -2.714  24.038  0.00  0.00    +0.004 A 
ATOM     24  C   UNL     1      -3.020  -3.176  24.521  0.00  0.00    +0.038 A 
ENDBRANCH  16  17
ENDBRANCH  13   7
ENDBRANCH  11  13
BRANCH  12  14
ATOM     14  C   UNL     1      -1.173   1.874  26.150  0.00  0.00    +0.130 C 
BRANCH  14  15
ATOM      5  O   UNL     1       1.111   2.673  26.122  0.00  0.00    -0.276 OA
ATOM      8  N   UNL     1       0.392   1.237  24.443  0.00  0.00    -0.304 N 
ATOM     15  C   UNL     1       0.236   1.990  25.596  0.00  0.00    +0.216 C 
ATOM     29  H   UNL     1      -0.393   0.692  24.096  0.00  0.00    +0.150 HD
BRANCH   8  18
ATOM     18  C   UNL     1       1.633   1.168  23.707  0.00  0.00    +0.193 C 
BRANCH  18  23
ATOM     23  C   UNL     1       1.546   0.197  22.616  0.00  0.00    -0.087 C 
ATOM     25  C   UNL     1       1.477  -0.597  21.719  0.00  0.00    +0.005 C 
ENDBRANCH  18  23
ENDBRANCH   8  18
ENDBRANCH  14  15
ENDBRANCH  12  14
TORSDOF 9
ENDMDL
MODEL 8
REMARK VINA RESULT:      -3.3      1.539      2.167
REMARK  Name = 25390318
REMARK  9 active torsions:
REMARK  status: ('A' for Active; 'I' for Inactive)
REMARK    1  A    between atoms: O_3  and  C_9
REMARK    2  A    between atoms: O_4  and  C_10
REMARK    3  A    between atoms: N_7  and  C_13
REMARK    4  A    between atoms: N_8  and  C_18
REMARK    5  A    between atoms: C_11  and  C_13
REMARK    6  A    between atoms: C_12  and  C_14
REMARK    7  A    between atoms: C_14  and  C_15
REMARK    8  A    between atoms: C_16  and  C_17
REMARK    9  A    between atoms: C_18  and  C_23
REMARK                            x       y       z     vdW  Elec       q    Type
REMARK                         _______ _______ _______ _____ _____    ______ ____
ROOT
ATOM      2  O   UNL     1      -1.882   3.420  26.678  0.00  0.00    -0.366 OA
ATOM      9  C   UNL     1      -1.970   4.865  24.790  0.00  0.00    +0.176 C 
ATOM     10  C   UNL     1      -1.031   3.712  24.498  0.00  0.00    +0.175 C 
ATOM     11  C   UNL     1      -2.758   4.338  25.985  0.00  0.00    +0.167 C 
ATOM     12  C   UNL     1      -0.686   3.239  25.900  0.00  0.00    +0.158 C 
ENDROOT
BRANCH   9   3
ATOM      3  O   UNL     1      -1.231   6.010  25.218  0.00  0.00    -0.387 OA
ATOM     26  H   UNL     1      -0.943   6.485  24.420  0.00  0.00    +0.210 HD
ENDBRANCH   9   3
BRANCH  10   4
ATOM      4  O   UNL     1       0.115   4.095  23.770  0.00  0.00    -0.387 OA
ATOM     27  H   UNL     1       0.624   4.709  24.329  0.00  0.00    +0.210 HD
ENDBRANCH  10   4
BRANCH  11  13
ATOM     13  C   UNL     1      -4.010   3.572  25.581  0.00  0.00    +0.138 C 
BRANCH  13   7
ATOM      6  O   UNL     1      -5.884   1.527  24.841  0.00  0.00    -0.270 OA
ATOM      7  N   UNL     1      -3.736   2.173  25.434  0.00  0.00    -0.309 N 
ATOM     16  C   UNL     1      -4.710   1.246  25.070  0.00  0.00    +0.244 C 
ATOM     28  H   UNL     1      -2.797   1.868  25.663  0.00  0.00    +0.149 HD
BRANCH  16  17
ATOM      1  F   UNL     1      -4.591  -3.033  22.765  0.00  0.00    -0.205 F 
ATOM     17  C   UNL     1      -4.271  -0.170  24.986  0.00  0.00    +0.039 A 
ATOM     19  C   UNL     1      -4.645  -0.952  23.893  0.00  0.00    +0.051 A 
ATOM     20  C   UNL     1      -3.486  -0.718  26.000  0.00  0.00    +0.013 A 
ATOM     21  C   UNL     1      -4.233  -2.282  23.815  0.00  0.00    +0.124 A 
ATOM     22  C   UNL     1      -3.075  -2.049  25.922  0.00  0.00    +0.004 A 
ATOM     24  C   UNL     1      -3.448  -2.830  24.828  0.00  0.00    +0.038 A 
ENDBRANCH  16  17
ENDBRANCH  13   7
ENDBRANCH  11  13
BRANCH  12  14
ATOM     14  C   UNL     1      -0.256   1.783  25.954  0.00  0.00    +0.130 C 
BRANCH  14  15
ATOM      5  O   UNL     1       0.549   0.355  24.175  0.00  0.00    -0.276 OA
ATOM      8  N   UNL     1      -1.491   1.439  23.923  0.00  0.00    -0.304 N 
ATOM     15  C   UNL     1      -0.327   1.104  24.599  0.00  0.00    +0.216 C 
ATOM     29  H   UNL     1      -2.163   2.057  24.370  0.00  0.00    +0.150 HD
BRANCH   8  18
ATOM     18  C   UNL     1      -1.815   0.933  22.609  0.00  0.00    +0.193 C 
BRANCH  18  23
ATOM     23  C   UNL     1      -2.585   1.912  21.843  0.00  0.00    -0.087 C 
ATOM     25  C   UNL     1      -3.216   2.715  21.211  0.00  0.00    +0.005 C 
ENDBRANCH  18  23
ENDBRANCH   8  18
ENDBRANCH  14  15
ENDBRANCH  12  14
TORSDOF 9
ENDMDL
MODEL 9
REMARK VINA RESULT:      -3.1      2.250      4.981
REMARK  Name = 25390318
REMARK  9 active torsions:
REMARK  status: ('A' for Active; 'I' for Inactive)
REMARK    1  A    between atoms: O_3  and  C_9
REMARK    2  A    between atoms: O_4  and  C_10
REMARK    3  A    between atoms: N_7  and  C_13
REMARK    4  A    between atoms: N_8  and  C_18
REMARK    5  A    between atoms: C_11  and  C_13
REMARK    6  A    between atoms: C_12  and  C_14
REMARK    7  A    between atoms: C_14  and  C_15
REMARK    8  A    between atoms: C_16  and  C_17
REMARK    9  A    between atoms: C_18  and  C_23
REMARK                            x       y       z     vdW  Elec       q    Type
REMARK                         _______ _______ _______ _____ _____    ______ ____
ROOT
ATOM      2  O   UNL     1      -3.603   2.216  24.149  0.00  0.00    -0.366 OA
ATOM      9  C   UNL     1      -4.286   4.073  25.469  0.00  0.00    +0.176 C 
ATOM     10  C   UNL     1      -4.878   2.802  26.044  0.00  0.00    +0.175 C 
ATOM     11  C   UNL     1      -3.177   3.530  24.574  0.00  0.00    +0.167 C 
ATOM     12  C   UNL     1      -4.811   1.868  24.848  0.00  0.00    +0.158 C 
ENDROOT
BRANCH   9   3
ATOM      3  O   UNL     1      -5.242   4.733  24.639  0.00  0.00    -0.387 OA
ATOM     26  H   UNL     1      -6.098   4.293  24.775  0.00  0.00    +0.210 HD
ENDBRANCH   9   3
BRANCH  10   4
ATOM      4  O   UNL     1      -6.197   2.964  26.518  0.00  0.00    -0.387 OA
ATOM     27  H   UNL     1      -6.798   2.652  25.819  0.00  0.00    +0.210 HD
ENDBRANCH  10   4
BRANCH  11  13
ATOM     13  C   UNL     1      -1.848   3.377  25.300  0.00  0.00    +0.138 C 
BRANCH  13   7
ATOM      6  O   UNL     1      -0.654   0.794  25.680  0.00  0.00    -0.270 OA
ATOM      7  N   UNL     1      -0.867   2.756  24.460  0.00  0.00    -0.309 N 
ATOM     16  C   UNL     1      -0.340   1.493  24.720  0.00  0.00    +0.244 C 
ATOM     28  H   UNL     1      -0.524   3.305  23.680  0.00  0.00    +0.149 HD
BRANCH  16  17
ATOM      1  F   UNL     1       0.934  -1.146  20.840  0.00  0.00    -0.205 F 
ATOM     17  C   UNL     1       0.687   1.001  23.767  0.00  0.00    +0.039 A 
ATOM     19  C   UNL     1       0.321   0.141  22.730  0.00  0.00    +0.051 A 
ATOM     20  C   UNL     1       2.017   1.398  23.907  0.00  0.00    +0.013 A 
ATOM     21  C   UNL     1       1.285  -0.321  21.835  0.00  0.00    +0.124 A 
ATOM     22  C   UNL     1       2.981   0.934  23.012  0.00  0.00    +0.004 A 
ATOM     24  C   UNL     1       2.615   0.075  21.976  0.00  0.00    +0.038 A 
ENDBRANCH  16  17
ENDBRANCH  13   7
ENDBRANCH  11  13
BRANCH  12  14
ATOM     14  C   UNL     1      -4.774   0.399  25.233  0.00  0.00    +0.130 C 
BRANCH  14  15
ATOM      5  O   UNL     1      -3.546  -0.068  23.201  0.00  0.00    -0.276 OA
ATOM      8  N   UNL     1      -3.429  -1.574  24.968  0.00  0.00    -0.304 N 
ATOM     15  C   UNL     1      -3.856  -0.414  24.338  0.00  0.00    +0.216 C 
ATOM     29  H   UNL     1      -3.732  -1.762  25.920  0.00  0.00    +0.150 HD
BRANCH   8  18
ATOM     18  C   UNL     1      -2.548  -2.533  24.342  0.00  0.00    +0.193 C 
BRANCH  18  23
ATOM     23  C   UNL     1      -1.189  -2.421  24.869  0.00  0.00    -0.087 C 
ATOM     25  C   UNL     1      -0.074  -2.328  25.305  0.00  0.00    +0.005 C 
ENDBRANCH  18  23
ENDBRANCH   8  18
ENDBRANCH  14  15
ENDBRANCH  12  14
TORSDOF 9
ENDMDL
MODEL 10
REMARK VINA RESULT:      -2.9      2.026      5.025
REMARK  Name = 25390318
REMARK  9 active torsions:
REMARK  status: ('A' for Active; 'I' for Inactive)
REMARK    1  A    between atoms: O_3  and  C_9
REMARK    2  A    between atoms: O_4  and  C_10
REMARK    3  A    between atoms: N_7  and  C_13
REMARK    4  A    between atoms: N_8  and  C_18
REMARK    5  A    between atoms: C_11  and  C_13
REMARK    6  A    between atoms: C_12  and  C_14
REMARK    7  A    between atoms: C_14  and  C_15
REMARK    8  A    between atoms: C_16  and  C_17
REMARK    9  A    between atoms: C_18  and  C_23
REMARK                            x       y       z     vdW  Elec       q    Type
REMARK                         _______ _______ _______ _____ _____    ______ ____
ROOT
ATOM      2  O   UNL     1      -0.825   2.986  23.290  0.00  0.00    -0.366 OA
ATOM      9  C   UNL     1      -0.389   4.096  25.349  0.00  0.00    +0.176 C 
ATOM     10  C   UNL     1      -1.806   3.562  25.355  0.00  0.00    +0.175 C 
ATOM     11  C   UNL     1       0.244   3.301  24.211  0.00  0.00    +0.167 C 
ATOM     12  C   UNL     1      -2.076   3.397  23.869  0.00  0.00    +0.158 C 
ENDROOT
BRANCH   9   3
ATOM      3  O   UNL     1      -0.380   5.476  24.983  0.00  0.00    -0.387 OA
ATOM     26  H   UNL     1       0.333   5.600  24.334  0.00  0.00    +0.210 HD
ENDBRANCH   9   3
BRANCH  10   4
ATOM      4  O   UNL     1      -2.730   4.435  25.968  0.00  0.00    -0.387 OA
ATOM     27  H   UNL     1      -2.299   4.810  26.756  0.00  0.00    +0.210 HD
ENDBRANCH  10   4
BRANCH  11  13
ATOM     13  C   UNL     1       0.863   1.989  24.673  0.00  0.00    +0.138 C 
BRANCH  13   7
ATOM      6  O   UNL     1       0.465  -0.472  23.250  0.00  0.00    -0.270 OA
ATOM      7  N   UNL     1      -0.145   1.004  24.932  0.00  0.00    -0.309 N 
ATOM     16  C   UNL     1      -0.266  -0.167  24.188  0.00  0.00    +0.244 C 
ATOM     28  H   UNL     1      -0.817   1.223  25.659  0.00  0.00    +0.149 HD
BRANCH  16  17
ATOM      1  F   UNL     1      -4.417  -1.030  26.570  0.00  0.00    -0.205 F 
ATOM     17  C   UNL     1      -1.380  -1.073  24.566  0.00  0.00    +0.039 A 
ATOM     19  C   UNL     1      -2.396  -0.617  25.408  0.00  0.00    +0.051 A 
ATOM     20  C   UNL     1      -1.411  -2.381  24.081  0.00  0.00    +0.013 A 
ATOM     21  C   UNL     1      -3.441  -1.469  25.763  0.00  0.00    +0.124 A 
ATOM     22  C   UNL     1      -2.457  -3.232  24.437  0.00  0.00    +0.004 A 
ATOM     24  C   UNL     1      -3.472  -2.775  25.278  0.00  0.00    +0.038 A 
ENDBRANCH  16  17
ENDBRANCH  13   7
ENDBRANCH  11  13
BRANCH  12  14
ATOM     14  C   UNL     1      -3.145   2.362  23.563  0.00  0.00    +0.130 C 
BRANCH  14  15
ATOM      5  O   UNL     1      -4.833   3.895  24.371  0.00  0.00    -0.276 OA
ATOM      8  N   UNL     1      -5.288   1.617  24.352  0.00  0.00    -0.304 N 
ATOM     15  C   UNL     1      -4.500   2.737  24.136  0.00  0.00    +0.216 C 
ATOM     29  H   UNL     1      -4.924   0.699  24.108  0.00  0.00    +0.150 HD
BRANCH   8  18
ATOM     18  C   UNL     1      -6.626   1.685  24.893  0.00  0.00    +0.193 C 
BRANCH  18  23
ATOM     23  C   UNL     1      -6.609   1.598  26.353  0.00  0.00    -0.087 C 
ATOM     25  C   UNL     1      -6.600   1.526  27.551  0.00  0.00    +0.005 C 
ENDBRANCH  18  23
ENDBRANCH   8  18
ENDBRANCH  14  15
ENDBRANCH  12  14
TORSDOF 9
ENDMDL
