MODEL 1
REMARK VINA RESULT:       5.8      0.000      0.000
REMARK  Name = 25312749
REMARK  7 active torsions:
REMARK  status: ('A' for Active; 'I' for Inactive)
REMARK    1  A    between atoms: O_3  and  C_30
REMARK    2  A    between atoms: N_5  and  C_17
REMARK    3  A    between atoms: N_8  and  C_27
REMARK    4  A    between atoms: C_13  and  C_18
REMARK    5  A    between atoms: C_15  and  C_23
REMARK    6  A    between atoms: C_17  and  C_18
REMARK    7  A    between atoms: C_23  and  C_30
REMARK                            x       y       z     vdW  Elec       q    Type
REMARK                         _______ _______ _______ _____ _____    ______ ____
ROOT
ATOM      2  O   UNL     1       2.822  -1.231  22.454  0.00  0.00    -0.253 OA
ATOM      7  N   UNL     1       0.898   0.003  22.846  0.00  0.00    -0.285 N 
ATOM      8  N   UNL     1       3.029   1.028  22.792  0.00  0.00    -0.296 N 
ATOM     13  C   UNL     1      -0.602   1.167  24.440  0.00  0.00    +0.011 C 
ATOM     15  C   UNL     1      -1.530  -0.075  24.418  0.00  0.00    +0.006 C 
ATOM     20  C   UNL     1       0.174   1.255  23.114  0.00  0.00    +0.113 C 
ATOM     21  C   UNL     1      -0.763  -1.357  24.044  0.00  0.00    +0.023 C 
ATOM     22  C   UNL     1       0.035  -1.174  22.754  0.00  0.00    +0.109 C 
ATOM     26  C   UNL     1       2.285  -0.141  22.680  0.00  0.00    +0.302 C 
ATOM     36  H   UNL     1       2.601   1.878  23.131  0.00  0.00    +0.151 HD
ENDROOT
BRANCH   8  27
ATOM     27  C   UNL     1       4.468   1.040  22.653  0.00  0.00    +0.074 C 
ATOM     31  C   UNL     1       5.140   1.553  23.932  0.00  0.00    +0.022 C 
ATOM     32  C   UNL     1       4.996  -0.346  22.267  0.00  0.00    +0.022 C 
ATOM     33  C   UNL     1       5.054   0.549  25.081  0.00  0.00    +0.002 C 
ATOM     34  C   UNL     1       4.910  -1.347  23.419  0.00  0.00    +0.002 C 
ATOM     35  C   UNL     1       5.595  -0.819  24.676  0.00  0.00    +0.000 C 
ENDBRANCH   8  27
BRANCH  13  18
ATOM     18  C   UNL     1       0.365   1.204  25.630  0.00  0.00    +0.020 C 
BRANCH  18  17
ATOM     17  C   UNL     1       0.162   2.459  26.473  0.00  0.00    +0.085 C 
BRANCH  17   5
ATOM      1  O   UNL     1      -4.239   2.792  22.183  0.00  0.00    -0.268 OA
ATOM      5  N   UNL     1      -0.996   3.210  25.994  0.00  0.00    -0.301 NA
ATOM      6  N   UNL     1      -3.683   3.589  24.314  0.00  0.00    -0.312 N 
ATOM      9  C   UNL     1      -1.773   5.242  24.745  0.00  0.00    +0.024 C 
ATOM     10  C   UNL     1      -3.101   4.401  26.625  0.00  0.00    +0.050 C 
ATOM     11  C   UNL     1      -2.617   5.675  25.937  0.00  0.00    +0.017 C 
ATOM     12  C   UNL     1      -0.578   4.389  25.225  0.00  0.00    +0.089 C 
ATOM     14  C   UNL     1      -1.883   3.579  27.107  0.00  0.00    +0.094 C 
ATOM     16  C   UNL     1      -2.670   4.492  23.751  0.00  0.00    +0.130 C 
ATOM     19  C   UNL     1      -3.959   3.575  25.685  0.00  0.00    +0.026 A 
ATOM     24  C   UNL     1      -4.965   2.823  26.165  0.00  0.00    +0.022 A 
ATOM     25  C   UNL     1      -4.422   2.815  23.401  0.00  0.00    +0.251 A 
ATOM     28  C   UNL     1      -5.754   2.006  25.286  0.00  0.00    +0.007 A 
ATOM     29  C   UNL     1      -5.512   1.976  23.973  0.00  0.00    +0.070 A 
ENDBRANCH  17   5
ENDBRANCH  18  17
ENDBRANCH  13  18
BRANCH  15  23
ATOM     23  C   UNL     1      -2.302  -0.270  25.723  0.00  0.00    +0.124 C 
BRANCH  23  30
ATOM      4  O   UNL     1      -3.468  -2.344  26.257  0.00  0.00    -0.251 OA
ATOM     30  C   UNL     1      -3.364  -1.326  25.588  0.00  0.00    +0.305 C 
BRANCH  30   3
ATOM      3  O   UNL     1      -4.221  -0.988  24.590  0.00  0.00    -0.481 OA
ATOM     37  H   UNL     1      -3.747  -0.670  23.792  0.00  0.00    +0.295 HD
ENDBRANCH  30   3
ENDBRANCH  23  30
ENDBRANCH  15  23
TORSDOF 7
ENDMDL
MODEL 2
REMARK VINA RESULT:       7.4      1.811      5.365
REMARK  Name = 25312749
REMARK  7 active torsions:
REMARK  status: ('A' for Active; 'I' for Inactive)
REMARK    1  A    between atoms: O_3  and  C_30
REMARK    2  A    between atoms: N_5  and  C_17
REMARK    3  A    between atoms: N_8  and  C_27
REMARK    4  A    between atoms: C_13  and  C_18
REMARK    5  A    between atoms: C_15  and  C_23
REMARK    6  A    between atoms: C_17  and  C_18
REMARK    7  A    between atoms: C_23  and  C_30
REMARK                            x       y       z     vdW  Elec       q    Type
REMARK                         _______ _______ _______ _____ _____    ______ ____
ROOT
ATOM      2  O   UNL     1      -1.757   0.195  21.769  0.00  0.00    -0.253 OA
ATOM      7  N   UNL     1       0.248  -0.542  22.670  0.00  0.00    -0.285 N 
ATOM      8  N   UNL     1      -1.664  -0.217  24.023  0.00  0.00    -0.296 N 
ATOM     13  C   UNL     1       2.322  -0.059  23.940  0.00  0.00    +0.011 C 
ATOM     15  C   UNL     1       3.084   0.033  22.592  0.00  0.00    +0.006 C 
ATOM     20  C   UNL     1       1.103  -0.985  23.782  0.00  0.00    +0.113 C 
ATOM     21  C   UNL     1       2.146   0.409  21.430  0.00  0.00    +0.023 C 
ATOM     22  C   UNL     1       0.928  -0.512  21.375  0.00  0.00    +0.109 C 
ATOM     26  C   UNL     1      -1.102  -0.166  22.752  0.00  0.00    +0.302 C 
ATOM     36  H   UNL     1      -1.082  -0.359  24.836  0.00  0.00    +0.151 HD
ENDROOT
BRANCH   8  27
ATOM     27  C   UNL     1      -3.041   0.148  24.270  0.00  0.00    +0.074 C 
ATOM     31  C   UNL     1      -3.982  -0.557  23.286  0.00  0.00    +0.022 C 
ATOM     32  C   UNL     1      -3.437  -0.143  25.721  0.00  0.00    +0.022 C 
ATOM     33  C   UNL     1      -4.113  -2.053  23.572  0.00  0.00    +0.002 C 
ATOM     34  C   UNL     1      -3.569  -1.641  26.003  0.00  0.00    +0.002 C 
ATOM     35  C   UNL     1      -4.519  -2.316  25.018  0.00  0.00    +0.000 C 
ENDBRANCH   8  27
BRANCH  13  18
ATOM     18  C   UNL     1       1.893   1.298  24.510  0.00  0.00    +0.020 C 
BRANCH  18  17
ATOM     17  C   UNL     1       0.636   1.169  25.366  0.00  0.00    +0.085 C 
BRANCH  17   5
ATOM      1  O   UNL     1      -4.490   2.944  22.459  0.00  0.00    -0.268 OA
ATOM      5  N   UNL     1      -0.273   2.282  25.102  0.00  0.00    -0.301 NA
ATOM      6  N   UNL     1      -3.041   3.578  24.186  0.00  0.00    -0.312 N 
ATOM      9  C   UNL     1      -0.643   4.385  23.787  0.00  0.00    +0.024 C 
ATOM     10  C   UNL     1      -1.507   4.226  26.074  0.00  0.00    +0.050 C 
ATOM     11  C   UNL     1      -0.853   5.174  25.073  0.00  0.00    +0.017 C 
ATOM     12  C   UNL     1       0.263   3.165  24.059  0.00  0.00    +0.089 C 
ATOM     14  C   UNL     1      -0.569   3.025  26.336  0.00  0.00    +0.094 C 
ATOM     16  C   UNL     1      -2.013   3.988  23.220  0.00  0.00    +0.130 C 
ATOM     19  C   UNL     1      -2.852   3.746  25.562  0.00  0.00    +0.026 A 
ATOM     24  C   UNL     1      -3.849   3.468  26.420  0.00  0.00    +0.022 A 
ATOM     25  C   UNL     1      -4.255   3.101  23.657  0.00  0.00    +0.251 A 
ATOM     28  C   UNL     1      -5.110   2.974  25.945  0.00  0.00    +0.007 A 
ATOM     29  C   UNL     1      -5.326   2.781  24.641  0.00  0.00    +0.070 A 
ENDBRANCH  17   5
ENDBRANCH  18  17
ENDBRANCH  13  18
BRANCH  15  23
ATOM     23  C   UNL     1       4.283   0.980  22.644  0.00  0.00    +0.124 C 
BRANCH  23  30
ATOM      4  O   UNL     1       6.349  -0.272  22.969  0.00  0.00    -0.251 OA
ATOM     30  C   UNL     1       5.424   0.387  23.422  0.00  0.00    +0.305 C 
BRANCH  30   3
ATOM      3  O   UNL     1       5.288   0.689  24.739  0.00  0.00    -0.481 OA
ATOM     37  H   UNL     1       4.419   1.101  24.932  0.00  0.00    +0.295 HD
ENDBRANCH  30   3
ENDBRANCH  23  30
ENDBRANCH  15  23
TORSDOF 7
ENDMDL
MODEL 3
REMARK VINA RESULT:       8.8      2.044      4.117
REMARK  Name = 25312749
REMARK  7 active torsions:
REMARK  status: ('A' for Active; 'I' for Inactive)
REMARK    1  A    between atoms: O_3  and  C_30
REMARK    2  A    between atoms: N_5  and  C_17
REMARK    3  A    between atoms: N_8  and  C_27
REMARK    4  A    between atoms: C_13  and  C_18
REMARK    5  A    between atoms: C_15  and  C_23
REMARK    6  A    between atoms: C_17  and  C_18
REMARK    7  A    between atoms: C_23  and  C_30
REMARK                            x       y       z     vdW  Elec       q    Type
REMARK                         _______ _______ _______ _____ _____    ______ ____
ROOT
ATOM      2  O   UNL     1       0.764   0.545  22.010  0.00  0.00    -0.253 OA
ATOM      7  N   UNL     1       0.623   2.071  23.751  0.00  0.00    -0.285 N 
ATOM      8  N   UNL     1       2.315   0.420  23.695  0.00  0.00    -0.296 N 
ATOM     13  C   UNL     1      -0.029   2.589  26.087  0.00  0.00    +0.011 C 
ATOM     15  C   UNL     1      -1.320   3.252  25.541  0.00  0.00    +0.006 C 
ATOM     20  C   UNL     1       1.078   2.660  25.020  0.00  0.00    +0.113 C 
ATOM     21  C   UNL     1      -1.722   2.681  24.169  0.00  0.00    +0.023 C 
ATOM     22  C   UNL     1      -0.555   2.724  23.182  0.00  0.00    +0.109 C 
ATOM     26  C   UNL     1       1.204   0.984  23.078  0.00  0.00    +0.302 C 
ATOM     36  H   UNL     1       2.567   0.681  24.637  0.00  0.00    +0.151 HD
ENDROOT
BRANCH   8  27
ATOM     27  C   UNL     1       3.017  -0.710  23.128  0.00  0.00    +0.074 C 
ATOM     31  C   UNL     1       3.798  -0.301  21.874  0.00  0.00    +0.022 C 
ATOM     32  C   UNL     1       3.937  -1.365  24.165  0.00  0.00    +0.022 C 
ATOM     33  C   UNL     1       5.021   0.556  22.201  0.00  0.00    +0.002 C 
ATOM     34  C   UNL     1       5.160  -0.506  24.487  0.00  0.00    +0.002 C 
ATOM     35  C   UNL     1       5.925  -0.120  23.225  0.00  0.00    +0.000 C 
ENDBRANCH   8  27
BRANCH  13  18
ATOM     18  C   UNL     1      -0.221   1.144  26.562  0.00  0.00    +0.020 C 
BRANCH  18  17
ATOM     17  C   UNL     1      -0.394   0.189  25.385  0.00  0.00    +0.085 C 
BRANCH  17   5
ATOM      1  O   UNL     1      -6.136   1.272  27.316  0.00  0.00    -0.268 OA
ATOM      5  N   UNL     1      -1.810  -0.097  25.167  0.00  0.00    -0.301 NA
ATOM      6  N   UNL     1      -4.936   0.463  25.474  0.00  0.00    -0.312 N 
ATOM      9  C   UNL     1      -3.660  -1.758  25.492  0.00  0.00    +0.024 C 
ATOM     10  C   UNL     1      -3.636  -0.359  23.481  0.00  0.00    +0.050 C 
ATOM     11  C   UNL     1      -3.944  -1.762  23.996  0.00  0.00    +0.017 C 
ATOM     12  C   UNL     1      -2.181  -1.393  25.748  0.00  0.00    +0.089 C 
ATOM     14  C   UNL     1      -2.147  -0.030  23.737  0.00  0.00    +0.094 C 
ATOM     16  C   UNL     1      -4.633  -0.790  26.179  0.00  0.00    +0.130 C 
ATOM     19  C   UNL     1      -4.528   0.669  24.152  0.00  0.00    +0.026 A 
ATOM     24  C   UNL     1      -4.911   1.775  23.491  0.00  0.00    +0.022 A 
ATOM     25  C   UNL     1      -5.733   1.399  26.159  0.00  0.00    +0.251 A 
ATOM     28  C   UNL     1      -5.721   2.771  24.134  0.00  0.00    +0.007 A 
ATOM     29  C   UNL     1      -6.116   2.623  25.401  0.00  0.00    +0.070 A 
ENDBRANCH  17   5
ENDBRANCH  18  17
ENDBRANCH  13  18
BRANCH  15  23
ATOM     23  C   UNL     1      -2.492   3.178  26.520  0.00  0.00    +0.124 C 
BRANCH  23  30
ATOM      4  O   UNL     1      -4.462   4.555  26.929  0.00  0.00    -0.251 OA
ATOM     30  C   UNL     1      -3.335   4.421  26.472  0.00  0.00    +0.305 C 
BRANCH  30   3
ATOM      3  O   UNL     1      -2.660   5.409  25.831  0.00  0.00    -0.481 OA
ATOM     37  H   UNL     1      -2.982   5.538  24.914  0.00  0.00    +0.295 HD
ENDBRANCH  30   3
ENDBRANCH  23  30
ENDBRANCH  15  23
TORSDOF 7
ENDMDL
