MODEL 1
REMARK VINA RESULT:      -2.6      0.000      0.000
REMARK  Name = 51136654
REMARK  8 active torsions:
REMARK  status: ('A' for Active; 'I' for Inactive)
REMARK    1  A    between atoms: O_2  and  C_22
REMARK    2  A    between atoms: O_4  and  C_30
REMARK    3  A    between atoms: O_4  and  C_31
REMARK    4  A    between atoms: C_7  and  C_12
REMARK    5  A    between atoms: C_8  and  C_14
REMARK    6  A    between atoms: C_12  and  C_21
REMARK    7  A    between atoms: C_13  and  C_15
REMARK    8  A    between atoms: C_14  and  C_22
REMARK                            x       y       z     vdW  Elec       q    Type
REMARK                         _______ _______ _______ _____ _____    ______ ____
ROOT
ATOM      1  O   UNL     1      14.607  -8.559  25.638  0.00  0.00    -0.275 OA
ATOM      5  N   UNL     1      16.390  -7.178  26.197  0.00  0.00    -0.301 N 
ATOM      7  C   UNL     1      17.329  -5.174  27.326  0.00  0.00    +0.016 C 
ATOM      8  C   UNL     1      17.405  -4.477  25.944  0.00  0.00    +0.006 C 
ATOM      9  C   UNL     1      17.404  -6.701  27.146  0.00  0.00    +0.112 C 
ATOM     10  C   UNL     1      16.360  -5.042  24.967  0.00  0.00    +0.023 C 
ATOM     11  C   UNL     1      16.455  -6.563  24.871  0.00  0.00    +0.108 C 
ATOM     15  C   UNL     1      15.433  -8.157  26.462  0.00  0.00    +0.219 C 
ENDROOT
BRANCH  15  13
ATOM     13  C   UNL     1      15.429  -8.735  27.844  0.00  0.00    +0.075 C 
ATOM     16  C   UNL     1      14.892 -10.167  27.789  0.00  0.00    +0.013 C 
ATOM     17  C   UNL     1      14.590  -7.858  28.774  0.00  0.00    +0.013 C 
ATOM     18  C   UNL     1      14.772 -10.775  29.184  0.00  0.00    +0.001 C 
ATOM     19  C   UNL     1      14.475  -8.469  30.168  0.00  0.00    +0.001 C 
ATOM     20  C   UNL     1      13.939  -9.897  30.113  0.00  0.00    +0.000 C 
ENDBRANCH  15  13
BRANCH   7  12
ATOM     12  C   UNL     1      16.091  -4.794  28.148  0.00  0.00    +0.061 C 
BRANCH  12  21
ATOM      6  N   UNL     1      16.504  -6.106  30.117  0.00  0.00    -0.287 NA
ATOM     21  C   UNL     1      16.397  -4.917  29.622  0.00  0.00    +0.044 C 
ATOM     23  C   UNL     1      16.552  -3.678  30.426  0.00  0.00    -0.001 A 
ATOM     24  C   UNL     1      16.448  -3.811  31.817  0.00  0.00    -0.033 A 
ATOM     25  C   UNL     1      16.860  -6.226  31.534  0.00  0.00    +0.146 C 
ATOM     26  C   UNL     1      16.174  -5.170  32.391  0.00  0.00    +0.059 C 
ATOM     27  C   UNL     1      16.778  -2.427  29.849  0.00  0.00    +0.013 A 
ATOM     28  C   UNL     1      16.544  -2.678  32.627  0.00  0.00    +0.050 A 
ATOM     29  C   UNL     1      16.889  -1.303  30.668  0.00  0.00    +0.046 A 
ATOM     30  C   UNL     1      16.769  -1.426  32.053  0.00  0.00    +0.120 A 
BRANCH  30   4
ATOM      4  O   UNL     1      16.871  -0.323  32.845  0.00  0.00    -0.495 OA
ATOM     31  C   UNL     1      17.184   0.911  32.200  0.00  0.00    +0.277 C 
ENDBRANCH  30   4
ENDBRANCH  12  21
ENDBRANCH   7  12
BRANCH   8  14
ATOM     14  C   UNL     1      17.293  -2.955  26.031  0.00  0.00    +0.124 C 
BRANCH  14  22
ATOM      3  O   UNL     1      15.465  -2.779  24.427  0.00  0.00    -0.251 OA
ATOM     22  C   UNL     1      16.537  -2.387  24.861  0.00  0.00    +0.305 C 
BRANCH  22   2
ATOM      2  O   UNL     1      17.230  -1.344  24.333  0.00  0.00    -0.481 OA
ATOM     32  H   UNL     1      18.134  -1.609  24.058  0.00  0.00    +0.295 HD
ENDBRANCH  22   2
ENDBRANCH  14  22
ENDBRANCH   8  14
TORSDOF 7
ENDMDL
