MODEL 1
REMARK VINA RESULT:       8.7      0.000      0.000
REMARK  Name = 26742127
REMARK  9 active torsions:
REMARK  status: ('A' for Active; 'I' for Inactive)
REMARK    1  A    between atoms: O_2  and  C_12
REMARK    2  A    between atoms: O_5  and  C_27
REMARK    3  A    between atoms: O_5  and  C_30
REMARK    4  A    between atoms: N_8  and  C_11
REMARK    5  A    between atoms: N_9  and  C_20
REMARK    6  A    between atoms: C_18  and  C_19
REMARK    7  A    between atoms: C_30  and  C_32
REMARK    8  A    between atoms: C_33  and  C_35
REMARK    9  A    between atoms: C_34  and  C_36
REMARK                            x       y       z     vdW  Elec       q    Type
REMARK                         _______ _______ _______ _____ _____    ______ ____
ROOT
ATOM      3  O   UNL     1      -6.586   1.242  25.756  0.00  0.00    -0.252 OA
ATOM      7  N   UNL     1      -5.329   3.096  26.325  0.00  0.00    -0.284 N 
ATOM      9  N   UNL     1      -4.304   0.979  26.099  0.00  0.00    -0.269 N 
ATOM     11  C   UNL     1      -3.331   4.256  25.321  0.00  0.00    +0.119 C 
ATOM     12  C   UNL     1      -4.214   4.783  24.176  0.00  0.00    +0.136 C 
ATOM     13  C   UNL     1      -5.448   5.587  24.601  0.00  0.00    +0.035 C 
ATOM     14  C   UNL     1      -4.061   3.789  26.588  0.00  0.00    +0.134 C 
ATOM     15  C   UNL     1      -6.647   4.708  24.962  0.00  0.00    +0.022 C 
ATOM     16  C   UNL     1      -6.509   3.963  26.284  0.00  0.00    +0.109 C 
ATOM     17  C   UNL     1      -5.484   1.719  26.037  0.00  0.00    +0.307 C 
ATOM     39  H   UNL     1      -3.557   1.323  26.693  0.00  0.00    +0.156 HD
ENDROOT
BRANCH   9  20
ATOM      1  F   UNL     1      -2.976  -3.562  23.204  0.00  0.00    -0.205 F 
ATOM     20  C   UNL     1      -3.964  -0.182  25.359  0.00  0.00    +0.035 A 
ATOM     25  C   UNL     1      -3.569  -1.342  26.025  0.00  0.00    +0.026 A 
ATOM     26  C   UNL     1      -4.024  -0.164  23.965  0.00  0.00    +0.026 A 
ATOM     28  C   UNL     1      -3.234  -2.484  25.297  0.00  0.00    +0.040 A 
ATOM     29  C   UNL     1      -3.690  -1.305  23.237  0.00  0.00    +0.040 A 
ATOM     31  C   UNL     1      -3.295  -2.465  23.903  0.00  0.00    +0.124 A 
ENDBRANCH   9  20
BRANCH  11   8
ATOM      4  O   UNL     1      -0.994   3.181  26.594  0.00  0.00    -0.270 OA
ATOM      8  N   UNL     1      -2.473   3.205  24.809  0.00  0.00    -0.305 N 
ATOM     18  C   UNL     1      -1.366   2.756  25.503  0.00  0.00    +0.244 C 
ATOM     37  H   UNL     1      -2.779   2.727  23.968  0.00  0.00    +0.149 HD
BRANCH  18  19
ATOM     19  C   UNL     1      -0.574   1.693  24.831  0.00  0.00    +0.037 A 
ATOM     21  C   UNL     1       0.331   2.029  23.824  0.00  0.00    +0.016 A 
ATOM     22  C   UNL     1      -0.739   0.360  25.205  0.00  0.00    +0.016 A 
ATOM     23  C   UNL     1       1.072   1.031  23.192  0.00  0.00    +0.046 A 
ATOM     24  C   UNL     1       0.004  -0.638  24.573  0.00  0.00    +0.046 A 
ATOM     27  C   UNL     1       0.909  -0.302  23.566  0.00  0.00    +0.121 A 
BRANCH  27   5
ATOM      5  O   UNL     1       1.633  -1.277  22.950  0.00  0.00    -0.487 OA
BRANCH   5  30
ATOM     30  C   UNL     1       2.701  -0.854  22.104  0.00  0.00    +0.269 C 
BRANCH  30  32
ATOM      6  O   UNL     1       5.569  -0.434  24.388  0.00  0.00    -0.359 OA
ATOM     10  N   UNL     1       5.458   0.873  23.929  0.00  0.00    -0.083 NA
ATOM     32  C   UNL     1       3.861  -0.427  22.955  0.00  0.00    +0.054 A 
ATOM     33  C   UNL     1       4.613  -1.198  23.802  0.00  0.00    +0.141 A 
ATOM     34  C   UNL     1       4.431   0.852  23.075  0.00  0.00    +0.087 A 
ATOM     35  C   UNL     1       4.590  -2.617  24.179  0.00  0.00    +0.089 C 
ATOM     36  C   UNL     1       4.028   2.093  22.391  0.00  0.00    +0.069 C 
ENDBRANCH  30  32
ENDBRANCH   5  30
ENDBRANCH  27   5
ENDBRANCH  18  19
ENDBRANCH  11   8
BRANCH  12   2
ATOM      2  O   UNL     1      -3.407   5.651  23.367  0.00  0.00    -0.390 OA
ATOM     38  H   UNL     1      -3.368   6.515  23.811  0.00  0.00    +0.210 HD
ENDBRANCH  12   2
TORSDOF 7
ENDMDL
MODEL 2
REMARK VINA RESULT:      12.5      2.285      7.946
REMARK  Name = 26742127
REMARK  9 active torsions:
REMARK  status: ('A' for Active; 'I' for Inactive)
REMARK    1  A    between atoms: O_2  and  C_12
REMARK    2  A    between atoms: O_5  and  C_27
REMARK    3  A    between atoms: O_5  and  C_30
REMARK    4  A    between atoms: N_8  and  C_11
REMARK    5  A    between atoms: N_9  and  C_20
REMARK    6  A    between atoms: C_18  and  C_19
REMARK    7  A    between atoms: C_30  and  C_32
REMARK    8  A    between atoms: C_33  and  C_35
REMARK    9  A    between atoms: C_34  and  C_36
REMARK                            x       y       z     vdW  Elec       q    Type
REMARK                         _______ _______ _______ _____ _____    ______ ____
ROOT
ATOM      3  O   UNL     1       2.020  -2.458  25.457  0.00  0.00    -0.252 OA
ATOM      7  N   UNL     1       2.981  -1.768  23.471  0.00  0.00    -0.284 N 
ATOM      9  N   UNL     1       0.630  -1.800  23.716  0.00  0.00    -0.269 N 
ATOM     11  C   UNL     1       2.885   0.341  22.098  0.00  0.00    +0.119 C 
ATOM     12  C   UNL     1       3.735   1.067  23.155  0.00  0.00    +0.136 C 
ATOM     13  C   UNL     1       5.082   0.417  23.489  0.00  0.00    +0.035 C 
ATOM     14  C   UNL     1       2.927  -1.192  22.120  0.00  0.00    +0.134 C 
ATOM     15  C   UNL     1       4.971  -0.708  24.521  0.00  0.00    +0.022 C 
ATOM     16  C   UNL     1       4.330  -1.987  23.996  0.00  0.00    +0.109 C 
ATOM     17  C   UNL     1       1.870  -2.042  24.305  0.00  0.00    +0.307 C 
ATOM     39  H   UNL     1       0.567  -1.848  22.704  0.00  0.00    +0.156 HD
ENDROOT
BRANCH   9  20
ATOM      1  F   UNL     1      -4.083  -0.253  26.199  0.00  0.00    -0.205 F 
ATOM     20  C   UNL     1      -0.574  -1.405  24.351  0.00  0.00    +0.035 A 
ATOM     25  C   UNL     1      -0.537  -0.516  25.425  0.00  0.00    +0.026 A 
ATOM     26  C   UNL     1      -1.796  -1.905  23.902  0.00  0.00    +0.026 A 
ATOM     28  C   UNL     1      -1.722  -0.127  26.050  0.00  0.00    +0.040 A 
ATOM     29  C   UNL     1      -2.982  -1.517  24.526  0.00  0.00    +0.040 A 
ATOM     31  C   UNL     1      -2.945  -0.628  25.600  0.00  0.00    +0.124 A 
ENDBRANCH   9  20
BRANCH  11   8
ATOM      4  O   UNL     1       1.677   1.685  24.328  0.00  0.00    -0.270 OA
ATOM      8  N   UNL     1       1.518   0.816  22.185  0.00  0.00    -0.305 N 
ATOM     18  C   UNL     1       1.030   1.455  23.309  0.00  0.00    +0.244 C 
ATOM     37  H   UNL     1       0.955   0.763  21.342  0.00  0.00    +0.149 HD
BRANCH  18  19
ATOM     19  C   UNL     1      -0.399   1.855  23.251  0.00  0.00    +0.037 A 
ATOM     21  C   UNL     1      -1.266   1.222  22.360  0.00  0.00    +0.016 A 
ATOM     22  C   UNL     1      -0.875   2.865  24.088  0.00  0.00    +0.016 A 
ATOM     23  C   UNL     1      -2.607   1.599  22.304  0.00  0.00    +0.046 A 
ATOM     24  C   UNL     1      -2.217   3.242  24.032  0.00  0.00    +0.046 A 
ATOM     27  C   UNL     1      -3.083   2.608  23.141  0.00  0.00    +0.121 A 
BRANCH  27   5
ATOM      5  O   UNL     1      -4.393   2.976  23.087  0.00  0.00    -0.487 OA
BRANCH   5  30
ATOM     30  C   UNL     1      -4.825   3.970  24.016  0.00  0.00    +0.269 C 
BRANCH  30  32
ATOM      6  O   UNL     1      -5.262   2.723  27.462  0.00  0.00    -0.359 OA
ATOM     10  N   UNL     1      -6.213   1.939  26.820  0.00  0.00    -0.083 NA
ATOM     32  C   UNL     1      -5.190   3.304  25.311  0.00  0.00    +0.054 A 
ATOM     33  C   UNL     1      -4.660   3.531  26.553  0.00  0.00    +0.141 A 
ATOM     34  C   UNL     1      -6.151   2.303  25.536  0.00  0.00    +0.087 A 
ATOM     35  C   UNL     1      -3.621   4.432  27.069  0.00  0.00    +0.089 C 
ATOM     36  C   UNL     1      -7.040   1.661  24.554  0.00  0.00    +0.069 C 
ENDBRANCH  30  32
ENDBRANCH   5  30
ENDBRANCH  27   5
ENDBRANCH  18  19
ENDBRANCH  11   8
BRANCH  12   2
ATOM      2  O   UNL     1       4.018   2.384  22.660  0.00  0.00    -0.390 OA
ATOM     38  H   UNL     1       4.338   2.292  21.746  0.00  0.00    +0.210 HD
ENDBRANCH  12   2
TORSDOF 7
ENDMDL
