MODEL 1
REMARK VINA RESULT:       4.9      0.000      0.000
REMARK  Name = 45783936
REMARK  10 active torsions:
REMARK  status: ('A' for Active; 'I' for Inactive)
REMARK    1  A    between atoms: N_2  and  C_13
REMARK    2  A    between atoms: C_8  and  C_12
REMARK    3  A    between atoms: C_9  and  C_13
REMARK    4  A    between atoms: C_11  and  C_16
REMARK    5  A    between atoms: C_12  and  C_17
REMARK    6  A    between atoms: C_12  and  C_18
REMARK    7  A    between atoms: C_15  and  C_21
REMARK    8  A    between atoms: C_16  and  C_24
REMARK    9  A    between atoms: C_26  and  C_27
REMARK   10  A    between atoms: C_35  and  C_36
REMARK                            x       y       z     vdW  Elec       q    Type
REMARK                         _______ _______ _______ _____ _____    ______ ____
ROOT
ATOM      8  C   UNL     1      -2.016   4.288  23.802  0.00  0.00    +0.000 C 
ATOM      9  C   UNL     1      -1.367   3.188  24.673  0.00  0.00    +0.029 C 
ATOM     10  C   UNL     1      -3.532   4.339  24.041  0.00  0.00    +0.012 C 
ATOM     11  C   UNL     1      -3.910   4.566  25.520  0.00  0.00    +0.024 C 
ATOM     14  C   UNL     1      -1.892   3.184  26.087  0.00  0.00    -0.023 C 
ATOM     15  C   UNL     1      -3.017   3.803  26.487  0.00  0.00    -0.073 C 
ATOM     21  C   UNL     1      -3.404   3.810  27.941  0.00  0.00    +0.039 C 
ENDROOT
BRANCH   8  12
ATOM     12  C   UNL     1      -1.369   5.656  24.053  0.00  0.00    -0.013 C 
ATOM     17  C   UNL     1      -2.249   6.502  24.968  0.00  0.00    +0.007 C 
ATOM     18  C   UNL     1       0.024   5.484  24.649  0.00  0.00    +0.007 C 
ENDBRANCH   8  12
BRANCH   9  13
ATOM     13  C   UNL     1      -1.557   1.795  24.063  0.00  0.00    +0.092 C 
BRANCH  13   2
ATOM      2  N   UNL     1      -0.298   1.298  23.510  0.00  0.00    -0.299 NA
ATOM      3  N   UNL     1       2.367   0.275  23.602  0.00  0.00    -0.297 N 
ATOM      6  N   UNL     1       3.861  -1.506  23.825  0.00  0.00    -0.223 NA
ATOM      7  N   UNL     1       4.623   0.678  23.149  0.00  0.00    -0.223 NA
ATOM     19  C   UNL     1      -0.045  -0.076  23.960  0.00  0.00    +0.103 C 
ATOM     20  C   UNL     1       0.816   2.167  23.905  0.00  0.00    +0.103 C 
ATOM     22  C   UNL     1       1.243  -0.629  23.343  0.00  0.00    +0.123 C 
ATOM     23  C   UNL     1       2.131   1.689  23.285  0.00  0.00    +0.123 C 
ATOM     25  C   UNL     1       3.679  -0.207  23.522  0.00  0.00    +0.218 A 
ATOM     28  C   UNL     1       5.137  -1.937  23.738  0.00  0.00    +0.116 A 
ATOM     29  C   UNL     1       5.875   0.179  23.083  0.00  0.00    +0.116 A 
ATOM     30  C   UNL     1       6.194  -1.133  23.369  0.00  0.00    +0.039 A 
ENDBRANCH  13   2
ENDBRANCH   9  13
BRANCH  11  16
ATOM     16  C   UNL     1      -5.398   4.243  25.700  0.00  0.00    +0.105 C 
BRANCH  16  24
ATOM      1  O   UNL     1      -4.629   1.960  25.308  0.00  0.00    -0.420 OA
ATOM      4  N   UNL     1      -6.842   2.224  25.127  0.00  0.00    -0.112 NA
ATOM      5  N   UNL     1      -6.550   0.896  24.882  0.00  0.00    -0.107 NA
ATOM     24  C   UNL     1      -5.692   2.807  25.371  0.00  0.00    +0.218 A 
ATOM     26  C   UNL     1      -5.247   0.788  24.999  0.00  0.00    +0.248 A 
BRANCH  26  27
ATOM     27  C   UNL     1      -4.391  -0.354  24.853  0.00  0.00    +0.038 A 
ATOM     31  C   UNL     1      -3.343  -0.558  25.750  0.00  0.00    +0.013 A 
ATOM     32  C   UNL     1      -4.606  -1.260  23.814  0.00  0.00    +0.013 A 
ATOM     33  C   UNL     1      -2.509  -1.668  25.608  0.00  0.00    +0.004 A 
ATOM     34  C   UNL     1      -3.773  -2.369  23.673  0.00  0.00    +0.004 A 
ATOM     35  C   UNL     1      -2.725  -2.573  24.569  0.00  0.00    -0.050 A 
ATOM     36  C   UNL     1      -1.834  -3.760  24.418  0.00  0.00    +0.044 C 
ENDBRANCH  26  27
ENDBRANCH  16  24
ENDBRANCH  11  16
TORSDOF 6
ENDMDL
MODEL 2
REMARK VINA RESULT:       8.1      1.849      6.704
REMARK  Name = 45783936
REMARK  10 active torsions:
REMARK  status: ('A' for Active; 'I' for Inactive)
REMARK    1  A    between atoms: N_2  and  C_13
REMARK    2  A    between atoms: C_8  and  C_12
REMARK    3  A    between atoms: C_9  and  C_13
REMARK    4  A    between atoms: C_11  and  C_16
REMARK    5  A    between atoms: C_12  and  C_17
REMARK    6  A    between atoms: C_12  and  C_18
REMARK    7  A    between atoms: C_15  and  C_21
REMARK    8  A    between atoms: C_16  and  C_24
REMARK    9  A    between atoms: C_26  and  C_27
REMARK   10  A    between atoms: C_35  and  C_36
REMARK                            x       y       z     vdW  Elec       q    Type
REMARK                         _______ _______ _______ _____ _____    ______ ____
ROOT
ATOM      8  C   UNL     1      -2.630   4.723  25.665  0.00  0.00    +0.000 C 
ATOM      9  C   UNL     1      -3.882   4.689  24.759  0.00  0.00    +0.029 C 
ATOM     10  C   UNL     1      -2.054   3.311  25.842  0.00  0.00    +0.012 C 
ATOM     11  C   UNL     1      -1.701   2.623  24.507  0.00  0.00    +0.024 C 
ATOM     14  C   UNL     1      -3.695   3.811  23.548  0.00  0.00    -0.023 C 
ATOM     15  C   UNL     1      -2.722   2.892  23.411  0.00  0.00    -0.073 C 
ATOM     21  C   UNL     1      -2.573   2.130  22.122  0.00  0.00    +0.039 C 
ENDROOT
BRANCH   8  12
ATOM     12  C   UNL     1      -1.571   5.690  25.120  0.00  0.00    -0.013 C 
ATOM     17  C   UNL     1      -0.334   4.922  24.663  0.00  0.00    +0.007 C 
ATOM     18  C   UNL     1      -2.145   6.521  23.978  0.00  0.00    +0.007 C 
ENDBRANCH   8  12
BRANCH   9  13
ATOM     13  C   UNL     1      -5.126   4.228  25.526  0.00  0.00    +0.092 C 
BRANCH  13   2
ATOM      2  N   UNL     1      -5.271   2.775  25.449  0.00  0.00    -0.299 NA
ATOM      3  N   UNL     1      -4.424   0.092  24.960  0.00  0.00    -0.297 N 
ATOM      6  N   UNL     1      -3.365  -1.871  25.655  0.00  0.00    -0.223 NA
ATOM      7  N   UNL     1      -4.643  -1.803  23.612  0.00  0.00    -0.223 NA
ATOM     19  C   UNL     1      -4.334   2.114  26.364  0.00  0.00    +0.103 C 
ATOM     20  C   UNL     1      -5.044   2.308  24.076  0.00  0.00    +0.103 C 
ATOM     22  C   UNL     1      -4.514   0.593  26.334  0.00  0.00    +0.123 C 
ATOM     23  C   UNL     1      -5.250   0.795  23.970  0.00  0.00    +0.123 C 
ATOM     25  C   UNL     1      -4.129  -1.258  24.731  0.00  0.00    +0.218 A 
ATOM     28  C   UNL     1      -3.101  -3.170  25.403  0.00  0.00    +0.116 A 
ATOM     29  C   UNL     1      -4.339  -3.104  23.424  0.00  0.00    +0.116 A 
ATOM     30  C   UNL     1      -3.565  -3.845  24.294  0.00  0.00    +0.039 A 
ENDBRANCH  13   2
ENDBRANCH   9  13
BRANCH  11  16
ATOM     16  C   UNL     1      -1.488   1.127  24.768  0.00  0.00    +0.105 C 
BRANCH  16  24
ATOM      1  O   UNL     1       0.837   0.642  24.207  0.00  0.00    -0.420 OA
ATOM      4  N   UNL     1      -0.638  -0.054  22.678  0.00  0.00    -0.112 NA
ATOM      5  N   UNL     1       0.626  -0.392  22.234  0.00  0.00    -0.107 NA
ATOM     24  C   UNL     1      -0.467   0.546  23.832  0.00  0.00    +0.218 A 
ATOM     26  C   UNL     1       1.456   0.034  23.158  0.00  0.00    +0.248 A 
BRANCH  26  27
ATOM     27  C   UNL     1       2.886  -0.041  23.231  0.00  0.00    +0.038 A 
ATOM     31  C   UNL     1       3.499  -1.197  23.715  0.00  0.00    +0.013 A 
ATOM     32  C   UNL     1       3.665   1.040  22.818  0.00  0.00    +0.013 A 
ATOM     33  C   UNL     1       4.891  -1.270  23.787  0.00  0.00    +0.004 A 
ATOM     34  C   UNL     1       5.055   0.966  22.889  0.00  0.00    +0.004 A 
ATOM     35  C   UNL     1       5.668  -0.188  23.373  0.00  0.00    -0.050 A 
ATOM     36  C   UNL     1       7.156  -0.267  23.450  0.00  0.00    +0.044 C 
ENDBRANCH  26  27
ENDBRANCH  16  24
ENDBRANCH  11  16
TORSDOF 6
ENDMDL
MODEL 3
REMARK VINA RESULT:       8.6      2.567      5.094
REMARK  Name = 45783936
REMARK  10 active torsions:
REMARK  status: ('A' for Active; 'I' for Inactive)
REMARK    1  A    between atoms: N_2  and  C_13
REMARK    2  A    between atoms: C_8  and  C_12
REMARK    3  A    between atoms: C_9  and  C_13
REMARK    4  A    between atoms: C_11  and  C_16
REMARK    5  A    between atoms: C_12  and  C_17
REMARK    6  A    between atoms: C_12  and  C_18
REMARK    7  A    between atoms: C_15  and  C_21
REMARK    8  A    between atoms: C_16  and  C_24
REMARK    9  A    between atoms: C_26  and  C_27
REMARK   10  A    between atoms: C_35  and  C_36
REMARK                            x       y       z     vdW  Elec       q    Type
REMARK                         _______ _______ _______ _____ _____    ______ ____
ROOT
ATOM      8  C   UNL     1      -4.612   1.456  25.586  0.00  0.00    +0.000 C 
ATOM      9  C   UNL     1      -3.850   0.401  24.751  0.00  0.00    +0.029 C 
ATOM     10  C   UNL     1      -3.865   2.797  25.570  0.00  0.00    +0.012 C 
ATOM     11  C   UNL     1      -3.623   3.345  24.148  0.00  0.00    +0.024 C 
ATOM     14  C   UNL     1      -3.350   0.951  23.440  0.00  0.00    -0.023 C 
ATOM     15  C   UNL     1      -3.253   2.261  23.146  0.00  0.00    -0.073 C 
ATOM     21  C   UNL     1      -2.824   2.702  21.774  0.00  0.00    +0.039 C 
ENDROOT
BRANCH   8  12
ATOM     12  C   UNL     1      -6.057   1.620  25.097  0.00  0.00    -0.013 C 
ATOM     17  C   UNL     1      -6.519   0.360  24.370  0.00  0.00    +0.007 C 
ATOM     18  C   UNL     1      -6.982   1.940  26.266  0.00  0.00    +0.007 C 
ENDBRANCH   8  12
BRANCH   9  13
ATOM     13  C   UNL     1      -2.671  -0.194  25.528  0.00  0.00    +0.092 C 
BRANCH  13   2
ATOM      2  N   UNL     1      -1.518  -0.385  24.650  0.00  0.00    -0.299 NA
ATOM      3  N   UNL     1       1.242  -0.313  23.917  0.00  0.00    -0.297 N 
ATOM      6  N   UNL     1       3.377  -1.259  23.919  0.00  0.00    -0.223 NA
ATOM      7  N   UNL     1       2.868   0.659  22.552  0.00  0.00    -0.223 NA
ATOM     19  C   UNL     1      -0.566  -1.328  25.249  0.00  0.00    +0.103 C 
ATOM     20  C   UNL     1      -0.854   0.897  24.387  0.00  0.00    +0.103 C 
ATOM     22  C   UNL     1       0.621  -1.580  24.314  0.00  0.00    +0.123 C 
ATOM     23  C   UNL     1       0.321   0.719  23.423  0.00  0.00    +0.123 C 
ATOM     25  C   UNL     1       2.558  -0.304  23.441  0.00  0.00    +0.218 A 
ATOM     28  C   UNL     1       4.637  -1.221  23.438  0.00  0.00    +0.116 A 
ATOM     29  C   UNL     1       4.144   0.638  22.113  0.00  0.00    +0.116 A 
ATOM     30  C   UNL     1       5.082  -0.287  22.525  0.00  0.00    +0.039 A 
ENDBRANCH  13   2
ENDBRANCH   9  13
BRANCH  11  16
ATOM     16  C   UNL     1      -2.580   4.466  24.226  0.00  0.00    +0.105 C 
BRANCH  16  24
ATOM      1  O   UNL     1      -1.106   3.710  26.017  0.00  0.00    -0.420 OA
ATOM      4  N   UNL     1      -0.170   3.677  23.986  0.00  0.00    -0.112 NA
ATOM      5  N   UNL     1       0.769   3.228  24.895  0.00  0.00    -0.107 NA
ATOM     24  C   UNL     1      -1.248   3.946  24.685  0.00  0.00    +0.218 A 
ATOM     26  C   UNL     1       0.179   3.264  26.067  0.00  0.00    +0.248 A 
BRANCH  26  27
ATOM     27  C   UNL     1       0.671   2.913  27.368  0.00  0.00    +0.038 A 
ATOM     31  C   UNL     1       2.040   2.951  27.629  0.00  0.00    +0.013 A 
ATOM     32  C   UNL     1      -0.220   2.534  28.373  0.00  0.00    +0.013 A 
ATOM     33  C   UNL     1       2.519   2.609  28.894  0.00  0.00    +0.004 A 
ATOM     34  C   UNL     1       0.258   2.192  29.637  0.00  0.00    +0.004 A 
ATOM     35  C   UNL     1       1.627   2.230  29.898  0.00  0.00    -0.050 A 
ATOM     36  C   UNL     1       2.139   1.864  31.250  0.00  0.00    +0.044 C 
ENDBRANCH  26  27
ENDBRANCH  16  24
ENDBRANCH  11  16
TORSDOF 6
ENDMDL
