MODEL 1
REMARK VINA RESULT:       3.1      0.000      0.000
REMARK  Name = 40778218
REMARK  10 active torsions:
REMARK  status: ('A' for Active; 'I' for Inactive)
REMARK    1  A    between atoms: O_3  and  C_13
REMARK    2  A    between atoms: O_4  and  C_14
REMARK    3  A    between atoms: O_6  and  C_25
REMARK    4  A    between atoms: O_6  and  C_31
REMARK    5  A    between atoms: N_9  and  C_23
REMARK    6  A    between atoms: N_10  and  C_17
REMARK    7  A    between atoms: N_11  and  C_30
REMARK    8  A    between atoms: C_12  and  C_16
REMARK    9  A    between atoms: C_15  and  C_17
REMARK   10  A    between atoms: C_16  and  C_18
REMARK                            x       y       z     vdW  Elec       q    Type
REMARK                         _______ _______ _______ _____ _____    ______ ____
ROOT
ATOM      2  O   UNL     1      -2.825   3.968  23.687  0.00  0.00    -0.366 OA
ATOM     12  C   UNL     1      -2.381   4.921  24.670  0.00  0.00    +0.159 C 
ATOM     13  C   UNL     1      -0.942   4.547  24.982  0.00  0.00    +0.175 C 
ATOM     14  C   UNL     1      -0.449   4.077  23.629  0.00  0.00    +0.176 C 
ATOM     15  C   UNL     1      -1.669   3.341  23.087  0.00  0.00    +0.167 C 
ENDROOT
BRANCH  13   3
ATOM      3  O   UNL     1      -0.211   5.641  25.495  0.00  0.00    -0.387 OA
ATOM     37  H   UNL     1      -0.463   6.427  24.978  0.00  0.00    +0.210 HD
ENDBRANCH  13   3
BRANCH  14   4
ATOM      4  O   UNL     1      -0.191   5.193  22.780  0.00  0.00    -0.387 OA
ATOM     38  H   UNL     1       0.362   5.817  23.279  0.00  0.00    +0.210 HD
ENDBRANCH  14   4
BRANCH  12  16
ATOM     16  C   UNL     1      -3.294   4.869  25.882  0.00  0.00    +0.130 C 
BRANCH  16  18
ATOM      5  O   UNL     1      -5.528   4.573  25.147  0.00  0.00    -0.276 OA
ATOM      8  N   UNL     1      -4.388   2.659  25.799  0.00  0.00    -0.298 N 
ATOM      9  N   UNL     1      -3.906  -0.017  25.043  0.00  0.00    -0.324 N 
ATOM     18  C   UNL     1      -4.507   4.028  25.575  0.00  0.00    +0.218 C 
ATOM     19  C   UNL     1      -3.196   1.975  26.305  0.00  0.00    +0.126 C 
ATOM     20  C   UNL     1      -5.520   1.770  25.551  0.00  0.00    +0.126 C 
ATOM     21  C   UNL     1      -2.768   0.859  25.352  0.00  0.00    +0.124 C 
ATOM     22  C   UNL     1      -5.131   0.656  24.583  0.00  0.00    +0.124 C 
BRANCH   9  23
ATOM     23  C   UNL     1      -3.672  -1.321  24.591  0.00  0.00    +0.072 A 
ATOM     25  C   UNL     1      -2.467  -1.964  24.873  0.00  0.00    +0.141 A 
ATOM     26  C   UNL     1      -4.659  -1.977  23.856  0.00  0.00    +0.027 A 
ATOM     27  C   UNL     1      -2.248  -3.265  24.417  0.00  0.00    +0.047 A 
ATOM     28  C   UNL     1      -4.440  -3.278  23.402  0.00  0.00    +0.002 A 
ATOM     29  C   UNL     1      -3.235  -3.921  23.682  0.00  0.00    +0.004 A 
BRANCH  25   6
ATOM      6  O   UNL     1      -1.491  -1.340  25.589  0.00  0.00    -0.493 OA
ATOM     31  C   UNL     1      -0.145  -1.737  25.333  0.00  0.00    +0.277 C 
ENDBRANCH  25   6
ENDBRANCH   9  23
ENDBRANCH  16  18
ENDBRANCH  12  16
BRANCH  15  17
ATOM     17  C   UNL     1      -1.691   1.865  23.464  0.00  0.00    +0.140 C 
BRANCH  17  10
ATOM      7  O   UNL     1       0.918   1.675  24.630  0.00  0.00    -0.253 OA
ATOM     10  N   UNL     1      -0.559   1.176  22.921  0.00  0.00    -0.297 N 
ATOM     11  N   UNL     1       1.603   0.386  22.792  0.00  0.00    -0.269 N 
ATOM     24  C   UNL     1       0.695   1.126  23.553  0.00  0.00    +0.304 C 
ATOM     39  H   UNL     1      -0.673   0.689  22.037  0.00  0.00    +0.150 HD
ATOM     40  H   UNL     1       1.256  -0.004  21.918  0.00  0.00    +0.156 HD
BRANCH  11  30
ATOM      1  F   UNL     1       5.032  -2.675  24.177  0.00  0.00    -0.205 F 
ATOM     30  C   UNL     1       2.958   0.108  23.086  0.00  0.00    +0.037 A 
ATOM     32  C   UNL     1       3.334  -1.171  23.494  0.00  0.00    +0.061 A 
ATOM     33  C   UNL     1       3.918   1.114  22.968  0.00  0.00    +0.023 A 
ATOM     34  C   UNL     1       4.671  -1.446  23.785  0.00  0.00    +0.125 A 
ATOM     35  C   UNL     1       5.255   0.839  23.258  0.00  0.00    +0.005 A 
ATOM     36  C   UNL     1       5.631  -0.441  23.668  0.00  0.00    +0.038 A 
ENDBRANCH  11  30
ENDBRANCH  17  10
ENDBRANCH  15  17
TORSDOF 9
ENDMDL
MODEL 2
REMARK VINA RESULT:       4.3      3.061      5.924
REMARK  Name = 40778218
REMARK  10 active torsions:
REMARK  status: ('A' for Active; 'I' for Inactive)
REMARK    1  A    between atoms: O_3  and  C_13
REMARK    2  A    between atoms: O_4  and  C_14
REMARK    3  A    between atoms: O_6  and  C_25
REMARK    4  A    between atoms: O_6  and  C_31
REMARK    5  A    between atoms: N_9  and  C_23
REMARK    6  A    between atoms: N_10  and  C_17
REMARK    7  A    between atoms: N_11  and  C_30
REMARK    8  A    between atoms: C_12  and  C_16
REMARK    9  A    between atoms: C_15  and  C_17
REMARK   10  A    between atoms: C_16  and  C_18
REMARK                            x       y       z     vdW  Elec       q    Type
REMARK                         _______ _______ _______ _____ _____    ______ ____
ROOT
ATOM      2  O   UNL     1      -4.229   1.164  24.093  0.00  0.00    -0.366 OA
ATOM     12  C   UNL     1      -4.956   0.547  25.170  0.00  0.00    +0.159 C 
ATOM     13  C   UNL     1      -5.368   1.684  26.090  0.00  0.00    +0.175 C 
ATOM     14  C   UNL     1      -5.639   2.795  25.097  0.00  0.00    +0.176 C 
ATOM     15  C   UNL     1      -4.534   2.577  24.068  0.00  0.00    +0.167 C 
ENDROOT
BRANCH  13   3
ATOM      3  O   UNL     1      -6.494   1.348  26.873  0.00  0.00    -0.387 OA
ATOM     37  H   UNL     1      -6.554   2.004  27.591  0.00  0.00    +0.210 HD
ENDBRANCH  13   3
BRANCH  14   4
ATOM      4  O   UNL     1      -6.893   2.590  24.451  0.00  0.00    -0.387 OA
ATOM     38  H   UNL     1      -7.589   2.861  25.072  0.00  0.00    +0.210 HD
ENDBRANCH  14   4
BRANCH  12  16
ATOM     16  C   UNL     1      -4.081  -0.491  25.849  0.00  0.00    +0.130 C 
BRANCH  16  18
ATOM      5  O   UNL     1      -4.165  -1.949  23.983  0.00  0.00    -0.276 OA
ATOM      8  N   UNL     1      -2.063  -1.517  24.867  0.00  0.00    -0.298 N 
ATOM      9  N   UNL     1       0.588  -0.900  24.123  0.00  0.00    -0.324 N 
ATOM     18  C   UNL     1      -3.448  -1.386  24.814  0.00  0.00    +0.218 C 
ATOM     19  C   UNL     1      -1.179  -0.867  25.837  0.00  0.00    +0.126 C 
ATOM     20  C   UNL     1      -1.367  -2.382  23.919  0.00  0.00    +0.126 C 
ATOM     21  C   UNL     1      -0.090  -0.066  25.124  0.00  0.00    +0.124 C 
ATOM     22  C   UNL     1      -0.286  -1.605  23.171  0.00  0.00    +0.124 C 
BRANCH   9  23
ATOM     23  C   UNL     1       1.874  -0.554  23.690  0.00  0.00    +0.072 A 
ATOM     25  C   UNL     1       2.103   0.662  23.049  0.00  0.00    +0.141 A 
ATOM     26  C   UNL     1       2.930  -1.439  23.909  0.00  0.00    +0.027 A 
ATOM     27  C   UNL     1       3.390   0.994  22.624  0.00  0.00    +0.047 A 
ATOM     28  C   UNL     1       4.216  -1.106  23.485  0.00  0.00    +0.002 A 
ATOM     29  C   UNL     1       4.447   0.110  22.842  0.00  0.00    +0.004 A 
BRANCH  25   6
ATOM      6  O   UNL     1       1.085   1.539  22.825  0.00  0.00    -0.493 OA
ATOM     31  C   UNL     1       0.894   2.570  23.793  0.00  0.00    +0.277 C 
ENDBRANCH  25   6
ENDBRANCH   9  23
ENDBRANCH  16  18
ENDBRANCH  12  16
BRANCH  15  17
ATOM     17  C   UNL     1      -3.255   3.335  24.397  0.00  0.00    +0.140 C 
BRANCH  17  10
ATOM      7  O   UNL     1      -0.986   4.350  25.819  0.00  0.00    -0.253 OA
ATOM     10  N   UNL     1      -2.477   2.638  25.378  0.00  0.00    -0.297 N 
ATOM     11  N   UNL     1      -0.813   2.292  26.935  0.00  0.00    -0.269 N 
ATOM     24  C   UNL     1      -1.373   3.204  26.036  0.00  0.00    +0.304 C 
ATOM     39  H   UNL     1      -2.747   1.688  25.615  0.00  0.00    +0.150 HD
ATOM     40  H   UNL     1      -1.256   1.378  26.993  0.00  0.00    +0.156 HD
BRANCH  11  30
ATOM      1  F   UNL     1       1.193   2.160  31.294  0.00  0.00    -0.205 F 
ATOM     30  C   UNL     1       0.304   2.481  27.781  0.00  0.00    +0.037 A 
ATOM     32  C   UNL     1       0.195   2.222  29.147  0.00  0.00    +0.061 A 
ATOM     33  C   UNL     1       1.515   2.927  27.249  0.00  0.00    +0.023 A 
ATOM     34  C   UNL     1       1.297   2.409  29.982  0.00  0.00    +0.125 A 
ATOM     35  C   UNL     1       2.617   3.114  28.084  0.00  0.00    +0.005 A 
ATOM     36  C   UNL     1       2.508   2.856  29.451  0.00  0.00    +0.038 A 
ENDBRANCH  11  30
ENDBRANCH  17  10
ENDBRANCH  15  17
TORSDOF 9
ENDMDL
MODEL 3
REMARK VINA RESULT:       5.2      1.992      5.798
REMARK  Name = 40778218
REMARK  10 active torsions:
REMARK  status: ('A' for Active; 'I' for Inactive)
REMARK    1  A    between atoms: O_3  and  C_13
REMARK    2  A    between atoms: O_4  and  C_14
REMARK    3  A    between atoms: O_6  and  C_25
REMARK    4  A    between atoms: O_6  and  C_31
REMARK    5  A    between atoms: N_9  and  C_23
REMARK    6  A    between atoms: N_10  and  C_17
REMARK    7  A    between atoms: N_11  and  C_30
REMARK    8  A    between atoms: C_12  and  C_16
REMARK    9  A    between atoms: C_15  and  C_17
REMARK   10  A    between atoms: C_16  and  C_18
REMARK                            x       y       z     vdW  Elec       q    Type
REMARK                         _______ _______ _______ _____ _____    ______ ____
ROOT
ATOM      2  O   UNL     1      -5.147   3.124  26.665  0.00  0.00    -0.366 OA
ATOM     12  C   UNL     1      -4.127   3.966  26.100  0.00  0.00    +0.159 C 
ATOM     13  C   UNL     1      -4.571   4.248  24.674  0.00  0.00    +0.175 C 
ATOM     14  C   UNL     1      -6.075   4.327  24.835  0.00  0.00    +0.176 C 
ATOM     15  C   UNL     1      -6.342   3.229  25.859  0.00  0.00    +0.167 C 
ENDROOT
BRANCH  13   3
ATOM      3  O   UNL     1      -3.999   5.435  24.167  0.00  0.00    -0.387 OA
ATOM     37  H   UNL     1      -3.528   5.867  24.901  0.00  0.00    +0.210 HD
ENDBRANCH  13   3
BRANCH  14   4
ATOM      4  O   UNL     1      -6.447   5.575  25.416  0.00  0.00    -0.387 OA
ATOM     38  H   UNL     1      -7.172   5.941  24.881  0.00  0.00    +0.210 HD
ENDBRANCH  14   4
BRANCH  12  16
ATOM     16  C   UNL     1      -2.782   3.268  26.185  0.00  0.00    +0.130 C 
BRANCH  16  18
ATOM      5  O   UNL     1      -1.644   5.215  25.458  0.00  0.00    -0.276 OA
ATOM      8  N   UNL     1      -1.029   3.217  24.449  0.00  0.00    -0.298 N 
ATOM      9  N   UNL     1       1.227   1.733  23.632  0.00  0.00    -0.324 N 
ATOM     18  C   UNL     1      -1.771   3.994  25.335  0.00  0.00    +0.218 C 
ATOM     19  C   UNL     1      -1.150   1.769  24.274  0.00  0.00    +0.126 C 
ATOM     20  C   UNL     1      -0.043   3.840  23.570  0.00  0.00    +0.126 C 
ATOM     21  C   UNL     1       0.205   1.086  24.466  0.00  0.00    +0.124 C 
ATOM     22  C   UNL     1       1.329   3.196  23.754  0.00  0.00    +0.124 C 
BRANCH   9  23
ATOM     23  C   UNL     1       2.387   1.027  23.288  0.00  0.00    +0.072 A 
ATOM     25  C   UNL     1       2.302  -0.230  22.691  0.00  0.00    +0.141 A 
ATOM     26  C   UNL     1       3.634   1.595  23.546  0.00  0.00    +0.027 A 
ATOM     27  C   UNL     1       3.465  -0.921  22.353  0.00  0.00    +0.047 A 
ATOM     28  C   UNL     1       4.797   0.904  23.207  0.00  0.00    +0.002 A 
ATOM     29  C   UNL     1       4.713  -0.354  22.611  0.00  0.00    +0.004 A 
BRANCH  25   6
ATOM      6  O   UNL     1       1.093  -0.802  22.431  0.00  0.00    -0.493 OA
ATOM     31  C   UNL     1       0.577  -0.655  21.110  0.00  0.00    +0.277 C 
ENDBRANCH  25   6
ENDBRANCH   9  23
ENDBRANCH  16  18
ENDBRANCH  12  16
BRANCH  15  17
ATOM     17  C   UNL     1      -6.596   1.869  25.222  0.00  0.00    +0.140 C 
BRANCH  17  10
ATOM      7  O   UNL     1      -4.251   0.817  23.958  0.00  0.00    -0.253 OA
ATOM     10  N   UNL     1      -5.709   0.876  25.753  0.00  0.00    -0.297 N 
ATOM     11  N   UNL     1      -3.904  -0.555  25.831  0.00  0.00    -0.269 N 
ATOM     24  C   UNL     1      -4.574   0.408  25.071  0.00  0.00    +0.304 C 
ATOM     39  H   UNL     1      -5.908   0.500  26.675  0.00  0.00    +0.150 HD
ATOM     40  H   UNL     1      -4.305  -0.782  26.737  0.00  0.00    +0.156 HD
BRANCH  11  30
ATOM      1  F   UNL     1      -1.577  -3.720  23.071  0.00  0.00    -0.205 F 
ATOM     30  C   UNL     1      -2.725  -1.261  25.494  0.00  0.00    +0.037 A 
ATOM     32  C   UNL     1      -2.732  -2.160  24.428  0.00  0.00    +0.061 A 
ATOM     33  C   UNL     1      -1.556  -1.058  26.229  0.00  0.00    +0.023 A 
ATOM     34  C   UNL     1      -1.571  -2.857  24.095  0.00  0.00    +0.125 A 
ATOM     35  C   UNL     1      -0.394  -1.755  25.896  0.00  0.00    +0.005 A 
ATOM     36  C   UNL     1      -0.401  -2.655  24.830  0.00  0.00    +0.038 A 
ENDBRANCH  11  30
ENDBRANCH  17  10
ENDBRANCH  15  17
TORSDOF 9
ENDMDL
MODEL 4
REMARK VINA RESULT:       5.9      1.262      2.152
REMARK  Name = 40778218
REMARK  10 active torsions:
REMARK  status: ('A' for Active; 'I' for Inactive)
REMARK    1  A    between atoms: O_3  and  C_13
REMARK    2  A    between atoms: O_4  and  C_14
REMARK    3  A    between atoms: O_6  and  C_25
REMARK    4  A    between atoms: O_6  and  C_31
REMARK    5  A    between atoms: N_9  and  C_23
REMARK    6  A    between atoms: N_10  and  C_17
REMARK    7  A    between atoms: N_11  and  C_30
REMARK    8  A    between atoms: C_12  and  C_16
REMARK    9  A    between atoms: C_15  and  C_17
REMARK   10  A    between atoms: C_16  and  C_18
REMARK                            x       y       z     vdW  Elec       q    Type
REMARK                         _______ _______ _______ _____ _____    ______ ____
ROOT
ATOM      2  O   UNL     1      -3.866   3.812  23.859  0.00  0.00    -0.366 OA
ATOM     12  C   UNL     1      -4.218   4.341  25.150  0.00  0.00    +0.159 C 
ATOM     13  C   UNL     1      -3.069   3.970  26.072  0.00  0.00    +0.175 C 
ATOM     14  C   UNL     1      -1.881   4.089  25.140  0.00  0.00    +0.176 C 
ATOM     15  C   UNL     1      -2.447   3.540  23.834  0.00  0.00    +0.167 C 
ENDROOT
BRANCH  13   3
ATOM      3  O   UNL     1      -2.991   4.828  27.190  0.00  0.00    -0.387 OA
ATOM     37  H   UNL     1      -3.901   5.079  27.428  0.00  0.00    +0.210 HD
ENDBRANCH  13   3
BRANCH  14   4
ATOM      4  O   UNL     1      -1.546   5.461  24.936  0.00  0.00    -0.387 OA
ATOM     38  H   UNL     1      -1.113   5.529  24.069  0.00  0.00    +0.210 HD
ENDBRANCH  14   4
BRANCH  12  16
ATOM     16  C   UNL     1      -5.554   3.768  25.590  0.00  0.00    +0.130 C 
BRANCH  16  18
ATOM      5  O   UNL     1      -6.627   2.537  23.873  0.00  0.00    -0.276 OA
ATOM      8  N   UNL     1      -5.194   1.349  25.259  0.00  0.00    -0.298 N 
ATOM      9  N   UNL     1      -3.147  -0.593  25.215  0.00  0.00    -0.324 N 
ATOM     18  C   UNL     1      -5.845   2.501  24.826  0.00  0.00    +0.218 C 
ATOM     19  C   UNL     1      -4.261   1.266  26.384  0.00  0.00    +0.126 C 
ATOM     20  C   UNL     1      -5.435   0.072  24.593  0.00  0.00    +0.126 C 
ATOM     21  C   UNL     1      -2.927   0.667  25.937  0.00  0.00    +0.124 C 
ATOM     22  C   UNL     1      -4.122  -0.543  24.113  0.00  0.00    +0.124 C 
BRANCH   9  23
ATOM     23  C   UNL     1      -2.109  -1.528  25.122  0.00  0.00    +0.072 A 
ATOM     25  C   UNL     1      -2.237  -2.652  24.307  0.00  0.00    +0.141 A 
ATOM     26  C   UNL     1      -0.938  -1.323  25.852  0.00  0.00    +0.027 A 
ATOM     27  C   UNL     1      -1.194  -3.575  24.224  0.00  0.00    +0.047 A 
ATOM     28  C   UNL     1       0.105  -2.246  25.767  0.00  0.00    +0.002 A 
ATOM     29  C   UNL     1      -0.023  -3.371  24.953  0.00  0.00    +0.004 A 
BRANCH  25   6
ATOM      6  O   UNL     1      -3.373  -2.869  23.587  0.00  0.00    -0.493 OA
ATOM     31  C   UNL     1      -4.296  -3.826  24.105  0.00  0.00    +0.277 C 
ENDBRANCH  25   6
ENDBRANCH   9  23
ENDBRANCH  16  18
ENDBRANCH  12  16
BRANCH  15  17
ATOM     17  C   UNL     1      -2.263   2.035  23.692  0.00  0.00    +0.140 C 
BRANCH  17  10
ATOM      7  O   UNL     1       0.180   1.104  24.864  0.00  0.00    -0.253 OA
ATOM     10  N   UNL     1      -1.045   1.726  23.002  0.00  0.00    -0.297 N 
ATOM     11  N   UNL     1       1.143   1.055  22.723  0.00  0.00    -0.269 N 
ATOM     24  C   UNL     1       0.117   1.272  23.647  0.00  0.00    +0.304 C 
ATOM     39  H   UNL     1      -1.027   1.832  21.992  0.00  0.00    +0.150 HD
ATOM     40  H   UNL     1       0.926   1.245  21.747  0.00  0.00    +0.156 HD
BRANCH  11  30
ATOM      1  F   UNL     1       4.173  -2.409  24.087  0.00  0.00    -0.205 F 
ATOM     30  C   UNL     1       2.458   0.601  22.976  0.00  0.00    +0.037 A 
ATOM     32  C   UNL     1       2.671  -0.706  23.415  0.00  0.00    +0.061 A 
ATOM     33  C   UNL     1       3.541   1.460  22.788  0.00  0.00    +0.023 A 
ATOM     34  C   UNL     1       3.968  -1.155  23.666  0.00  0.00    +0.125 A 
ATOM     35  C   UNL     1       4.838   1.011  23.038  0.00  0.00    +0.005 A 
ATOM     36  C   UNL     1       5.052  -0.296  23.478  0.00  0.00    +0.038 A 
ENDBRANCH  11  30
ENDBRANCH  17  10
ENDBRANCH  15  17
TORSDOF 9
ENDMDL
MODEL 5
REMARK VINA RESULT:       6.2      1.920      5.467
REMARK  Name = 40778218
REMARK  10 active torsions:
REMARK  status: ('A' for Active; 'I' for Inactive)
REMARK    1  A    between atoms: O_3  and  C_13
REMARK    2  A    between atoms: O_4  and  C_14
REMARK    3  A    between atoms: O_6  and  C_25
REMARK    4  A    between atoms: O_6  and  C_31
REMARK    5  A    between atoms: N_9  and  C_23
REMARK    6  A    between atoms: N_10  and  C_17
REMARK    7  A    between atoms: N_11  and  C_30
REMARK    8  A    between atoms: C_12  and  C_16
REMARK    9  A    between atoms: C_15  and  C_17
REMARK   10  A    between atoms: C_16  and  C_18
REMARK                            x       y       z     vdW  Elec       q    Type
REMARK                         _______ _______ _______ _____ _____    ______ ____
ROOT
ATOM      2  O   UNL     1      -5.239   4.537  25.405  0.00  0.00    -0.366 OA
ATOM     12  C   UNL     1      -3.978   4.713  24.734  0.00  0.00    +0.159 C 
ATOM     13  C   UNL     1      -3.608   3.343  24.193  0.00  0.00    +0.175 C 
ATOM     14  C   UNL     1      -4.966   2.786  23.818  0.00  0.00    +0.176 C 
ATOM     15  C   UNL     1      -5.844   3.305  24.952  0.00  0.00    +0.167 C 
ENDROOT
BRANCH  13   3
ATOM      3  O   UNL     1      -2.718   3.429  23.100  0.00  0.00    -0.387 OA
ATOM     37  H   UNL     1      -2.509   4.371  22.969  0.00  0.00    +0.210 HD
ENDBRANCH  13   3
BRANCH  14   4
ATOM      4  O   UNL     1      -5.423   3.371  22.600  0.00  0.00    -0.387 OA
ATOM     38  H   UNL     1      -6.117   4.013  22.828  0.00  0.00    +0.210 HD
ENDBRANCH  14   4
BRANCH  12  16
ATOM     16  C   UNL     1      -2.956   5.273  25.707  0.00  0.00    +0.130 C 
BRANCH  16  18
ATOM      5  O   UNL     1      -2.786   3.623  27.399  0.00  0.00    -0.276 OA
ATOM      8  N   UNL     1      -1.015   3.761  25.904  0.00  0.00    -0.298 N 
ATOM      9  N   UNL     1       0.714   2.172  24.340  0.00  0.00    -0.324 N 
ATOM     18  C   UNL     1      -2.251   4.146  26.418  0.00  0.00    +0.218 C 
ATOM     19  C   UNL     1      -0.348   4.357  24.745  0.00  0.00    +0.126 C 
ATOM     20  C   UNL     1      -0.251   2.694  26.544  0.00  0.00    +0.126 C 
ATOM     21  C   UNL     1      -0.008   3.285  23.709  0.00  0.00    +0.124 C 
ATOM     22  C   UNL     1       0.086   1.594  25.540  0.00  0.00    +0.124 C 
BRANCH   9  23
ATOM     23  C   UNL     1       1.512   1.331  23.555  0.00  0.00    +0.072 A 
ATOM     25  C   UNL     1       0.983   0.168  22.998  0.00  0.00    +0.141 A 
ATOM     26  C   UNL     1       2.847   1.669  23.332  0.00  0.00    +0.027 A 
ATOM     27  C   UNL     1       1.790  -0.660  22.217  0.00  0.00    +0.047 A 
ATOM     28  C   UNL     1       3.653   0.840  22.551  0.00  0.00    +0.002 A 
ATOM     29  C   UNL     1       3.125  -0.324  21.994  0.00  0.00    +0.004 A 
BRANCH  25   6
ATOM      6  O   UNL     1      -0.318  -0.179  23.205  0.00  0.00    -0.493 OA
ATOM     31  C   UNL     1      -1.303   0.519  22.445  0.00  0.00    +0.277 C 
ENDBRANCH  25   6
ENDBRANCH   9  23
ENDBRANCH  16  18
ENDBRANCH  12  16
BRANCH  15  17
ATOM     17  C   UNL     1      -5.908   2.353  26.139  0.00  0.00    +0.140 C 
BRANCH  17  10
ATOM      7  O   UNL     1      -3.342   1.165  25.680  0.00  0.00    -0.253 OA
ATOM     10  N   UNL     1      -5.649   1.003  25.734  0.00  0.00    -0.297 N 
ATOM     11  N   UNL     1      -4.416  -0.851  25.137  0.00  0.00    -0.269 N 
ATOM     24  C   UNL     1      -4.358   0.490  25.527  0.00  0.00    +0.304 C 
ATOM     39  H   UNL     1      -6.442   0.383  25.599  0.00  0.00    +0.150 HD
ATOM     40  H   UNL     1      -5.342  -1.264  25.057  0.00  0.00    +0.156 HD
BRANCH  11  30
ATOM      1  F   UNL     1       0.164  -2.170  25.718  0.00  0.00    -0.205 F 
ATOM     30  C   UNL     1      -3.337  -1.715  24.837  0.00  0.00    +0.037 A 
ATOM     32  C   UNL     1      -2.094  -1.512  25.437  0.00  0.00    +0.061 A 
ATOM     33  C   UNL     1      -3.515  -2.768  23.940  0.00  0.00    +0.023 A 
ATOM     34  C   UNL     1      -1.029  -2.363  25.141  0.00  0.00    +0.125 A 
ATOM     35  C   UNL     1      -2.451  -3.620  23.644  0.00  0.00    +0.005 A 
ATOM     36  C   UNL     1      -1.207  -3.417  24.244  0.00  0.00    +0.038 A 
ENDBRANCH  11  30
ENDBRANCH  17  10
ENDBRANCH  15  17
TORSDOF 9
ENDMDL
MODEL 6
REMARK VINA RESULT:       6.5      1.728      5.271
REMARK  Name = 40778218
REMARK  10 active torsions:
REMARK  status: ('A' for Active; 'I' for Inactive)
REMARK    1  A    between atoms: O_3  and  C_13
REMARK    2  A    between atoms: O_4  and  C_14
REMARK    3  A    between atoms: O_6  and  C_25
REMARK    4  A    between atoms: O_6  and  C_31
REMARK    5  A    between atoms: N_9  and  C_23
REMARK    6  A    between atoms: N_10  and  C_17
REMARK    7  A    between atoms: N_11  and  C_30
REMARK    8  A    between atoms: C_12  and  C_16
REMARK    9  A    between atoms: C_15  and  C_17
REMARK   10  A    between atoms: C_16  and  C_18
REMARK                            x       y       z     vdW  Elec       q    Type
REMARK                         _______ _______ _______ _____ _____    ______ ____
ROOT
ATOM      2  O   UNL     1      -3.842  -0.302  25.437  0.00  0.00    -0.366 OA
ATOM     12  C   UNL     1      -4.939  -1.073  24.916  0.00  0.00    +0.159 C 
ATOM     13  C   UNL     1      -4.372  -1.852  23.742  0.00  0.00    +0.175 C 
ATOM     14  C   UNL     1      -2.969  -2.155  24.227  0.00  0.00    +0.176 C 
ATOM     15  C   UNL     1      -2.601  -0.866  24.954  0.00  0.00    +0.167 C 
ENDROOT
BRANCH  13   3
ATOM      3  O   UNL     1      -5.128  -3.011  23.461  0.00  0.00    -0.387 OA
ATOM     37  H   UNL     1      -4.558  -3.615  22.954  0.00  0.00    +0.210 HD
ENDBRANCH  13   3
BRANCH  14   4
ATOM      4  O   UNL     1      -2.992  -3.213  25.183  0.00  0.00    -0.387 OA
ATOM     38  H   UNL     1      -3.567  -2.933  25.914  0.00  0.00    +0.210 HD
ENDBRANCH  14   4
BRANCH  12  16
ATOM     16  C   UNL     1      -6.078  -0.146  24.531  0.00  0.00    +0.130 C 
BRANCH  16  18
ATOM      5  O   UNL     1      -6.698   0.991  26.516  0.00  0.00    -0.276 OA
ATOM      8  N   UNL     1      -5.405   2.181  25.000  0.00  0.00    -0.298 N 
ATOM      9  N   UNL     1      -3.183   3.912  24.837  0.00  0.00    -0.324 N 
ATOM     18  C   UNL     1      -6.094   1.055  25.442  0.00  0.00    +0.218 C 
ATOM     19  C   UNL     1      -4.678   2.297  23.734  0.00  0.00    +0.126 C 
ATOM     20  C   UNL     1      -5.387   3.398  25.807  0.00  0.00    +0.126 C 
ATOM     21  C   UNL     1      -3.230   2.721  23.980  0.00  0.00    +0.124 C 
ATOM     22  C   UNL     1      -3.952   3.837  26.090  0.00  0.00    +0.124 C 
BRANCH   9  23
ATOM     23  C   UNL     1      -2.049   4.733  24.820  0.00  0.00    +0.072 A 
ATOM     25  C   UNL     1      -0.792   4.213  25.127  0.00  0.00    +0.141 A 
ATOM     26  C   UNL     1      -2.186   6.081  24.489  0.00  0.00    +0.027 A 
ATOM     27  C   UNL     1       0.330   5.043  25.104  0.00  0.00    +0.047 A 
ATOM     28  C   UNL     1      -1.064   6.910  24.466  0.00  0.00    +0.002 A 
ATOM     29  C   UNL     1       0.194   6.391  24.774  0.00  0.00    +0.004 A 
BRANCH  25   6
ATOM      6  O   UNL     1      -0.638   2.900  25.453  0.00  0.00    -0.493 OA
ATOM     31  C   UNL     1      -0.138   2.610  26.757  0.00  0.00    +0.277 C 
ENDBRANCH  25   6
ENDBRANCH   9  23
ENDBRANCH  16  18
ENDBRANCH  12  16
BRANCH  15  17
ATOM     17  C   UNL     1      -1.943   0.164  24.046  0.00  0.00    +0.140 C 
BRANCH  17  10
ATOM      7  O   UNL     1       0.709   1.091  24.607  0.00  0.00    -0.253 OA
ATOM     10  N   UNL     1      -0.723  -0.342  23.490  0.00  0.00    -0.297 N 
ATOM     11  N   UNL     1       1.546  -0.521  23.120  0.00  0.00    -0.269 N 
ATOM     24  C   UNL     1       0.546   0.166  23.814  0.00  0.00    +0.304 C 
ATOM     39  H   UNL     1      -0.780  -1.116  22.834  0.00  0.00    +0.150 HD
ATOM     40  H   UNL     1       1.240  -1.266  22.498  0.00  0.00    +0.156 HD
BRANCH  11  30
ATOM      1  F   UNL     1       5.952  -2.005  24.315  0.00  0.00    -0.205 F 
ATOM     30  C   UNL     1       2.943  -0.309  23.174  0.00  0.00    +0.037 A 
ATOM     32  C   UNL     1       3.774  -1.281  23.729  0.00  0.00    +0.061 A 
ATOM     33  C   UNL     1       3.489   0.873  22.672  0.00  0.00    +0.023 A 
ATOM     34  C   UNL     1       5.153  -1.072  23.783  0.00  0.00    +0.125 A 
ATOM     35  C   UNL     1       4.867   1.082  22.725  0.00  0.00    +0.005 A 
ATOM     36  C   UNL     1       5.699   0.110  23.282  0.00  0.00    +0.038 A 
ENDBRANCH  11  30
ENDBRANCH  17  10
ENDBRANCH  15  17
TORSDOF 9
ENDMDL
MODEL 7
REMARK VINA RESULT:       6.9      2.079      5.828
REMARK  Name = 40778218
REMARK  10 active torsions:
REMARK  status: ('A' for Active; 'I' for Inactive)
REMARK    1  A    between atoms: O_3  and  C_13
REMARK    2  A    between atoms: O_4  and  C_14
REMARK    3  A    between atoms: O_6  and  C_25
REMARK    4  A    between atoms: O_6  and  C_31
REMARK    5  A    between atoms: N_9  and  C_23
REMARK    6  A    between atoms: N_10  and  C_17
REMARK    7  A    between atoms: N_11  and  C_30
REMARK    8  A    between atoms: C_12  and  C_16
REMARK    9  A    between atoms: C_15  and  C_17
REMARK   10  A    between atoms: C_16  and  C_18
REMARK                            x       y       z     vdW  Elec       q    Type
REMARK                         _______ _______ _______ _____ _____    ______ ____
ROOT
ATOM      2  O   UNL     1      -4.891   3.308  26.733  0.00  0.00    -0.366 OA
ATOM     12  C   UNL     1      -4.041   4.201  25.992  0.00  0.00    +0.159 C 
ATOM     13  C   UNL     1      -4.731   4.410  24.655  0.00  0.00    +0.175 C 
ATOM     14  C   UNL     1      -6.190   4.391  25.061  0.00  0.00    +0.176 C 
ATOM     15  C   UNL     1      -6.206   3.308  26.134  0.00  0.00    +0.167 C 
ENDROOT
BRANCH  13   3
ATOM      3  O   UNL     1      -4.338   5.618  24.040  0.00  0.00    -0.387 OA
ATOM     37  H   UNL     1      -4.309   6.301  24.733  0.00  0.00    +0.210 HD
ENDBRANCH  13   3
BRANCH  14   4
ATOM      4  O   UNL     1      -6.552   5.627  25.673  0.00  0.00    -0.387 OA
ATOM     38  H   UNL     1      -5.836   6.260  25.497  0.00  0.00    +0.210 HD
ENDBRANCH  14   4
BRANCH  12  16
ATOM     16  C   UNL     1      -2.653   3.599  25.866  0.00  0.00    +0.130 C 
BRANCH  16  18
ATOM      5  O   UNL     1      -3.412   2.931  23.723  0.00  0.00    -0.276 OA
ATOM      8  N   UNL     1      -1.491   1.895  24.511  0.00  0.00    -0.298 N 
ATOM      9  N   UNL     1       1.095   1.091  23.720  0.00  0.00    -0.324 N 
ATOM     18  C   UNL     1      -2.560   2.782  24.602  0.00  0.00    +0.218 C 
ATOM     19  C   UNL     1      -0.461   1.690  25.532  0.00  0.00    +0.126 C 
ATOM     20  C   UNL     1      -1.335   1.046  23.333  0.00  0.00    +0.126 C 
ATOM     21  C   UNL     1       0.934   1.893  24.940  0.00  0.00    +0.124 C 
ATOM     22  C   UNL     1       0.042   1.243  22.703  0.00  0.00    +0.124 C 
BRANCH   9  23
ATOM     23  C   UNL     1       2.381   0.755  23.278  0.00  0.00    +0.072 A 
ATOM     25  C   UNL     1       2.569   0.158  22.032  0.00  0.00    +0.141 A 
ATOM     26  C   UNL     1       3.477   1.025  24.096  0.00  0.00    +0.027 A 
ATOM     27  C   UNL     1       3.856  -0.171  21.604  0.00  0.00    +0.047 A 
ATOM     28  C   UNL     1       4.763   0.696  23.668  0.00  0.00    +0.002 A 
ATOM     29  C   UNL     1       4.953   0.099  22.422  0.00  0.00    +0.004 A 
BRANCH  25   6
ATOM      6  O   UNL     1       1.511  -0.114  21.218  0.00  0.00    -0.493 OA
ATOM     31  C   UNL     1       0.929  -1.412  21.325  0.00  0.00    +0.277 C 
ENDBRANCH  25   6
ENDBRANCH   9  23
ENDBRANCH  16  18
ENDBRANCH  12  16
BRANCH  15  17
ATOM     17  C   UNL     1      -6.462   1.915  25.572  0.00  0.00    +0.140 C 
BRANCH  17  10
ATOM      7  O   UNL     1      -4.782   0.296  23.911  0.00  0.00    -0.253 OA
ATOM     10  N   UNL     1      -5.461   0.989  26.011  0.00  0.00    -0.297 N 
ATOM     11  N   UNL     1      -3.786  -0.586  25.845  0.00  0.00    -0.269 N 
ATOM     24  C   UNL     1      -4.672   0.226  25.133  0.00  0.00    +0.304 C 
ATOM     39  H   UNL     1      -5.307   0.887  27.010  0.00  0.00    +0.150 HD
ATOM     40  H   UNL     1      -3.824  -0.525  26.859  0.00  0.00    +0.156 HD
BRANCH  11  30
ATOM      1  F   UNL     1       0.709  -2.261  25.645  0.00  0.00    -0.205 F 
ATOM     30  C   UNL     1      -2.833  -1.494  25.326  0.00  0.00    +0.037 A 
ATOM     32  C   UNL     1      -1.506  -1.429  25.749  0.00  0.00    +0.061 A 
ATOM     33  C   UNL     1      -3.221  -2.454  24.391  0.00  0.00    +0.023 A 
ATOM     34  C   UNL     1      -0.566  -2.323  25.238  0.00  0.00    +0.125 A 
ATOM     35  C   UNL     1      -2.281  -3.349  23.879  0.00  0.00    +0.005 A 
ATOM     36  C   UNL     1      -0.953  -3.283  24.302  0.00  0.00    +0.038 A 
ENDBRANCH  11  30
ENDBRANCH  17  10
ENDBRANCH  15  17
TORSDOF 9
ENDMDL
