MODEL 1
REMARK VINA RESULT:      -0.1      0.000      0.000
REMARK  Name = 75368468
REMARK  5 active torsions:
REMARK  status: ('A' for Active; 'I' for Inactive)
REMARK    1  A    between atoms: O_4  and  C_23
REMARK    2  A    between atoms: O_4  and  C_29
REMARK    3  A    between atoms: N_6  and  C_15
REMARK    4  A    between atoms: N_8  and  C_20
REMARK    5  A    between atoms: C_15  and  C_17
REMARK                            x       y       z     vdW  Elec       q    Type
REMARK                         _______ _______ _______ _____ _____    ______ ____
ROOT
ATOM      2  O   UNL     1      -8.381 -10.781  11.492  0.00  0.00    -0.252 OA
ATOM      3  O   UNL     1      -1.848  -9.848  13.544  0.00  0.00    -0.252 OA
ATOM      5  N   UNL     1      -6.093 -10.258  11.372  0.00  0.00    -0.278 N 
ATOM      6  N   UNL     1      -7.387  -9.797   9.594  0.00  0.00    -0.279 N 
ATOM      7  N   UNL     1      -3.629  -9.268  12.193  0.00  0.00    -0.282 N 
ATOM      8  N   UNL     1      -1.417  -9.057  11.406  0.00  0.00    -0.269 N 
ATOM      9  C   UNL     1      -5.167  -9.784  10.357  0.00  0.00    +0.112 C 
ATOM     10  C   UNL     1      -6.079  -9.271   9.246  0.00  0.00    +0.133 C 
ATOM     11  C   UNL     1      -4.230  -8.738  10.952  0.00  0.00    +0.133 C 
ATOM     12  C   UNL     1      -5.594 -10.679  12.670  0.00  0.00    +0.128 C 
ATOM     13  C   UNL     1      -4.616  -9.641  13.220  0.00  0.00    +0.128 C 
ATOM     14  C   UNL     1      -7.408 -10.339  10.894  0.00  0.00    +0.306 C 
ATOM     16  C   UNL     1      -2.253  -9.414  12.463  0.00  0.00    +0.307 C 
ATOM     30  H   UNL     1      -1.773  -9.155  10.461  0.00  0.00    +0.156 HD
ENDROOT
BRANCH   8  20
ATOM      1  F   UNL     1       3.723  -7.000  11.732  0.00  0.00    -0.205 F 
ATOM     20  C   UNL     1      -0.103  -8.532  11.489  0.00  0.00    +0.035 A 
ATOM     24  C   UNL     1       0.911  -9.059  10.690  0.00  0.00    +0.026 A 
ATOM     25  C   UNL     1       0.175  -7.487  12.371  0.00  0.00    +0.026 A 
ATOM     26  C   UNL     1       2.204  -8.542  10.773  0.00  0.00    +0.040 A 
ATOM     27  C   UNL     1       1.469  -6.970  12.454  0.00  0.00    +0.040 A 
ATOM     28  C   UNL     1       2.482  -7.498  11.654  0.00  0.00    +0.124 A 
ENDBRANCH   8  20
BRANCH   6  15
ATOM     15  C   UNL     1      -8.534  -9.629   8.729  0.00  0.00    +0.144 C 
BRANCH  15  17
ATOM     17  C   UNL     1      -9.031  -8.212   8.723  0.00  0.00    -0.030 A 
ATOM     18  C   UNL     1     -10.256  -7.900   9.311  0.00  0.00    +0.009 A 
ATOM     19  C   UNL     1      -8.267  -7.206   8.129  0.00  0.00    +0.009 A 
ATOM     21  C   UNL     1     -10.719  -6.583   9.304  0.00  0.00    +0.046 A 
ATOM     22  C   UNL     1      -8.728  -5.891   8.124  0.00  0.00    +0.046 A 
ATOM     23  C   UNL     1      -9.954  -5.580   8.711  0.00  0.00    +0.120 A 
BRANCH  23   4
ATOM      4  O   UNL     1     -10.405  -4.295   8.704  0.00  0.00    -0.495 OA
ATOM     29  C   UNL     1     -10.706  -3.707   9.969  0.00  0.00    +0.277 C 
ENDBRANCH  23   4
ENDBRANCH  15  17
ENDBRANCH   6  15
TORSDOF 4
ENDMDL
