MODEL 1
REMARK VINA RESULT:      -2.9      0.000      0.000
REMARK  Name = 75536245
REMARK  7 active torsions:
REMARK  status: ('A' for Active; 'I' for Inactive)
REMARK    1  A    between atoms: O_3  and  C_13
REMARK    2  A    between atoms: N_6  and  C_17
REMARK    3  A    between atoms: C_8  and  C_18
REMARK    4  A    between atoms: C_11  and  C_17
REMARK    5  A    between atoms: C_14  and  C_19
REMARK    6  A    between atoms: C_19  and  C_20
REMARK    7  A    between atoms: C_22  and  C_23
REMARK                            x       y       z     vdW  Elec       q    Type
REMARK                         _______ _______ _______ _____ _____    ______ ____
ROOT
ATOM      2  O   UNL     1      -3.711  -0.192  23.468  0.00  0.00    -0.369 OA
ATOM     11  C   UNL     1      -4.614  -0.733  24.441  0.00  0.00    +0.164 C 
ATOM     13  C   UNL     1      -3.887  -1.668  25.417  0.00  0.00    +0.145 C 
ATOM     14  C   UNL     1      -2.576   0.492  24.004  0.00  0.00    +0.125 C 
ATOM     15  C   UNL     1      -2.626  -1.035  25.998  0.00  0.00    +0.036 C 
ATOM     16  C   UNL     1      -1.755  -0.441  24.894  0.00  0.00    +0.034 C 
ENDROOT
BRANCH  13   3
ATOM      3  O   UNL     1      -3.498  -2.853  24.718  0.00  0.00    -0.389 OA
ATOM     30  H   UNL     1      -4.280  -3.182  24.241  0.00  0.00    +0.210 HD
ENDBRANCH  13   3
BRANCH  11  17
ATOM     17  C   UNL     1      -5.393   0.375  25.144  0.00  0.00    +0.138 C 
BRANCH  17   6
ATOM      4  O   UNL     1      -6.023   2.781  26.581  0.00  0.00    -0.276 OA
ATOM      6  N   UNL     1      -4.674   1.613  25.104  0.00  0.00    -0.313 N 
ATOM     18  C   UNL     1      -5.041   2.744  25.833  0.00  0.00    +0.216 C 
ATOM     29  H   UNL     1      -3.871   1.675  24.485  0.00  0.00    +0.149 HD
BRANCH  18   8
ATOM      8  C   UNL     1      -4.119   3.947  25.613  0.00  0.00    +0.075 C 
ATOM      9  C   UNL     1      -2.731   3.935  26.307  0.00  0.00    +0.013 C 
ATOM     10  C   UNL     1      -3.346   4.022  24.271  0.00  0.00    +0.013 C 
ATOM     12  C   UNL     1      -2.172   4.638  25.055  0.00  0.00    +0.001 C 
ENDBRANCH  18   8
ENDBRANCH  17   6
ENDBRANCH  11  17
BRANCH  14  19
ATOM     19  C   UNL     1      -1.745   0.992  22.829  0.00  0.00    +0.090 C 
BRANCH  19  20
ATOM      5  O   UNL     1       1.564   1.767  24.026  0.00  0.00    -0.354 OA
ATOM      7  N   UNL     1       0.204   2.027  23.918  0.00  0.00    -0.083 NA
ATOM     20  C   UNL     1      -0.279   1.037  23.162  0.00  0.00    +0.087 A 
ATOM     21  C   UNL     1       0.722   0.133  22.766  0.00  0.00    +0.076 A 
ATOM     22  C   UNL     1       1.861   0.638  23.336  0.00  0.00    +0.167 A 
BRANCH  22  23
ATOM      1  F   UNL     1       7.205  -0.909  23.419  0.00  0.00    -0.205 F 
ATOM     23  C   UNL     1       3.239   0.239  23.357  0.00  0.00    +0.020 A 
ATOM     24  C   UNL     1       3.582  -1.066  23.713  0.00  0.00    +0.014 A 
ATOM     25  C   UNL     1       4.235   1.155  23.021  0.00  0.00    +0.014 A 
ATOM     26  C   UNL     1       4.921  -1.454  23.734  0.00  0.00    +0.039 A 
ATOM     27  C   UNL     1       5.575   0.767  23.043  0.00  0.00    +0.039 A 
ATOM     28  C   UNL     1       5.918  -0.537  23.399  0.00  0.00    +0.123 A 
ENDBRANCH  22  23
ENDBRANCH  19  20
ENDBRANCH  14  19
TORSDOF 7
ENDMDL
MODEL 2
REMARK VINA RESULT:      -2.3      1.485      3.904
REMARK  Name = 75536245
REMARK  7 active torsions:
REMARK  status: ('A' for Active; 'I' for Inactive)
REMARK    1  A    between atoms: O_3  and  C_13
REMARK    2  A    between atoms: N_6  and  C_17
REMARK    3  A    between atoms: C_8  and  C_18
REMARK    4  A    between atoms: C_11  and  C_17
REMARK    5  A    between atoms: C_14  and  C_19
REMARK    6  A    between atoms: C_19  and  C_20
REMARK    7  A    between atoms: C_22  and  C_23
REMARK                            x       y       z     vdW  Elec       q    Type
REMARK                         _______ _______ _______ _____ _____    ______ ____
ROOT
ATOM      2  O   UNL     1      -3.787   2.243  25.822  0.00  0.00    -0.369 OA
ATOM     11  C   UNL     1      -5.133   1.764  25.698  0.00  0.00    +0.164 C 
ATOM     13  C   UNL     1      -6.034   2.804  25.020  0.00  0.00    +0.145 C 
ATOM     14  C   UNL     1      -3.174   2.658  24.600  0.00  0.00    +0.125 C 
ATOM     15  C   UNL     1      -5.427   3.346  23.729  0.00  0.00    +0.036 C 
ATOM     16  C   UNL     1      -3.980   3.780  23.947  0.00  0.00    +0.034 C 
ENDROOT
BRANCH  13   3
ATOM      3  O   UNL     1      -6.219   3.906  25.911  0.00  0.00    -0.389 OA
ATOM     30  H   UNL     1      -6.120   4.723  25.393  0.00  0.00    +0.210 HD
ENDBRANCH  13   3
BRANCH  11  17
ATOM     17  C   UNL     1      -5.170   0.402  25.011  0.00  0.00    +0.138 C 
BRANCH  17   6
ATOM      4  O   UNL     1      -4.337  -2.048  23.766  0.00  0.00    -0.276 OA
ATOM      6  N   UNL     1      -3.994  -0.357  25.311  0.00  0.00    -0.313 N 
ATOM     18  C   UNL     1      -3.653  -1.543  24.662  0.00  0.00    +0.216 C 
ATOM     29  H   UNL     1      -3.394  -0.025  26.061  0.00  0.00    +0.149 HD
BRANCH  18   8
ATOM      8  C   UNL     1      -2.353  -2.174  25.169  0.00  0.00    +0.075 C 
ATOM      9  C   UNL     1      -1.222  -2.435  24.139  0.00  0.00    +0.013 C 
ATOM     10  C   UNL     1      -1.347  -1.250  25.903  0.00  0.00    +0.013 C 
ATOM     12  C   UNL     1      -0.217  -2.066  25.247  0.00  0.00    +0.001 C 
ENDBRANCH  18   8
ENDBRANCH  17   6
ENDBRANCH  11  17
BRANCH  14  19
ATOM     19  C   UNL     1      -1.763   3.127  24.932  0.00  0.00    +0.090 C 
BRANCH  19  20
ATOM      5  O   UNL     1       0.104   0.622  23.137  0.00  0.00    -0.354 OA
ATOM      7  N   UNL     1      -1.083   1.244  23.500  0.00  0.00    -0.083 NA
ATOM     20  C   UNL     1      -0.719   2.228  24.329  0.00  0.00    +0.087 A 
ATOM     21  C   UNL     1       0.672   2.272  24.523  0.00  0.00    +0.076 A 
ATOM     22  C   UNL     1       1.143   1.242  23.751  0.00  0.00    +0.167 A 
BRANCH  22  23
ATOM      1  F   UNL     1       6.190  -0.826  22.656  0.00  0.00    -0.205 F 
ATOM     23  C   UNL     1       2.443   0.708  23.468  0.00  0.00    +0.020 A 
ATOM     24  C   UNL     1       2.705  -0.645  23.686  0.00  0.00    +0.014 A 
ATOM     25  C   UNL     1       3.446   1.543  22.976  0.00  0.00    +0.014 A 
ATOM     26  C   UNL     1       3.970  -1.163  23.411  0.00  0.00    +0.039 A 
ATOM     27  C   UNL     1       4.713   1.024  22.702  0.00  0.00    +0.039 A 
ATOM     28  C   UNL     1       4.974  -0.329  22.919  0.00  0.00    +0.123 A 
ENDBRANCH  22  23
ENDBRANCH  19  20
ENDBRANCH  14  19
TORSDOF 7
ENDMDL
MODEL 3
REMARK VINA RESULT:      -2.2      1.827      2.979
REMARK  Name = 75536245
REMARK  7 active torsions:
REMARK  status: ('A' for Active; 'I' for Inactive)
REMARK    1  A    between atoms: O_3  and  C_13
REMARK    2  A    between atoms: N_6  and  C_17
REMARK    3  A    between atoms: C_8  and  C_18
REMARK    4  A    between atoms: C_11  and  C_17
REMARK    5  A    between atoms: C_14  and  C_19
REMARK    6  A    between atoms: C_19  and  C_20
REMARK    7  A    between atoms: C_22  and  C_23
REMARK                            x       y       z     vdW  Elec       q    Type
REMARK                         _______ _______ _______ _____ _____    ______ ____
ROOT
ATOM      2  O   UNL     1      -4.249   2.448  24.000  0.00  0.00    -0.369 OA
ATOM     11  C   UNL     1      -5.017   3.000  25.077  0.00  0.00    +0.164 C 
ATOM     13  C   UNL     1      -6.028   1.981  25.620  0.00  0.00    +0.145 C 
ATOM     14  C   UNL     1      -3.562   1.232  24.303  0.00  0.00    +0.125 C 
ATOM     15  C   UNL     1      -5.388   0.629  25.919  0.00  0.00    +0.036 C 
ATOM     16  C   UNL     1      -4.549   0.149  24.738  0.00  0.00    +0.034 C 
ENDROOT
BRANCH  13   3
ATOM      3  O   UNL     1      -7.047   1.774  24.638  0.00  0.00    -0.389 OA
ATOM     30  H   UNL     1      -7.438   2.640  24.433  0.00  0.00    +0.210 HD
ENDBRANCH  13   3
BRANCH  11  17
ATOM     17  C   UNL     1      -4.110   3.576  26.161  0.00  0.00    +0.138 C 
BRANCH  17   6
ATOM      4  O   UNL     1      -1.475   2.533  26.626  0.00  0.00    -0.276 OA
ATOM      6  N   UNL     1      -2.884   4.059  25.600  0.00  0.00    -0.313 N 
ATOM     18  C   UNL     1      -1.636   3.499  25.873  0.00  0.00    +0.216 C 
ATOM     29  H   UNL     1      -2.928   4.873  24.995  0.00  0.00    +0.149 HD
BRANCH  18   8
ATOM      8  C   UNL     1      -0.475   4.199  25.161  0.00  0.00    +0.075 C 
ATOM      9  C   UNL     1      -0.132   3.750  23.716  0.00  0.00    +0.013 C 
ATOM     10  C   UNL     1      -0.744   5.605  24.564  0.00  0.00    +0.013 C 
ATOM     12  C   UNL     1       0.198   5.223  23.407  0.00  0.00    +0.001 C 
ENDBRANCH  18   8
ENDBRANCH  17   6
ENDBRANCH  11  17
BRANCH  14  19
ATOM     19  C   UNL     1      -2.808   0.807  23.049  0.00  0.00    +0.090 C 
BRANCH  19  20
ATOM      5  O   UNL     1       0.176  -0.745  24.340  0.00  0.00    -0.354 OA
ATOM      7  N   UNL     1      -1.201  -0.570  24.305  0.00  0.00    -0.083 NA
ATOM     20  C   UNL     1      -1.408   0.356  23.365  0.00  0.00    +0.087 A 
ATOM     21  C   UNL     1      -0.209   0.798  22.779  0.00  0.00    +0.076 A 
ATOM     22  C   UNL     1       0.757   0.074  23.427  0.00  0.00    +0.167 A 
BRANCH  22  23
ATOM      1  F   UNL     1       6.303  -0.207  23.105  0.00  0.00    -0.205 F 
ATOM     23  C   UNL     1       2.187   0.002  23.345  0.00  0.00    +0.020 A 
ATOM     24  C   UNL     1       2.914   1.097  22.879  0.00  0.00    +0.014 A 
ATOM     25  C   UNL     1       2.849  -1.163  23.730  0.00  0.00    +0.014 A 
ATOM     26  C   UNL     1       4.305   1.027  22.798  0.00  0.00    +0.039 A 
ATOM     27  C   UNL     1       4.240  -1.234  23.648  0.00  0.00    +0.039 A 
ATOM     28  C   UNL     1       4.968  -0.139  23.183  0.00  0.00    +0.123 A 
ENDBRANCH  22  23
ENDBRANCH  19  20
ENDBRANCH  14  19
TORSDOF 7
ENDMDL
MODEL 4
REMARK VINA RESULT:      -1.9      1.848      4.314
REMARK  Name = 75536245
REMARK  7 active torsions:
REMARK  status: ('A' for Active; 'I' for Inactive)
REMARK    1  A    between atoms: O_3  and  C_13
REMARK    2  A    between atoms: N_6  and  C_17
REMARK    3  A    between atoms: C_8  and  C_18
REMARK    4  A    between atoms: C_11  and  C_17
REMARK    5  A    between atoms: C_14  and  C_19
REMARK    6  A    between atoms: C_19  and  C_20
REMARK    7  A    between atoms: C_22  and  C_23
REMARK                            x       y       z     vdW  Elec       q    Type
REMARK                         _______ _______ _______ _____ _____    ______ ____
ROOT
ATOM      2  O   UNL     1      -3.949   2.126  25.986  0.00  0.00    -0.369 OA
ATOM     11  C   UNL     1      -5.100   1.353  25.625  0.00  0.00    +0.164 C 
ATOM     13  C   UNL     1      -6.393   2.159  25.807  0.00  0.00    +0.145 C 
ATOM     14  C   UNL     1      -3.815   3.374  25.302  0.00  0.00    +0.125 C 
ATOM     15  C   UNL     1      -6.317   3.535  25.153  0.00  0.00    +0.036 C 
ATOM     16  C   UNL     1      -5.035   4.259  25.554  0.00  0.00    +0.034 C 
ENDROOT
BRANCH  13   3
ATOM      3  O   UNL     1      -6.622   2.352  27.205  0.00  0.00    -0.389 OA
ATOM     30  H   UNL     1      -5.793   2.146  27.670  0.00  0.00    +0.210 HD
ENDBRANCH  13   3
BRANCH  11  17
ATOM     17  C   UNL     1      -4.953   0.770  24.222  0.00  0.00    +0.138 C 
BRANCH  17   6
ATOM      4  O   UNL     1      -3.868  -1.407  25.750  0.00  0.00    -0.276 OA
ATOM      6  N   UNL     1      -3.670   0.158  24.052  0.00  0.00    -0.313 N 
ATOM     18  C   UNL     1      -3.209  -0.900  24.836  0.00  0.00    +0.216 C 
ATOM     29  H   UNL     1      -3.053   0.539  23.341  0.00  0.00    +0.149 HD
BRANCH  18   8
ATOM      8  C   UNL     1      -1.800  -1.375  24.467  0.00  0.00    +0.075 C 
ATOM      9  C   UNL     1      -0.686  -1.242  25.539  0.00  0.00    +0.013 C 
ATOM     10  C   UNL     1      -1.526  -2.900  24.502  0.00  0.00    +0.013 C 
ATOM     12  C   UNL     1      -0.110  -2.569  25.010  0.00  0.00    +0.001 C 
ENDBRANCH  18   8
ENDBRANCH  17   6
ENDBRANCH  11  17
BRANCH  14  19
ATOM     19  C   UNL     1      -2.545   4.043  25.813  0.00  0.00    +0.090 C 
BRANCH  19  20
ATOM      5  O   UNL     1       0.525   2.156  25.787  0.00  0.00    -0.354 OA
ATOM      7  N   UNL     1      -0.480   2.860  26.439  0.00  0.00    -0.083 NA
ATOM     20  C   UNL     1      -1.317   3.243  25.471  0.00  0.00    +0.087 A 
ATOM     21  C   UNL     1      -0.895   2.816  24.201  0.00  0.00    +0.076 A 
ATOM     22  C   UNL     1       0.268   2.137  24.455  0.00  0.00    +0.167 A 
BRANCH  22  23
ATOM      1  F   UNL     1       3.978  -0.568  21.313  0.00  0.00    -0.205 F 
ATOM     23  C   UNL     1       1.225   1.439  23.646  0.00  0.00    +0.020 A 
ATOM     24  C   UNL     1       2.548   1.879  23.595  0.00  0.00    +0.014 A 
ATOM     25  C   UNL     1       0.832   0.322  22.910  0.00  0.00    +0.014 A 
ATOM     26  C   UNL     1       3.478   1.201  22.807  0.00  0.00    +0.039 A 
ATOM     27  C   UNL     1       1.762  -0.356  22.121  0.00  0.00    +0.039 A 
ATOM     28  C   UNL     1       3.085   0.083  22.070  0.00  0.00    +0.123 A 
ENDBRANCH  22  23
ENDBRANCH  19  20
ENDBRANCH  14  19
TORSDOF 7
ENDMDL
MODEL 5
REMARK VINA RESULT:      -0.4      1.552      3.906
REMARK  Name = 75536245
REMARK  7 active torsions:
REMARK  status: ('A' for Active; 'I' for Inactive)
REMARK    1  A    between atoms: O_3  and  C_13
REMARK    2  A    between atoms: N_6  and  C_17
REMARK    3  A    between atoms: C_8  and  C_18
REMARK    4  A    between atoms: C_11  and  C_17
REMARK    5  A    between atoms: C_14  and  C_19
REMARK    6  A    between atoms: C_19  and  C_20
REMARK    7  A    between atoms: C_22  and  C_23
REMARK                            x       y       z     vdW  Elec       q    Type
REMARK                         _______ _______ _______ _____ _____    ______ ____
ROOT
ATOM      2  O   UNL     1      -2.631   1.523  24.560  0.00  0.00    -0.369 OA
ATOM     11  C   UNL     1      -3.410   2.083  25.625  0.00  0.00    +0.164 C 
ATOM     13  C   UNL     1      -3.710   3.567  25.377  0.00  0.00    +0.145 C 
ATOM     14  C   UNL     1      -3.193   1.668  23.254  0.00  0.00    +0.125 C 
ATOM     15  C   UNL     1      -4.264   3.821  23.978  0.00  0.00    +0.036 C 
ATOM     16  C   UNL     1      -3.401   3.144  22.918  0.00  0.00    +0.034 C 
ENDROOT
BRANCH  13   3
ATOM      3  O   UNL     1      -2.496   4.311  25.507  0.00  0.00    -0.389 OA
ATOM     30  H   UNL     1      -2.723   5.180  25.880  0.00  0.00    +0.210 HD
ENDBRANCH  13   3
BRANCH  11  17
ATOM     17  C   UNL     1      -4.666   1.254  25.882  0.00  0.00    +0.138 C 
BRANCH  17   6
ATOM      4  O   UNL     1      -2.684  -0.646  26.723  0.00  0.00    -0.276 OA
ATOM      6  N   UNL     1      -4.504  -0.085  25.403  0.00  0.00    -0.313 N 
ATOM     18  C   UNL     1      -3.513  -0.955  25.861  0.00  0.00    +0.216 C 
ATOM     29  H   UNL     1      -5.127  -0.405  24.668  0.00  0.00    +0.149 HD
BRANCH  18   8
ATOM      8  C   UNL     1      -3.539  -2.330  25.188  0.00  0.00    +0.075 C 
ATOM      9  C   UNL     1      -4.228  -2.449  23.803  0.00  0.00    +0.013 C 
ATOM     10  C   UNL     1      -2.243  -2.807  24.482  0.00  0.00    +0.013 C 
ATOM     12  C   UNL     1      -3.141  -3.471  23.422  0.00  0.00    +0.001 C 
ENDBRANCH  18   8
ENDBRANCH  17   6
ENDBRANCH  11  17
BRANCH  14  19
ATOM     19  C   UNL     1      -2.233   1.016  22.267  0.00  0.00    +0.090 C 
BRANCH  19  20
ATOM      5  O   UNL     1       0.899   1.683  23.917  0.00  0.00    -0.354 OA
ATOM      7  N   UNL     1      -0.446   1.938  23.686  0.00  0.00    -0.083 NA
ATOM     20  C   UNL     1      -0.815   1.039  22.768  0.00  0.00    +0.087 A 
ATOM     21  C   UNL     1       0.246   0.201  22.386  0.00  0.00    +0.076 A 
ATOM     22  C   UNL     1       1.301   0.648  23.138  0.00  0.00    +0.167 A 
BRANCH  22  23
ATOM      1  F   UNL     1       6.639  -0.836  23.646  0.00  0.00    -0.205 F 
ATOM     23  C   UNL     1       2.677   0.266  23.270  0.00  0.00    +0.020 A 
ATOM     24  C   UNL     1       3.687   1.194  23.013  0.00  0.00    +0.014 A 
ATOM     25  C   UNL     1       3.006  -1.033  23.655  0.00  0.00    +0.014 A 
ATOM     26  C   UNL     1       5.025   0.822  23.140  0.00  0.00    +0.039 A 
ATOM     27  C   UNL     1       4.345  -1.406  23.781  0.00  0.00    +0.039 A 
ATOM     28  C   UNL     1       5.354  -0.478  23.525  0.00  0.00    +0.123 A 
ENDBRANCH  22  23
ENDBRANCH  19  20
ENDBRANCH  14  19
TORSDOF 7
ENDMDL
MODEL 6
REMARK VINA RESULT:       0.6      2.604      4.027
REMARK  Name = 75536245
REMARK  7 active torsions:
REMARK  status: ('A' for Active; 'I' for Inactive)
REMARK    1  A    between atoms: O_3  and  C_13
REMARK    2  A    between atoms: N_6  and  C_17
REMARK    3  A    between atoms: C_8  and  C_18
REMARK    4  A    between atoms: C_11  and  C_17
REMARK    5  A    between atoms: C_14  and  C_19
REMARK    6  A    between atoms: C_19  and  C_20
REMARK    7  A    between atoms: C_22  and  C_23
REMARK                            x       y       z     vdW  Elec       q    Type
REMARK                         _______ _______ _______ _____ _____    ______ ____
ROOT
ATOM      2  O   UNL     1      -2.512   1.665  24.760  0.00  0.00    -0.369 OA
ATOM     11  C   UNL     1      -2.697   3.081  24.637  0.00  0.00    +0.164 C 
ATOM     13  C   UNL     1      -4.025   3.411  23.943  0.00  0.00    +0.145 C 
ATOM     14  C   UNL     1      -3.567   0.969  25.427  0.00  0.00    +0.125 C 
ATOM     15  C   UNL     1      -5.204   2.663  24.558  0.00  0.00    +0.036 C 
ATOM     16  C   UNL     1      -4.894   1.176  24.698  0.00  0.00    +0.034 C 
ENDROOT
BRANCH  13   3
ATOM      3  O   UNL     1      -3.934   3.028  22.568  0.00  0.00    -0.389 OA
ATOM     30  H   UNL     1      -4.809   2.702  22.296  0.00  0.00    +0.210 HD
ENDBRANCH  13   3
BRANCH  11  17
ATOM     17  C   UNL     1      -2.541   3.775  25.987  0.00  0.00    +0.138 C 
BRANCH  17   6
ATOM      4  O   UNL     1       0.252   3.592  25.343  0.00  0.00    -0.276 OA
ATOM      6  N   UNL     1      -1.518   3.150  26.770  0.00  0.00    -0.313 N 
ATOM     18  C   UNL     1      -0.176   3.100  26.392  0.00  0.00    +0.216 C 
ATOM     29  H   UNL     1      -1.795   2.692  27.634  0.00  0.00    +0.149 HD
BRANCH  18   8
ATOM      8  C   UNL     1       0.722   2.367  27.392  0.00  0.00    +0.075 C 
ATOM      9  C   UNL     1       2.024   3.073  27.853  0.00  0.00    +0.013 C 
ATOM     10  C   UNL     1       0.294   2.381  28.882  0.00  0.00    +0.013 C 
ATOM     12  C   UNL     1       1.790   2.455  29.244  0.00  0.00    +0.001 C 
ENDBRANCH  18   8
ENDBRANCH  17   6
ENDBRANCH  11  17
BRANCH  14  19
ATOM     19  C   UNL     1      -3.192  -0.508  25.462  0.00  0.00    +0.090 C 
BRANCH  19  20
ATOM      5  O   UNL     1      -0.313  -1.811  23.732  0.00  0.00    -0.354 OA
ATOM      7  N   UNL     1      -1.621  -1.910  24.188  0.00  0.00    -0.083 NA
ATOM     20  C   UNL     1      -1.852  -0.759  24.826  0.00  0.00    +0.087 A 
ATOM     21  C   UNL     1      -0.736   0.095  24.805  0.00  0.00    +0.076 A 
ATOM     22  C   UNL     1       0.204  -0.614  24.105  0.00  0.00    +0.167 A 
BRANCH  22  23
ATOM      1  F   UNL     1       5.454   0.351  22.538  0.00  0.00    -0.205 F 
ATOM     23  C   UNL     1       1.558  -0.366  23.700  0.00  0.00    +0.020 A 
ATOM     24  C   UNL     1       2.515  -1.374  23.811  0.00  0.00    +0.014 A 
ATOM     25  C   UNL     1       1.916   0.884  23.196  0.00  0.00    +0.014 A 
ATOM     26  C   UNL     1       3.831  -1.132  23.418  0.00  0.00    +0.039 A 
ATOM     27  C   UNL     1       3.233   1.127  22.804  0.00  0.00    +0.039 A 
ATOM     28  C   UNL     1       4.190   0.118  22.914  0.00  0.00    +0.123 A 
ENDBRANCH  22  23
ENDBRANCH  19  20
ENDBRANCH  14  19
TORSDOF 7
ENDMDL
MODEL 7
REMARK VINA RESULT:       0.6      3.509      7.202
REMARK  Name = 75536245
REMARK  7 active torsions:
REMARK  status: ('A' for Active; 'I' for Inactive)
REMARK    1  A    between atoms: O_3  and  C_13
REMARK    2  A    between atoms: N_6  and  C_17
REMARK    3  A    between atoms: C_8  and  C_18
REMARK    4  A    between atoms: C_11  and  C_17
REMARK    5  A    between atoms: C_14  and  C_19
REMARK    6  A    between atoms: C_19  and  C_20
REMARK    7  A    between atoms: C_22  and  C_23
REMARK                            x       y       z     vdW  Elec       q    Type
REMARK                         _______ _______ _______ _____ _____    ______ ____
ROOT
ATOM      2  O   UNL     1      -1.884   3.547  24.512  0.00  0.00    -0.369 OA
ATOM     11  C   UNL     1      -0.453   3.565  24.427  0.00  0.00    +0.164 C 
ATOM     13  C   UNL     1       0.070   4.977  24.133  0.00  0.00    +0.145 C 
ATOM     14  C   UNL     1      -2.449   4.455  25.460  0.00  0.00    +0.125 C 
ATOM     15  C   UNL     1      -0.528   6.024  25.068  0.00  0.00    +0.036 C 
ATOM     16  C   UNL     1      -2.046   5.893  25.135  0.00  0.00    +0.034 C 
ENDROOT
BRANCH  13   3
ATOM      3  O   UNL     1      -0.287   5.332  22.795  0.00  0.00    -0.389 OA
ATOM     30  H   UNL     1      -1.219   5.086  22.664  0.00  0.00    +0.210 HD
ENDBRANCH  13   3
BRANCH  11  17
ATOM     17  C   UNL     1       0.179   2.939  25.667  0.00  0.00    +0.138 C 
BRANCH  17   6
ATOM      4  O   UNL     1      -0.555   1.377  23.372  0.00  0.00    -0.276 OA
ATOM      6  N   UNL     1       0.317   1.522  25.514  0.00  0.00    -0.313 N 
ATOM     18  C   UNL     1      -0.063   0.829  24.365  0.00  0.00    +0.216 C 
ATOM     29  H   UNL     1       0.683   0.993  26.300  0.00  0.00    +0.149 HD
BRANCH  18   8
ATOM      8  C   UNL     1       0.174  -0.682  24.447  0.00  0.00    +0.075 C 
ATOM      9  C   UNL     1      -0.370  -1.436  25.690  0.00  0.00    +0.013 C 
ATOM     10  C   UNL     1      -0.746  -1.599  23.601  0.00  0.00    +0.013 C 
ATOM     12  C   UNL     1      -0.683  -2.618  24.753  0.00  0.00    +0.001 C 
ENDBRANCH  18   8
ENDBRANCH  17   6
ENDBRANCH  11  17
BRANCH  14  19
ATOM     19  C   UNL     1      -3.963   4.290  25.408  0.00  0.00    +0.090 C 
BRANCH  19  20
ATOM      5  O   UNL     1      -5.663   1.140  24.998  0.00  0.00    -0.354 OA
ATOM      7  N   UNL     1      -5.654   2.515  25.192  0.00  0.00    -0.083 NA
ATOM     20  C   UNL     1      -4.361   2.853  25.212  0.00  0.00    +0.087 A 
ATOM     21  C   UNL     1      -3.518   1.742  25.038  0.00  0.00    +0.076 A 
ATOM     22  C   UNL     1      -4.386   0.690  24.908  0.00  0.00    +0.167 A 
BRANCH  22  23
ATOM      1  F   UNL     1      -3.798  -4.784  24.111  0.00  0.00    -0.205 F 
ATOM     23  C   UNL     1      -4.235  -0.721  24.703  0.00  0.00    +0.020 A 
ATOM     24  C   UNL     1      -3.751  -1.528  25.733  0.00  0.00    +0.014 A 
ATOM     25  C   UNL     1      -4.573  -1.286  23.473  0.00  0.00    +0.014 A 
ATOM     26  C   UNL     1      -3.603  -2.900  25.533  0.00  0.00    +0.039 A 
ATOM     27  C   UNL     1      -4.424  -2.660  23.273  0.00  0.00    +0.039 A 
ATOM     28  C   UNL     1      -3.940  -3.466  24.303  0.00  0.00    +0.123 A 
ENDBRANCH  22  23
ENDBRANCH  19  20
ENDBRANCH  14  19
TORSDOF 7
ENDMDL
MODEL 8
REMARK VINA RESULT:       0.7      2.909      7.551
REMARK  Name = 75536245
REMARK  7 active torsions:
REMARK  status: ('A' for Active; 'I' for Inactive)
REMARK    1  A    between atoms: O_3  and  C_13
REMARK    2  A    between atoms: N_6  and  C_17
REMARK    3  A    between atoms: C_8  and  C_18
REMARK    4  A    between atoms: C_11  and  C_17
REMARK    5  A    between atoms: C_14  and  C_19
REMARK    6  A    between atoms: C_19  and  C_20
REMARK    7  A    between atoms: C_22  and  C_23
REMARK                            x       y       z     vdW  Elec       q    Type
REMARK                         _______ _______ _______ _____ _____    ______ ____
ROOT
ATOM      2  O   UNL     1      -1.691   3.329  24.129  0.00  0.00    -0.369 OA
ATOM     11  C   UNL     1      -0.296   3.347  23.799  0.00  0.00    +0.164 C 
ATOM     13  C   UNL     1       0.238   4.783  23.710  0.00  0.00    +0.145 C 
ATOM     14  C   UNL     1      -2.042   4.027  25.325  0.00  0.00    +0.125 C 
ATOM     15  C   UNL     1      -0.142   5.620  24.927  0.00  0.00    +0.036 C 
ATOM     16  C   UNL     1      -1.632   5.497  25.232  0.00  0.00    +0.034 C 
ENDROOT
BRANCH  13   3
ATOM      3  O   UNL     1      -0.324   5.412  22.555  0.00  0.00    -0.389 OA
ATOM     30  H   UNL     1      -0.400   6.363  22.747  0.00  0.00    +0.210 HD
ENDBRANCH  13   3
BRANCH  11  17
ATOM     17  C   UNL     1       0.507   2.470  24.756  0.00  0.00    +0.138 C 
BRANCH  17   6
ATOM      4  O   UNL     1       0.437   0.046  23.218  0.00  0.00    -0.276 OA
ATOM      6  N   UNL     1       1.607   1.849  24.082  0.00  0.00    -0.313 N 
ATOM     18  C   UNL     1       1.497   0.666  23.351  0.00  0.00    +0.216 C 
ATOM     29  H   UNL     1       2.522   2.281  24.170  0.00  0.00    +0.149 HD
BRANCH  18   8
ATOM      8  C   UNL     1       2.817   0.197  22.732  0.00  0.00    +0.075 C 
ATOM      9  C   UNL     1       4.021   1.175  22.761  0.00  0.00    +0.013 C 
ATOM     10  C   UNL     1       3.697  -0.768  23.568  0.00  0.00    +0.013 C 
ATOM     12  C   UNL     1       4.928  -0.051  22.981  0.00  0.00    +0.001 C 
ENDBRANCH  18   8
ENDBRANCH  17   6
ENDBRANCH  11  17
BRANCH  14  19
ATOM     19  C   UNL     1      -3.549   3.895  25.507  0.00  0.00    +0.090 C 
BRANCH  19  20
ATOM      5  O   UNL     1      -5.399   0.833  25.077  0.00  0.00    -0.354 OA
ATOM      7  N   UNL     1      -5.322   2.198  25.324  0.00  0.00    -0.083 NA
ATOM     20  C   UNL     1      -4.017   2.484  25.280  0.00  0.00    +0.087 A 
ATOM     21  C   UNL     1      -3.232   1.349  25.013  0.00  0.00    +0.076 A 
ATOM     22  C   UNL     1      -4.150   0.339  24.894  0.00  0.00    +0.167 A 
BRANCH  22  23
ATOM      1  F   UNL     1      -3.836  -5.117  23.850  0.00  0.00    -0.205 F 
ATOM     23  C   UNL     1      -4.069  -1.068  24.625  0.00  0.00    +0.020 A 
ATOM     24  C   UNL     1      -3.353  -1.902  25.484  0.00  0.00    +0.014 A 
ATOM     25  C   UNL     1      -4.707  -1.601  23.505  0.00  0.00    +0.014 A 
ATOM     26  C   UNL     1      -3.275  -3.270  25.223  0.00  0.00    +0.039 A 
ATOM     27  C   UNL     1      -4.627  -2.969  23.243  0.00  0.00    +0.039 A 
ATOM     28  C   UNL     1      -3.912  -3.804  24.102  0.00  0.00    +0.123 A 
ENDBRANCH  22  23
ENDBRANCH  19  20
ENDBRANCH  14  19
TORSDOF 7
ENDMDL
MODEL 9
REMARK VINA RESULT:       0.8      3.273      5.423
REMARK  Name = 75536245
REMARK  7 active torsions:
REMARK  status: ('A' for Active; 'I' for Inactive)
REMARK    1  A    between atoms: O_3  and  C_13
REMARK    2  A    between atoms: N_6  and  C_17
REMARK    3  A    between atoms: C_8  and  C_18
REMARK    4  A    between atoms: C_11  and  C_17
REMARK    5  A    between atoms: C_14  and  C_19
REMARK    6  A    between atoms: C_19  and  C_20
REMARK    7  A    between atoms: C_22  and  C_23
REMARK                            x       y       z     vdW  Elec       q    Type
REMARK                         _______ _______ _______ _____ _____    ______ ____
ROOT
ATOM      2  O   UNL     1      -3.735   1.881  25.362  0.00  0.00    -0.369 OA
ATOM     11  C   UNL     1      -4.728   0.902  25.692  0.00  0.00    +0.164 C 
ATOM     13  C   UNL     1      -6.125   1.531  25.779  0.00  0.00    +0.145 C 
ATOM     14  C   UNL     1      -3.984   2.621  24.165  0.00  0.00    +0.125 C 
ATOM     15  C   UNL     1      -6.453   2.389  24.561  0.00  0.00    +0.036 C 
ATOM     16  C   UNL     1      -5.317   3.362  24.257  0.00  0.00    +0.034 C 
ENDROOT
BRANCH  13   3
ATOM      3  O   UNL     1      -6.179   2.373  26.934  0.00  0.00    -0.389 OA
ATOM     30  H   UNL     1      -6.669   3.176  26.688  0.00  0.00    +0.210 HD
ENDBRANCH  13   3
BRANCH  11  17
ATOM     17  C   UNL     1      -4.667  -0.286  24.735  0.00  0.00    +0.138 C 
BRANCH  17   6
ATOM      4  O   UNL     1      -3.417  -2.838  25.153  0.00  0.00    -0.276 OA
ATOM      6  N   UNL     1      -3.311  -0.637  24.438  0.00  0.00    -0.313 N 
ATOM     18  C   UNL     1      -2.771  -1.902  24.669  0.00  0.00    +0.216 C 
ATOM     29  H   UNL     1      -2.704   0.089  24.067  0.00  0.00    +0.149 HD
BRANCH  18   8
ATOM      8  C   UNL     1      -1.296  -2.026  24.277  0.00  0.00    +0.075 C 
ATOM      9  C   UNL     1      -0.663  -0.873  23.455  0.00  0.00    +0.013 C 
ATOM     10  C   UNL     1      -0.237  -1.710  25.365  0.00  0.00    +0.013 C 
ATOM     12  C   UNL     1       0.636  -1.107  24.248  0.00  0.00    +0.001 C 
ENDBRANCH  18   8
ENDBRANCH  17   6
ENDBRANCH  11  17
BRANCH  14  19
ATOM     19  C   UNL     1      -2.831   3.601  23.984  0.00  0.00    +0.090 C 
BRANCH  19  20
ATOM      5  O   UNL     1       0.334   2.439  25.258  0.00  0.00    -0.354 OA
ATOM      7  N   UNL     1      -0.566   2.669  24.224  0.00  0.00    -0.083 NA
ATOM     20  C   UNL     1      -1.635   3.215  24.811  0.00  0.00    +0.087 A 
ATOM     21  C   UNL     1      -1.468   3.352  26.200  0.00  0.00    +0.076 A 
ATOM     22  C   UNL     1      -0.214   2.849  26.429  0.00  0.00    +0.167 A 
BRANCH  22  23
ATOM      1  F   UNL     1       2.960   2.179  30.949  0.00  0.00    -0.205 F 
ATOM     23  C   UNL     1       0.604   2.677  27.594  0.00  0.00    +0.020 A 
ATOM     24  C   UNL     1       1.987   2.842  27.506  0.00  0.00    +0.014 A 
ATOM     25  C   UNL     1       0.017   2.345  28.815  0.00  0.00    +0.014 A 
ATOM     26  C   UNL     1       2.783   2.674  28.639  0.00  0.00    +0.039 A 
ATOM     27  C   UNL     1       0.814   2.175  29.948  0.00  0.00    +0.039 A 
ATOM     28  C   UNL     1       2.196   2.341  29.861  0.00  0.00    +0.123 A 
ENDBRANCH  22  23
ENDBRANCH  19  20
ENDBRANCH  14  19
TORSDOF 7
ENDMDL
