MODEL 1
REMARK VINA RESULT:       1.6      0.000      0.000
REMARK  Name = 40776834
REMARK  13 active torsions:
REMARK  status: ('A' for Active; 'I' for Inactive)
REMARK    1  A    between atoms: S_1  and  N_7
REMARK    2  A    between atoms: S_1  and  C_22
REMARK    3  A    between atoms: O_4  and  C_29
REMARK    4  A    between atoms: O_4  and  C_32
REMARK    5  A    between atoms: O_5  and  C_31
REMARK    6  A    between atoms: O_5  and  C_33
REMARK    7  A    between atoms: N_7  and  C_17
REMARK    8  A    between atoms: C_11  and  C_18
REMARK    9  A    between atoms: C_12  and  C_17
REMARK   10  A    between atoms: C_20  and  C_23
REMARK   11  A    between atoms: C_21  and  C_25
REMARK   12  A    between atoms: C_22  and  C_24
REMARK   13  A    between atoms: C_24  and  C_28
REMARK                            x       y       z     vdW  Elec       q    Type
REMARK                         _______ _______ _______ _____ _____    ______ ____
ROOT
ATOM      6  N   UNL     1      -4.634   3.392  25.681  0.00  0.00    -0.297 NA
ATOM     10  C   UNL     1      -5.483   1.198  24.563  0.00  0.00    +0.002 C 
ATOM     11  C   UNL     1      -4.284   0.900  25.506  0.00  0.00    +0.055 C 
ATOM     12  C   UNL     1      -4.755   3.584  24.212  0.00  0.00    +0.072 C 
ATOM     13  C   UNL     1      -5.055   2.242  23.510  0.00  0.00    +0.024 C 
ATOM     14  C   UNL     1      -6.579   1.851  25.431  0.00  0.00    +0.019 C 
ATOM     15  C   UNL     1      -3.710   2.268  25.973  0.00  0.00    +0.094 C 
ATOM     16  C   UNL     1      -5.975   3.036  26.204  0.00  0.00    +0.085 C 
ENDROOT
BRANCH  11  18
ATOM      8  N   UNL     1      -3.509  -1.355  24.965  0.00  0.00    -0.237 NA
ATOM      9  N   UNL     1      -1.288  -1.785  24.132  0.00  0.00    -0.232 NA
ATOM     18  C   UNL     1      -3.197  -0.044  25.011  0.00  0.00    +0.050 A 
ATOM     19  C   UNL     1      -1.970   0.466  24.640  0.00  0.00    +0.052 A 
ATOM     20  C   UNL     1      -1.045  -0.460  24.204  0.00  0.00    +0.075 A 
ATOM     21  C   UNL     1      -2.521  -2.159  24.522  0.00  0.00    +0.127 A 
ATOM     25  C   UNL     1      -2.828  -3.616  24.459  0.00  0.00    +0.088 C 
BRANCH  20  23
ATOM     23  C   UNL     1       0.277  -0.055  23.789  0.00  0.00    +0.004 A 
ATOM     26  C   UNL     1       1.260  -1.018  23.558  0.00  0.00    +0.059 A 
ATOM     27  C   UNL     1       0.571   1.298  23.619  0.00  0.00    +0.014 A 
ATOM     29  C   UNL     1       2.538  -0.628  23.157  0.00  0.00    +0.162 A 
ATOM     30  C   UNL     1       1.849   1.688  23.217  0.00  0.00    +0.050 A 
ATOM     31  C   UNL     1       2.832   0.725  22.986  0.00  0.00    +0.162 A 
BRANCH  29   4
ATOM      4  O   UNL     1       3.489  -1.576  22.932  0.00  0.00    -0.491 OA
ATOM     32  C   UNL     1       4.407  -1.836  23.992  0.00  0.00    +0.277 C 
ENDBRANCH  29   4
BRANCH  31   5
ATOM      5  O   UNL     1       4.076   1.118  22.594  0.00  0.00    -0.491 OA
ATOM     33  C   UNL     1       5.137   0.944  23.533  0.00  0.00    +0.277 C 
ENDBRANCH  31   5
ENDBRANCH  20  23
ENDBRANCH  11  18
BRANCH  12  17
ATOM     17  C   UNL     1      -3.530   4.279  23.613  0.00  0.00    +0.124 C 
BRANCH  17   7
ATOM      7  N   UNL     1      -2.322   3.640  24.036  0.00  0.00    -0.193 NA
ATOM     34  H   UNL     1      -1.952   2.947  23.372  0.00  0.00    +0.148 HD
BRANCH   7   1
ATOM      1  S   UNL     1      -1.131   4.518  24.930  0.00  0.00    +0.029 S 
ATOM      2  O   UNL     1      -1.690   5.793  25.335  0.00  0.00    -0.158 OA
ATOM      3  O   UNL     1       0.144   4.452  24.242  0.00  0.00    -0.158 OA
BRANCH   1  22
ATOM     22  C   UNL     1      -1.007   3.491  26.376  0.00  0.00    +0.185 C 
BRANCH  22  24
ATOM     24  C   UNL     1       0.285   2.692  26.380  0.00  0.00    +0.021 C 
ATOM     28  C   UNL     1       0.757   2.405  27.795  0.00  0.00    +0.005 C 
ENDBRANCH  22  24
ENDBRANCH   1  22
ENDBRANCH   7   1
ENDBRANCH  17   7
ENDBRANCH  12  17
TORSDOF 9
ENDMDL
MODEL 2
REMARK VINA RESULT:       2.7      1.606      2.397
REMARK  Name = 40776834
REMARK  13 active torsions:
REMARK  status: ('A' for Active; 'I' for Inactive)
REMARK    1  A    between atoms: S_1  and  N_7
REMARK    2  A    between atoms: S_1  and  C_22
REMARK    3  A    between atoms: O_4  and  C_29
REMARK    4  A    between atoms: O_4  and  C_32
REMARK    5  A    between atoms: O_5  and  C_31
REMARK    6  A    between atoms: O_5  and  C_33
REMARK    7  A    between atoms: N_7  and  C_17
REMARK    8  A    between atoms: C_11  and  C_18
REMARK    9  A    between atoms: C_12  and  C_17
REMARK   10  A    between atoms: C_20  and  C_23
REMARK   11  A    between atoms: C_21  and  C_25
REMARK   12  A    between atoms: C_22  and  C_24
REMARK   13  A    between atoms: C_24  and  C_28
REMARK                            x       y       z     vdW  Elec       q    Type
REMARK                         _______ _______ _______ _____ _____    ______ ____
ROOT
ATOM      6  N   UNL     1      -4.328   3.444  25.408  0.00  0.00    -0.297 NA
ATOM     10  C   UNL     1      -3.348   2.558  23.163  0.00  0.00    +0.002 C 
ATOM     11  C   UNL     1      -3.892   1.382  24.022  0.00  0.00    +0.055 C 
ATOM     12  C   UNL     1      -2.968   4.006  25.189  0.00  0.00    +0.072 C 
ATOM     13  C   UNL     1      -2.290   3.335  23.975  0.00  0.00    +0.024 C 
ATOM     14  C   UNL     1      -4.532   3.518  22.923  0.00  0.00    +0.019 C 
ATOM     15  C   UNL     1      -4.270   1.962  25.415  0.00  0.00    +0.094 C 
ATOM     16  C   UNL     1      -5.182   3.869  24.273  0.00  0.00    +0.085 C 
ENDROOT
BRANCH  11  18
ATOM      8  N   UNL     1      -3.702  -1.025  24.411  0.00  0.00    -0.237 NA
ATOM      9  N   UNL     1      -1.585  -2.175  24.338  0.00  0.00    -0.232 NA
ATOM     18  C   UNL     1      -3.048   0.120  24.131  0.00  0.00    +0.050 A 
ATOM     19  C   UNL     1      -1.683   0.197  23.943  0.00  0.00    +0.052 A 
ATOM     20  C   UNL     1      -0.996  -0.994  24.060  0.00  0.00    +0.075 A 
ATOM     21  C   UNL     1      -2.921  -2.119  24.500  0.00  0.00    +0.127 A 
ATOM     25  C   UNL     1      -3.609  -3.405  24.811  0.00  0.00    +0.088 C 
BRANCH  20  23
ATOM     23  C   UNL     1       0.437  -1.049  23.889  0.00  0.00    +0.004 A 
ATOM     26  C   UNL     1       1.060  -0.215  22.960  0.00  0.00    +0.059 A 
ATOM     27  C   UNL     1       1.198  -1.934  24.652  0.00  0.00    +0.014 A 
ATOM     29  C   UNL     1       2.444  -0.266  22.794  0.00  0.00    +0.162 A 
ATOM     30  C   UNL     1       2.582  -1.986  24.486  0.00  0.00    +0.050 A 
ATOM     31  C   UNL     1       3.205  -1.152  23.558  0.00  0.00    +0.162 A 
BRANCH  29   4
ATOM      4  O   UNL     1       3.042   0.554  21.886  0.00  0.00    -0.491 OA
ATOM     32  C   UNL     1       3.892   1.578  22.399  0.00  0.00    +0.277 C 
ENDBRANCH  29   4
BRANCH  31   5
ATOM      5  O   UNL     1       4.557  -1.210  23.405  0.00  0.00    -0.491 OA
ATOM     33  C   UNL     1       5.351  -0.601  24.422  0.00  0.00    +0.277 C 
ENDBRANCH  31   5
ENDBRANCH  20  23
ENDBRANCH  11  18
BRANCH  12  17
ATOM     17  C   UNL     1      -2.097   3.927  26.445  0.00  0.00    +0.124 C 
BRANCH  17   7
ATOM      7  N   UNL     1      -0.709   3.888  26.100  0.00  0.00    -0.193 NA
ATOM     34  H   UNL     1      -0.174   4.716  26.394  0.00  0.00    +0.148 HD
BRANCH   7   1
ATOM      1  S   UNL     1       0.162   2.396  26.134  0.00  0.00    +0.029 S 
ATOM      2  O   UNL     1       0.917   2.261  24.904  0.00  0.00    -0.158 OA
ATOM      3  O   UNL     1      -0.710   1.330  26.589  0.00  0.00    -0.158 OA
BRANCH   1  22
ATOM     22  C   UNL     1       1.312   2.736  27.447  0.00  0.00    +0.185 C 
BRANCH  22  24
ATOM     24  C   UNL     1       0.746   2.334  28.798  0.00  0.00    +0.021 C 
ATOM     28  C   UNL     1       1.832   2.268  29.859  0.00  0.00    +0.005 C 
ENDBRANCH  22  24
ENDBRANCH   1  22
ENDBRANCH   7   1
ENDBRANCH  17   7
ENDBRANCH  12  17
TORSDOF 9
ENDMDL
MODEL 3
REMARK VINA RESULT:       3.0      2.501      4.572
REMARK  Name = 40776834
REMARK  13 active torsions:
REMARK  status: ('A' for Active; 'I' for Inactive)
REMARK    1  A    between atoms: S_1  and  N_7
REMARK    2  A    between atoms: S_1  and  C_22
REMARK    3  A    between atoms: O_4  and  C_29
REMARK    4  A    between atoms: O_4  and  C_32
REMARK    5  A    between atoms: O_5  and  C_31
REMARK    6  A    between atoms: O_5  and  C_33
REMARK    7  A    between atoms: N_7  and  C_17
REMARK    8  A    between atoms: C_11  and  C_18
REMARK    9  A    between atoms: C_12  and  C_17
REMARK   10  A    between atoms: C_20  and  C_23
REMARK   11  A    between atoms: C_21  and  C_25
REMARK   12  A    between atoms: C_22  and  C_24
REMARK   13  A    between atoms: C_24  and  C_28
REMARK                            x       y       z     vdW  Elec       q    Type
REMARK                         _______ _______ _______ _____ _____    ______ ____
ROOT
ATOM      6  N   UNL     1      -5.908   1.479  24.025  0.00  0.00    -0.297 NA
ATOM     10  C   UNL     1      -4.562   2.137  26.156  0.00  0.00    +0.002 C 
ATOM     11  C   UNL     1      -4.151   3.033  24.954  0.00  0.00    +0.055 C 
ATOM     12  C   UNL     1      -5.313   0.266  24.645  0.00  0.00    +0.072 C 
ATOM     13  C   UNL     1      -4.345   0.655  25.784  0.00  0.00    +0.024 C 
ATOM     14  C   UNL     1      -6.078   2.336  26.361  0.00  0.00    +0.019 C 
ATOM     15  C   UNL     1      -4.841   2.453  23.686  0.00  0.00    +0.094 C 
ATOM     16  C   UNL     1      -6.806   2.106  25.026  0.00  0.00    +0.085 C 
ENDROOT
BRANCH  11  18
ATOM      8  N   UNL     1      -2.254   4.576  24.909  0.00  0.00    -0.237 NA
ATOM      9  N   UNL     1      -0.024   3.853  24.350  0.00  0.00    -0.232 NA
ATOM     18  C   UNL     1      -2.670   3.305  24.733  0.00  0.00    +0.050 A 
ATOM     19  C   UNL     1      -1.835   2.268  24.371  0.00  0.00    +0.052 A 
ATOM     20  C   UNL     1      -0.508   2.604  24.191  0.00  0.00    +0.075 A 
ATOM     21  C   UNL     1      -0.937   4.776  24.703  0.00  0.00    +0.127 A 
ATOM     25  C   UNL     1      -0.440   6.170  24.886  0.00  0.00    +0.088 C 
BRANCH  20  23
ATOM     23  C   UNL     1       0.467   1.611  23.810  0.00  0.00    +0.004 A 
ATOM     26  C   UNL     1       1.776   1.995  23.519  0.00  0.00    +0.059 A 
ATOM     27  C   UNL     1       0.102   0.267  23.733  0.00  0.00    +0.014 A 
ATOM     29  C   UNL     1       2.720   1.037  23.150  0.00  0.00    +0.162 A 
ATOM     30  C   UNL     1       1.046  -0.693  23.365  0.00  0.00    +0.050 A 
ATOM     31  C   UNL     1       2.354  -0.307  23.074  0.00  0.00    +0.162 A 
BRANCH  29   4
ATOM      4  O   UNL     1       3.996   1.424  22.870  0.00  0.00    -0.491 OA
ATOM     32  C   UNL     1       5.037   0.824  23.638  0.00  0.00    +0.277 C 
ENDBRANCH  29   4
BRANCH  31   5
ATOM      5  O   UNL     1       3.267  -1.253  22.716  0.00  0.00    -0.491 OA
ATOM     33  C   UNL     1       4.060  -1.817  23.760  0.00  0.00    +0.277 C 
ENDBRANCH  31   5
ENDBRANCH  20  23
ENDBRANCH  11  18
BRANCH  12  17
ATOM     17  C   UNL     1      -4.644  -0.646  23.615  0.00  0.00    +0.124 C 
BRANCH  17   7
ATOM      7  N   UNL     1      -3.317  -0.991  24.024  0.00  0.00    -0.193 NA
ATOM     34  H   UNL     1      -2.860  -0.289  24.621  0.00  0.00    +0.148 HD
BRANCH   7   1
ATOM      1  S   UNL     1      -2.904  -2.634  24.366  0.00  0.00    +0.029 S 
ATOM      2  O   UNL     1      -1.567  -2.898  23.870  0.00  0.00    -0.158 OA
ATOM      3  O   UNL     1      -4.011  -3.502  24.010  0.00  0.00    -0.158 OA
BRANCH   1  22
ATOM     22  C   UNL     1      -2.826  -2.573  26.141  0.00  0.00    +0.185 C 
BRANCH  22  24
ATOM     24  C   UNL     1      -2.497  -1.175  26.633  0.00  0.00    +0.021 C 
ATOM     28  C   UNL     1      -1.012  -0.878  26.513  0.00  0.00    +0.005 C 
ENDBRANCH  22  24
ENDBRANCH   1  22
ENDBRANCH   7   1
ENDBRANCH  17   7
ENDBRANCH  12  17
TORSDOF 9
ENDMDL
MODEL 4
REMARK VINA RESULT:       3.3      0.961      1.583
REMARK  Name = 40776834
REMARK  13 active torsions:
REMARK  status: ('A' for Active; 'I' for Inactive)
REMARK    1  A    between atoms: S_1  and  N_7
REMARK    2  A    between atoms: S_1  and  C_22
REMARK    3  A    between atoms: O_4  and  C_29
REMARK    4  A    between atoms: O_4  and  C_32
REMARK    5  A    between atoms: O_5  and  C_31
REMARK    6  A    between atoms: O_5  and  C_33
REMARK    7  A    between atoms: N_7  and  C_17
REMARK    8  A    between atoms: C_11  and  C_18
REMARK    9  A    between atoms: C_12  and  C_17
REMARK   10  A    between atoms: C_20  and  C_23
REMARK   11  A    between atoms: C_21  and  C_25
REMARK   12  A    between atoms: C_22  and  C_24
REMARK   13  A    between atoms: C_24  and  C_28
REMARK                            x       y       z     vdW  Elec       q    Type
REMARK                         _______ _______ _______ _____ _____    ______ ____
ROOT
ATOM      6  N   UNL     1      -3.990   3.398  25.442  0.00  0.00    -0.297 NA
ATOM     10  C   UNL     1      -5.380   1.311  24.737  0.00  0.00    +0.002 C 
ATOM     11  C   UNL     1      -4.134   0.883  25.562  0.00  0.00    +0.055 C 
ATOM     12  C   UNL     1      -4.283   3.451  23.985  0.00  0.00    +0.072 C 
ATOM     13  C   UNL     1      -4.923   2.128  23.510  0.00  0.00    +0.024 C 
ATOM     14  C   UNL     1      -6.202   2.261  25.634  0.00  0.00    +0.019 C 
ATOM     15  C   UNL     1      -3.257   2.151  25.769  0.00  0.00    +0.094 C 
ATOM     16  C   UNL     1      -5.285   3.378  26.164  0.00  0.00    +0.085 C 
ENDROOT
BRANCH  11  18
ATOM      8  N   UNL     1      -3.999  -1.454  24.855  0.00  0.00    -0.237 NA
ATOM      9  N   UNL     1      -1.919  -2.477  24.192  0.00  0.00    -0.232 NA
ATOM     18  C   UNL     1      -3.323  -0.307  25.071  0.00  0.00    +0.050 A 
ATOM     19  C   UNL     1      -1.964  -0.170  24.874  0.00  0.00    +0.052 A 
ATOM     20  C   UNL     1      -1.308  -1.299  24.429  0.00  0.00    +0.075 A 
ATOM     21  C   UNL     1      -3.246  -2.485  24.423  0.00  0.00    +0.127 A 
ATOM     25  C   UNL     1      -3.959  -3.771  24.175  0.00  0.00    +0.088 C 
BRANCH  20  23
ATOM     23  C   UNL     1       0.116  -1.287  24.185  0.00  0.00    +0.004 A 
ATOM     26  C   UNL     1       0.656  -0.401  23.252  0.00  0.00    +0.059 A 
ATOM     27  C   UNL     1       0.950  -2.160  24.883  0.00  0.00    +0.014 A 
ATOM     29  C   UNL     1       2.030  -0.388  23.017  0.00  0.00    +0.162 A 
ATOM     30  C   UNL     1       2.326  -2.147  24.648  0.00  0.00    +0.050 A 
ATOM     31  C   UNL     1       2.865  -1.261  23.715  0.00  0.00    +0.162 A 
BRANCH  29   4
ATOM      4  O   UNL     1       2.546   0.482  22.105  0.00  0.00    -0.491 OA
ATOM     32  C   UNL     1       3.348   1.548  22.610  0.00  0.00    +0.277 C 
ENDBRANCH  29   4
BRANCH  31   5
ATOM      5  O   UNL     1       4.209  -1.257  23.494  0.00  0.00    -0.491 OA
ATOM     33  C   UNL     1       5.011  -0.488  24.390  0.00  0.00    +0.277 C 
ENDBRANCH  31   5
ENDBRANCH  20  23
ENDBRANCH  11  18
BRANCH  12  17
ATOM     17  C   UNL     1      -3.049   3.817  23.156  0.00  0.00    +0.124 C 
BRANCH  17   7
ATOM      7  N   UNL     1      -1.883   3.160  23.660  0.00  0.00    -0.193 NA
ATOM     34  H   UNL     1      -1.596   2.330  23.123  0.00  0.00    +0.148 HD
BRANCH   7   1
ATOM      1  S   UNL     1      -0.589   4.074  24.352  0.00  0.00    +0.029 S 
ATOM      2  O   UNL     1      -1.118   4.915  25.408  0.00  0.00    -0.158 OA
ATOM      3  O   UNL     1       0.231   4.638  23.297  0.00  0.00    -0.158 OA
BRANCH   1  22
ATOM     22  C   UNL     1       0.346   2.766  25.110  0.00  0.00    +0.185 C 
BRANCH  22  24
ATOM     24  C   UNL     1      -0.216   2.401  26.473  0.00  0.00    +0.021 C 
ATOM     28  C   UNL     1       0.826   2.562  27.566  0.00  0.00    +0.005 C 
ENDBRANCH  22  24
ENDBRANCH   1  22
ENDBRANCH   7   1
ENDBRANCH  17   7
ENDBRANCH  12  17
TORSDOF 9
ENDMDL
MODEL 5
REMARK VINA RESULT:       3.6      2.266      4.530
REMARK  Name = 40776834
REMARK  13 active torsions:
REMARK  status: ('A' for Active; 'I' for Inactive)
REMARK    1  A    between atoms: S_1  and  N_7
REMARK    2  A    between atoms: S_1  and  C_22
REMARK    3  A    between atoms: O_4  and  C_29
REMARK    4  A    between atoms: O_4  and  C_32
REMARK    5  A    between atoms: O_5  and  C_31
REMARK    6  A    between atoms: O_5  and  C_33
REMARK    7  A    between atoms: N_7  and  C_17
REMARK    8  A    between atoms: C_11  and  C_18
REMARK    9  A    between atoms: C_12  and  C_17
REMARK   10  A    between atoms: C_20  and  C_23
REMARK   11  A    between atoms: C_21  and  C_25
REMARK   12  A    between atoms: C_22  and  C_24
REMARK   13  A    between atoms: C_24  and  C_28
REMARK                            x       y       z     vdW  Elec       q    Type
REMARK                         _______ _______ _______ _____ _____    ______ ____
ROOT
ATOM      6  N   UNL     1      -5.754   1.455  24.065  0.00  0.00    -0.297 NA
ATOM     10  C   UNL     1      -4.687   2.856  25.984  0.00  0.00    +0.002 C 
ATOM     11  C   UNL     1      -4.097   3.278  24.609  0.00  0.00    +0.055 C 
ATOM     12  C   UNL     1      -5.278   0.555  25.148  0.00  0.00    +0.072 C 
ATOM     13  C   UNL     1      -4.460   1.344  26.193  0.00  0.00    +0.024 C 
ATOM     14  C   UNL     1      -6.212   3.080  25.902  0.00  0.00    +0.019 C 
ATOM     15  C   UNL     1      -4.627   2.270  23.549  0.00  0.00    +0.094 C 
ATOM     16  C   UNL     1      -6.760   2.374  24.650  0.00  0.00    +0.085 C 
ENDROOT
BRANCH  11  18
ATOM      8  N   UNL     1      -2.135   4.728  24.773  0.00  0.00    -0.237 NA
ATOM      9  N   UNL     1       0.095   3.926  24.336  0.00  0.00    -0.232 NA
ATOM     18  C   UNL     1      -2.594   3.488  24.506  0.00  0.00    +0.050 A 
ATOM     19  C   UNL     1      -1.781   2.431  24.152  0.00  0.00    +0.052 A 
ATOM     20  C   UNL     1      -0.432   2.711  24.082  0.00  0.00    +0.075 A 
ATOM     21  C   UNL     1      -0.799   4.875  24.670  0.00  0.00    +0.127 A 
ATOM     25  C   UNL     1      -0.256   6.234  24.956  0.00  0.00    +0.088 C 
BRANCH  20  23
ATOM     23  C   UNL     1       0.524   1.691  23.721  0.00  0.00    +0.004 A 
ATOM     26  C   UNL     1       1.853   2.036  23.475  0.00  0.00    +0.059 A 
ATOM     27  C   UNL     1       0.119   0.360  23.619  0.00  0.00    +0.014 A 
ATOM     29  C   UNL     1       2.777   1.052  23.126  0.00  0.00    +0.162 A 
ATOM     30  C   UNL     1       1.044  -0.626  23.270  0.00  0.00    +0.050 A 
ATOM     31  C   UNL     1       2.372  -0.279  23.024  0.00  0.00    +0.162 A 
BRANCH  29   4
ATOM      4  O   UNL     1       4.073   1.401  22.890  0.00  0.00    -0.491 OA
ATOM     32  C   UNL     1       5.065   0.811  23.728  0.00  0.00    +0.277 C 
ENDBRANCH  29   4
BRANCH  31   5
ATOM      5  O   UNL     1       3.266  -1.250  22.685  0.00  0.00    -0.491 OA
ATOM     33  C   UNL     1       4.044  -1.812  23.742  0.00  0.00    +0.277 C 
ENDBRANCH  31   5
ENDBRANCH  20  23
ENDBRANCH  11  18
BRANCH  12  17
ATOM     17  C   UNL     1      -4.501  -0.647  24.606  0.00  0.00    +0.124 C 
BRANCH  17   7
ATOM      7  N   UNL     1      -3.091  -0.423  24.690  0.00  0.00    -0.193 NA
ATOM     34  H   UNL     1      -2.789   0.512  24.386  0.00  0.00    +0.148 HD
BRANCH   7   1
ATOM      1  S   UNL     1      -2.167  -1.114  25.978  0.00  0.00    +0.029 S 
ATOM      2  O   UNL     1      -3.073  -1.620  26.990  0.00  0.00    -0.158 OA
ATOM      3  O   UNL     1      -1.081  -0.222  26.335  0.00  0.00    -0.158 OA
BRANCH   1  22
ATOM     22  C   UNL     1      -1.454  -2.508  25.136  0.00  0.00    +0.185 C 
BRANCH  22  24
ATOM     24  C   UNL     1      -2.241  -2.863  23.887  0.00  0.00    +0.021 C 
ATOM     28  C   UNL     1      -3.499  -3.644  24.226  0.00  0.00    +0.005 C 
ENDBRANCH  22  24
ENDBRANCH   1  22
ENDBRANCH   7   1
ENDBRANCH  17   7
ENDBRANCH  12  17
TORSDOF 9
ENDMDL
MODEL 6
REMARK VINA RESULT:       4.4      1.935      3.996
REMARK  Name = 40776834
REMARK  13 active torsions:
REMARK  status: ('A' for Active; 'I' for Inactive)
REMARK    1  A    between atoms: S_1  and  N_7
REMARK    2  A    between atoms: S_1  and  C_22
REMARK    3  A    between atoms: O_4  and  C_29
REMARK    4  A    between atoms: O_4  and  C_32
REMARK    5  A    between atoms: O_5  and  C_31
REMARK    6  A    between atoms: O_5  and  C_33
REMARK    7  A    between atoms: N_7  and  C_17
REMARK    8  A    between atoms: C_11  and  C_18
REMARK    9  A    between atoms: C_12  and  C_17
REMARK   10  A    between atoms: C_20  and  C_23
REMARK   11  A    between atoms: C_21  and  C_25
REMARK   12  A    between atoms: C_22  and  C_24
REMARK   13  A    between atoms: C_24  and  C_28
REMARK                            x       y       z     vdW  Elec       q    Type
REMARK                         _______ _______ _______ _____ _____    ______ ____
ROOT
ATOM      6  N   UNL     1      -3.977  -1.309  25.919  0.00  0.00    -0.297 NA
ATOM     10  C   UNL     1      -2.870  -1.311  23.561  0.00  0.00    +0.002 C 
ATOM     11  C   UNL     1      -1.806  -1.047  24.661  0.00  0.00    +0.055 C 
ATOM     12  C   UNL     1      -4.738  -0.422  24.999  0.00  0.00    +0.072 C 
ATOM     13  C   UNL     1      -3.984  -0.248  23.663  0.00  0.00    +0.024 C 
ATOM     14  C   UNL     1      -3.515  -2.676  23.884  0.00  0.00    +0.019 C 
ATOM     15  C   UNL     1      -2.565  -0.860  26.006  0.00  0.00    +0.094 C 
ATOM     16  C   UNL     1      -3.993  -2.676  25.347  0.00  0.00    +0.085 C 
ENDROOT
BRANCH  11  18
ATOM      8  N   UNL     1      -1.199   1.322  24.594  0.00  0.00    -0.237 NA
ATOM      9  N   UNL     1       1.016   2.064  23.999  0.00  0.00    -0.232 NA
ATOM     18  C   UNL     1      -0.780   0.052  24.419  0.00  0.00    +0.050 A 
ATOM     19  C   UNL     1       0.503  -0.287  24.040  0.00  0.00    +0.052 A 
ATOM     20  C   UNL     1       1.367   0.771  23.843  0.00  0.00    +0.075 A 
ATOM     21  C   UNL     1      -0.263   2.265  24.370  0.00  0.00    +0.127 A 
ATOM     25  C   UNL     1      -0.690   3.682  24.551  0.00  0.00    +0.088 C 
BRANCH  20  23
ATOM     23  C   UNL     1       2.736   0.551  23.442  0.00  0.00    +0.004 A 
ATOM     26  C   UNL     1       3.410  -0.596  23.864  0.00  0.00    +0.059 A 
ATOM     27  C   UNL     1       3.385   1.484  22.633  0.00  0.00    +0.014 A 
ATOM     29  C   UNL     1       4.733  -0.810  23.478  0.00  0.00    +0.162 A 
ATOM     30  C   UNL     1       4.709   1.270  22.247  0.00  0.00    +0.050 A 
ATOM     31  C   UNL     1       5.382   0.123  22.669  0.00  0.00    +0.162 A 
BRANCH  29   4
ATOM      4  O   UNL     1       5.380  -1.934  23.894  0.00  0.00    -0.491 OA
ATOM     32  C   UNL     1       4.570  -3.020  24.338  0.00  0.00    +0.277 C 
ENDBRANCH  29   4
BRANCH  31   5
ATOM      5  O   UNL     1       6.674  -0.075  22.284  0.00  0.00    -0.491 OA
ATOM     33  C   UNL     1       7.643  -0.222  23.321  0.00  0.00    +0.277 C 
ENDBRANCH  31   5
ENDBRANCH  20  23
ENDBRANCH  11  18
BRANCH  12  17
ATOM     17  C   UNL     1      -5.081   0.924  25.640  0.00  0.00    +0.124 C 
BRANCH  17   7
ATOM      7  N   UNL     1      -4.025   1.868  25.441  0.00  0.00    -0.193 NA
ATOM     34  H   UNL     1      -3.332   1.589  24.734  0.00  0.00    +0.148 HD
BRANCH   7   1
ATOM      1  S   UNL     1      -4.334   3.566  25.543  0.00  0.00    +0.029 S 
ATOM      2  O   UNL     1      -3.387   4.164  26.462  0.00  0.00    -0.158 OA
ATOM      3  O   UNL     1      -5.759   3.796  25.692  0.00  0.00    -0.158 OA
BRANCH   1  22
ATOM     22  C   UNL     1      -3.886   4.063  23.895  0.00  0.00    +0.185 C 
BRANCH  22  24
ATOM     24  C   UNL     1      -4.121   2.944  22.896  0.00  0.00    +0.021 C 
ATOM     28  C   UNL     1      -2.917   2.747  21.989  0.00  0.00    +0.005 C 
ENDBRANCH  22  24
ENDBRANCH   1  22
ENDBRANCH   7   1
ENDBRANCH  17   7
ENDBRANCH  12  17
TORSDOF 9
ENDMDL
MODEL 7
REMARK VINA RESULT:       4.8      3.053      5.855
REMARK  Name = 40776834
REMARK  13 active torsions:
REMARK  status: ('A' for Active; 'I' for Inactive)
REMARK    1  A    between atoms: S_1  and  N_7
REMARK    2  A    between atoms: S_1  and  C_22
REMARK    3  A    between atoms: O_4  and  C_29
REMARK    4  A    between atoms: O_4  and  C_32
REMARK    5  A    between atoms: O_5  and  C_31
REMARK    6  A    between atoms: O_5  and  C_33
REMARK    7  A    between atoms: N_7  and  C_17
REMARK    8  A    between atoms: C_11  and  C_18
REMARK    9  A    between atoms: C_12  and  C_17
REMARK   10  A    between atoms: C_20  and  C_23
REMARK   11  A    between atoms: C_21  and  C_25
REMARK   12  A    between atoms: C_22  and  C_24
REMARK   13  A    between atoms: C_24  and  C_28
REMARK                            x       y       z     vdW  Elec       q    Type
REMARK                         _______ _______ _______ _____ _____    ______ ____
ROOT
ATOM      6  N   UNL     1      -3.268  -2.399  26.029  0.00  0.00    -0.297 NA
ATOM     10  C   UNL     1      -2.524  -2.166  23.543  0.00  0.00    +0.002 C 
ATOM     11  C   UNL     1      -1.340  -1.845  24.499  0.00  0.00    +0.055 C 
ATOM     12  C   UNL     1      -4.238  -1.553  25.284  0.00  0.00    +0.072 C 
ATOM     13  C   UNL     1      -3.709  -1.233  23.869  0.00  0.00    +0.024 C 
ATOM     14  C   UNL     1      -2.977  -3.606  23.866  0.00  0.00    +0.019 C 
ATOM     15  C   UNL     1      -1.910  -1.807  25.946  0.00  0.00    +0.094 C 
ATOM     16  C   UNL     1      -3.234  -3.730  25.377  0.00  0.00    +0.085 C 
ENDROOT
BRANCH  11  18
ATOM      8  N   UNL     1       0.741  -0.878  23.653  0.00  0.00    -0.237 NA
ATOM      9  N   UNL     1       1.126   1.501  23.607  0.00  0.00    -0.232 NA
ATOM     18  C   UNL     1      -0.474  -0.634  24.187  0.00  0.00    +0.050 A 
ATOM     19  C   UNL     1      -0.951   0.633  24.456  0.00  0.00    +0.052 A 
ATOM     20  C   UNL     1      -0.100   1.672  24.142  0.00  0.00    +0.075 A 
ATOM     21  C   UNL     1       1.478   0.219  23.391  0.00  0.00    +0.127 A 
ATOM     25  C   UNL     1       2.828  -0.012  22.802  0.00  0.00    +0.088 C 
BRANCH  20  23
ATOM     23  C   UNL     1      -0.480   3.045  24.377  0.00  0.00    +0.004 A 
ATOM     26  C   UNL     1      -1.489   3.341  25.294  0.00  0.00    +0.059 A 
ATOM     27  C   UNL     1       0.162   4.075  23.689  0.00  0.00    +0.014 A 
ATOM     29  C   UNL     1      -1.857   4.667  25.522  0.00  0.00    +0.162 A 
ATOM     30  C   UNL     1      -0.206   5.401  23.917  0.00  0.00    +0.050 A 
ATOM     31  C   UNL     1      -1.215   5.697  24.834  0.00  0.00    +0.162 A 
BRANCH  29   4
ATOM      4  O   UNL     1      -2.842   4.945  26.421  0.00  0.00    -0.491 OA
ATOM     32  C   UNL     1      -3.196   3.908  27.335  0.00  0.00    +0.277 C 
ENDBRANCH  29   4
BRANCH  31   5
ATOM      5  O   UNL     1      -1.565   6.996  25.049  0.00  0.00    -0.491 OA
ATOM     33  C   UNL     1      -2.431   7.601  24.089  0.00  0.00    +0.277 C 
ENDBRANCH  31   5
ENDBRANCH  20  23
ENDBRANCH  11  18
BRANCH  12  17
ATOM     17  C   UNL     1      -4.615  -0.285  26.052  0.00  0.00    +0.124 C 
BRANCH  17   7
ATOM      7  N   UNL     1      -4.244   0.886  25.318  0.00  0.00    -0.193 NA
ATOM     34  H   UNL     1      -3.546   0.722  24.580  0.00  0.00    +0.148 HD
BRANCH   7   1
ATOM      1  S   UNL     1      -5.413   2.111  24.969  0.00  0.00    +0.029 S 
ATOM      2  O   UNL     1      -5.501   3.014  26.100  0.00  0.00    -0.158 OA
ATOM      3  O   UNL     1      -6.606   1.504  24.410  0.00  0.00    -0.158 OA
BRANCH   1  22
ATOM     22  C   UNL     1      -4.584   2.966  23.649  0.00  0.00    +0.185 C 
BRANCH  22  24
ATOM     24  C   UNL     1      -3.609   2.054  22.925  0.00  0.00    +0.021 C 
ATOM     28  C   UNL     1      -2.871   2.793  21.821  0.00  0.00    +0.005 C 
ENDBRANCH  22  24
ENDBRANCH   1  22
ENDBRANCH   7   1
ENDBRANCH  17   7
ENDBRANCH  12  17
TORSDOF 9
ENDMDL
MODEL 8
REMARK VINA RESULT:       5.4      2.678      5.765
REMARK  Name = 40776834
REMARK  13 active torsions:
REMARK  status: ('A' for Active; 'I' for Inactive)
REMARK    1  A    between atoms: S_1  and  N_7
REMARK    2  A    between atoms: S_1  and  C_22
REMARK    3  A    between atoms: O_4  and  C_29
REMARK    4  A    between atoms: O_4  and  C_32
REMARK    5  A    between atoms: O_5  and  C_31
REMARK    6  A    between atoms: O_5  and  C_33
REMARK    7  A    between atoms: N_7  and  C_17
REMARK    8  A    between atoms: C_11  and  C_18
REMARK    9  A    between atoms: C_12  and  C_17
REMARK   10  A    between atoms: C_20  and  C_23
REMARK   11  A    between atoms: C_21  and  C_25
REMARK   12  A    between atoms: C_22  and  C_24
REMARK   13  A    between atoms: C_24  and  C_28
REMARK                            x       y       z     vdW  Elec       q    Type
REMARK                         _______ _______ _______ _____ _____    ______ ____
ROOT
ATOM      6  N   UNL     1      -0.230   4.287  25.420  0.00  0.00    -0.297 NA
ATOM     10  C   UNL     1      -2.249   4.332  23.775  0.00  0.00    +0.002 C 
ATOM     11  C   UNL     1      -2.715   3.919  25.198  0.00  0.00    +0.055 C 
ATOM     12  C   UNL     1       0.099   3.519  24.190  0.00  0.00    +0.072 C 
ATOM     13  C   UNL     1      -1.150   3.359  23.297  0.00  0.00    +0.024 C 
ATOM     14  C   UNL     1      -1.596   5.724  23.907  0.00  0.00    +0.019 C 
ATOM     15  C   UNL     1      -1.439   3.719  26.065  0.00  0.00    +0.094 C 
ATOM     16  C   UNL     1      -0.531   5.682  25.016  0.00  0.00    +0.085 C 
ENDROOT
BRANCH  11  18
ATOM      8  N   UNL     1      -4.890   3.029  25.876  0.00  0.00    -0.237 NA
ATOM      9  N   UNL     1      -5.476   0.709  25.583  0.00  0.00    -0.232 NA
ATOM     18  C   UNL     1      -3.689   2.756  25.326  0.00  0.00    +0.050 A 
ATOM     19  C   UNL     1      -3.313   1.503  24.888  0.00  0.00    +0.052 A 
ATOM     20  C   UNL     1      -4.257   0.508  25.042  0.00  0.00    +0.075 A 
ATOM     21  C   UNL     1      -5.723   1.974  25.973  0.00  0.00    +0.127 A 
ATOM     25  C   UNL     1      -7.061   2.236  26.577  0.00  0.00    +0.088 C 
BRANCH  20  23
ATOM     23  C   UNL     1      -3.987  -0.847  24.625  0.00  0.00    +0.004 A 
ATOM     26  C   UNL     1      -2.739  -1.418  24.876  0.00  0.00    +0.059 A 
ATOM     27  C   UNL     1      -4.973  -1.587  23.972  0.00  0.00    +0.014 A 
ATOM     29  C   UNL     1      -2.476  -2.728  24.475  0.00  0.00    +0.162 A 
ATOM     30  C   UNL     1      -4.711  -2.897  23.570  0.00  0.00    +0.050 A 
ATOM     31  C   UNL     1      -3.463  -3.467  23.822  0.00  0.00    +0.162 A 
BRANCH  29   4
ATOM      4  O   UNL     1      -1.255  -3.275  24.727  0.00  0.00    -0.491 OA
ATOM     32  C   UNL     1      -0.399  -2.564  25.618  0.00  0.00    +0.277 C 
ENDBRANCH  29   4
BRANCH  31   5
ATOM      5  O   UNL     1      -3.219  -4.747  23.425  0.00  0.00    -0.491 OA
ATOM     33  C   UNL     1      -3.590  -5.094  22.091  0.00  0.00    +0.277 C 
ENDBRANCH  31   5
ENDBRANCH  20  23
ENDBRANCH  11  18
BRANCH  12  17
ATOM     17  C   UNL     1       0.753   2.171  24.502  0.00  0.00    +0.124 C 
BRANCH  17   7
ATOM      7  N   UNL     1       1.521   1.706  23.388  0.00  0.00    -0.193 NA
ATOM     34  H   UNL     1       2.447   2.145  23.297  0.00  0.00    +0.148 HD
BRANCH   7   1
ATOM      1  S   UNL     1       1.435   0.053  22.892  0.00  0.00    +0.029 S 
ATOM      2  O   UNL     1       1.235   0.001  21.457  0.00  0.00    -0.158 OA
ATOM      3  O   UNL     1       0.564  -0.683  23.788  0.00  0.00    -0.158 OA
BRANCH   1  22
ATOM     22  C   UNL     1       3.103  -0.462  23.231  0.00  0.00    +0.185 C 
BRANCH  22  24
ATOM     24  C   UNL     1       4.092   0.663  22.978  0.00  0.00    +0.021 C 
ATOM     28  C   UNL     1       5.392   0.440  23.732  0.00  0.00    +0.005 C 
ENDBRANCH  22  24
ENDBRANCH   1  22
ENDBRANCH   7   1
ENDBRANCH  17   7
ENDBRANCH  12  17
TORSDOF 9
ENDMDL
