MODEL 1
REMARK VINA RESULT:      -4.7      0.000      0.000
REMARK  Name = 56775394
REMARK  14 active torsions:
REMARK  status: ('A' for Active; 'I' for Inactive)
REMARK    1  A    between atoms: O_3  and  C_19
REMARK    2  A    between atoms: O_3  and  C_31
REMARK    3  A    between atoms: O_4  and  C_20
REMARK    4  A    between atoms: O_4  and  C_32
REMARK    5  A    between atoms: O_5  and  C_30
REMARK    6  A    between atoms: N_6  and  C_8
REMARK    7  A    between atoms: N_6  and  C_12
REMARK    8  A    between atoms: N_6  and  C_13
REMARK    9  A    between atoms: C_8  and  C_11
REMARK   10  A    between atoms: C_11  and  C_14
REMARK   11  A    between atoms: C_12  and  C_15
REMARK   12  A    between atoms: C_13  and  C_16
REMARK   13  A    between atoms: C_18  and  C_23
REMARK   14  A    between atoms: C_23  and  C_30
REMARK                            x       y       z     vdW  Elec       q    Type
REMARK                         _______ _______ _______ _____ _____    ______ ____
ROOT
ATOM      6  N   UNL     1      -1.914   1.190  23.624  0.00  0.00    -0.284 NA
ENDROOT
BRANCH   6   8
ATOM      1  O   UNL     1       0.472   2.524  24.951  0.00  0.00    -0.376 OA
ATOM      8  C   UNL     1      -0.448   1.063  23.697  0.00  0.00    +0.075 C 
ATOM      9  C   UNL     1       0.174   2.446  23.538  0.00  0.00    +0.184 C 
ATOM     10  C   UNL     1      -0.016   1.178  25.154  0.00  0.00    +0.184 C 
BRANCH   8  11
ATOM     11  C   UNL     1       0.080  -0.071  22.871  0.00  0.00    +0.085 C 
BRANCH  11  14
ATOM      2  O   UNL     1       3.437   0.126  21.548  0.00  0.00    -0.359 OA
ATOM      7  N   UNL     1       2.070  -0.082  21.410  0.00  0.00    -0.083 NA
ATOM     14  C   UNL     1       1.568   0.082  22.637  0.00  0.00    +0.086 A 
ATOM     17  C   UNL     1       2.562   0.392  23.582  0.00  0.00    +0.071 A 
ATOM     18  C   UNL     1       3.718   0.408  22.845  0.00  0.00    +0.140 A 
BRANCH  18  23
ATOM     23  C   UNL     1       5.127   0.659  23.171  0.00  0.00    +0.105 C 
BRANCH  23  30
ATOM     30  C   UNL     1       5.684  -0.262  24.272  0.00  0.00    +0.163 C 
BRANCH  30   5
ATOM      5  O   UNL     1       5.010  -1.513  24.223  0.00  0.00    -0.395 OA
ATOM     33  H   UNL     1       4.268  -1.413  23.601  0.00  0.00    +0.209 HD
ENDBRANCH  30   5
ENDBRANCH  23  30
ENDBRANCH  18  23
ENDBRANCH  11  14
ENDBRANCH   8  11
ENDBRANCH   6   8
BRANCH   6  12
ATOM     12  C   UNL     1      -2.506   0.617  24.831  0.00  0.00    +0.124 C 
BRANCH  12  15
ATOM     15  C   UNL     1      -2.974  -0.796  24.608  0.00  0.00    +0.008 A 
ATOM     19  C   UNL     1      -2.230  -1.876  25.082  0.00  0.00    +0.124 A 
ATOM     21  C   UNL     1      -4.166  -1.020  23.919  0.00  0.00    +0.008 A 
ATOM     24  C   UNL     1      -2.678  -3.180  24.868  0.00  0.00    +0.046 A 
ATOM     26  C   UNL     1      -4.615  -2.324  23.704  0.00  0.00    +0.001 A 
ATOM     28  C   UNL     1      -3.870  -3.404  24.179  0.00  0.00    +0.004 A 
BRANCH  19   3
ATOM      3  O   UNL     1      -1.064  -1.676  25.757  0.00  0.00    -0.495 OA
ATOM     31  C   UNL     1       0.044  -2.500  25.395  0.00  0.00    +0.277 C 
ENDBRANCH  19   3
ENDBRANCH  12  15
ENDBRANCH   6  12
BRANCH   6  13
ATOM     13  C   UNL     1      -2.266   2.604  23.497  0.00  0.00    +0.124 C 
BRANCH  13  16
ATOM     16  C   UNL     1      -3.408   2.980  24.403  0.00  0.00    +0.008 A 
ATOM     20  C   UNL     1      -3.199   3.799  25.512  0.00  0.00    +0.124 A 
ATOM     22  C   UNL     1      -4.687   2.499  24.124  0.00  0.00    +0.008 A 
ATOM     25  C   UNL     1      -4.268   4.137  26.342  0.00  0.00    +0.046 A 
ATOM     27  C   UNL     1      -5.756   2.836  24.953  0.00  0.00    +0.001 A 
ATOM     29  C   UNL     1      -5.547   3.656  26.062  0.00  0.00    +0.004 A 
BRANCH  20   4
ATOM      4  O   UNL     1      -1.956   4.277  25.801  0.00  0.00    -0.495 OA
ATOM     32  C   UNL     1      -1.528   5.438  25.092  0.00  0.00    +0.277 C 
ENDBRANCH  20   4
ENDBRANCH  13  16
ENDBRANCH   6  13
TORSDOF 12
ENDMDL
MODEL 2
REMARK VINA RESULT:      -3.1      1.282      4.274
REMARK  Name = 56775394
REMARK  14 active torsions:
REMARK  status: ('A' for Active; 'I' for Inactive)
REMARK    1  A    between atoms: O_3  and  C_19
REMARK    2  A    between atoms: O_3  and  C_31
REMARK    3  A    between atoms: O_4  and  C_20
REMARK    4  A    between atoms: O_4  and  C_32
REMARK    5  A    between atoms: O_5  and  C_30
REMARK    6  A    between atoms: N_6  and  C_8
REMARK    7  A    between atoms: N_6  and  C_12
REMARK    8  A    between atoms: N_6  and  C_13
REMARK    9  A    between atoms: C_8  and  C_11
REMARK   10  A    between atoms: C_11  and  C_14
REMARK   11  A    between atoms: C_12  and  C_15
REMARK   12  A    between atoms: C_13  and  C_16
REMARK   13  A    between atoms: C_18  and  C_23
REMARK   14  A    between atoms: C_23  and  C_30
REMARK                            x       y       z     vdW  Elec       q    Type
REMARK                         _______ _______ _______ _____ _____    ______ ____
ROOT
ATOM      6  N   UNL     1      -1.630   0.524  24.869  0.00  0.00    -0.284 NA
ENDROOT
BRANCH   6   8
ATOM      1  O   UNL     1      -0.276  -2.160  25.314  0.00  0.00    -0.376 OA
ATOM      8  C   UNL     1      -0.763  -0.433  24.159  0.00  0.00    +0.075 C 
ATOM      9  C   UNL     1       0.353  -0.876  25.098  0.00  0.00    +0.184 C 
ATOM     10  C   UNL     1      -1.315  -1.840  24.361  0.00  0.00    +0.184 C 
BRANCH   8  11
ATOM     11  C   UNL     1      -0.412   0.016  22.773  0.00  0.00    +0.085 C 
BRANCH  11  14
ATOM      2  O   UNL     1       3.019  -0.249  21.671  0.00  0.00    -0.359 OA
ATOM      7  N   UNL     1       1.658  -0.492  21.528  0.00  0.00    -0.083 NA
ATOM     14  C   UNL     1       1.091   0.081  22.594  0.00  0.00    +0.086 A 
ATOM     17  C   UNL     1       2.035   0.693  23.436  0.00  0.00    +0.071 A 
ATOM     18  C   UNL     1       3.231   0.458  22.811  0.00  0.00    +0.140 A 
BRANCH  18  23
ATOM     23  C   UNL     1       4.624   0.804  23.118  0.00  0.00    +0.105 C 
BRANCH  23  30
ATOM     30  C   UNL     1       5.388  -0.304  23.866  0.00  0.00    +0.163 C 
BRANCH  30   5
ATOM      5  O   UNL     1       4.537  -1.430  24.037  0.00  0.00    -0.395 OA
ATOM     33  H   UNL     1       4.945  -2.172  23.557  0.00  0.00    +0.209 HD
ENDBRANCH  30   5
ENDBRANCH  23  30
ENDBRANCH  18  23
ENDBRANCH  11  14
ENDBRANCH   8  11
ENDBRANCH   6   8
BRANCH   6  12
ATOM     12  C   UNL     1      -0.802   1.391  25.706  0.00  0.00    +0.124 C 
BRANCH  12  15
ATOM     15  C   UNL     1      -0.822   2.818  25.227  0.00  0.00    +0.008 A 
ATOM     19  C   UNL     1      -1.630   3.767  25.850  0.00  0.00    +0.124 A 
ATOM     21  C   UNL     1      -0.020   3.186  24.147  0.00  0.00    +0.008 A 
ATOM     24  C   UNL     1      -1.637   5.085  25.394  0.00  0.00    +0.046 A 
ATOM     26  C   UNL     1      -0.027   4.504  23.689  0.00  0.00    +0.001 A 
ATOM     28  C   UNL     1      -0.836   5.454  24.313  0.00  0.00    +0.004 A 
BRANCH  19   3
ATOM      3  O   UNL     1      -2.420   3.425  26.906  0.00  0.00    -0.495 OA
ATOM     31  C   UNL     1      -3.531   4.275  27.188  0.00  0.00    +0.277 C 
ENDBRANCH  19   3
ENDBRANCH  12  15
ENDBRANCH   6  12
BRANCH   6  13
ATOM     13  C   UNL     1      -2.377   1.313  23.890  0.00  0.00    +0.124 C 
BRANCH  13  16
ATOM     16  C   UNL     1      -3.779   1.601  24.355  0.00  0.00    +0.008 A 
ATOM     20  C   UNL     1      -4.566   0.593  24.913  0.00  0.00    +0.124 A 
ATOM     22  C   UNL     1      -4.290   2.891  24.223  0.00  0.00    +0.008 A 
ATOM     25  C   UNL     1      -5.863   0.877  25.339  0.00  0.00    +0.046 A 
ATOM     27  C   UNL     1      -5.588   3.175  24.648  0.00  0.00    +0.001 A 
ATOM     29  C   UNL     1      -6.374   2.168  25.206  0.00  0.00    +0.004 A 
BRANCH  20   4
ATOM      4  O   UNL     1      -4.083  -0.674  25.049  0.00  0.00    -0.495 OA
ATOM     32  C   UNL     1      -4.432  -1.612  24.033  0.00  0.00    +0.277 C 
ENDBRANCH  20   4
ENDBRANCH  13  16
ENDBRANCH   6  13
TORSDOF 12
ENDMDL
MODEL 3
REMARK VINA RESULT:      -2.9      1.156      4.566
REMARK  Name = 56775394
REMARK  14 active torsions:
REMARK  status: ('A' for Active; 'I' for Inactive)
REMARK    1  A    between atoms: O_3  and  C_19
REMARK    2  A    between atoms: O_3  and  C_31
REMARK    3  A    between atoms: O_4  and  C_20
REMARK    4  A    between atoms: O_4  and  C_32
REMARK    5  A    between atoms: O_5  and  C_30
REMARK    6  A    between atoms: N_6  and  C_8
REMARK    7  A    between atoms: N_6  and  C_12
REMARK    8  A    between atoms: N_6  and  C_13
REMARK    9  A    between atoms: C_8  and  C_11
REMARK   10  A    between atoms: C_11  and  C_14
REMARK   11  A    between atoms: C_12  and  C_15
REMARK   12  A    between atoms: C_13  and  C_16
REMARK   13  A    between atoms: C_18  and  C_23
REMARK   14  A    between atoms: C_23  and  C_30
REMARK                            x       y       z     vdW  Elec       q    Type
REMARK                         _______ _______ _______ _____ _____    ______ ____
ROOT
ATOM      6  N   UNL     1      -1.843   1.403  25.556  0.00  0.00    -0.284 NA
ENDROOT
BRANCH   6   8
ATOM      1  O   UNL     1       0.792   2.702  26.334  0.00  0.00    -0.376 OA
ATOM      8  C   UNL     1      -0.545   1.765  24.959  0.00  0.00    +0.075 C 
ATOM      9  C   UNL     1      -0.187   3.184  25.386  0.00  0.00    +0.184 C 
ATOM     10  C   UNL     1       0.569   1.338  25.909  0.00  0.00    +0.184 C 
BRANCH   8  11
ATOM     11  C   UNL     1      -0.446   1.394  23.511  0.00  0.00    +0.085 C 
BRANCH  11  14
ATOM      2  O   UNL     1       2.445  -0.526  22.505  0.00  0.00    -0.359 OA
ATOM      7  N   UNL     1       1.076  -0.366  22.688  0.00  0.00    -0.083 NA
ATOM     14  C   UNL     1       0.935   0.866  23.184  0.00  0.00    +0.086 A 
ATOM     17  C   UNL     1       2.168   1.525  23.335  0.00  0.00    +0.071 A 
ATOM     18  C   UNL     1       3.084   0.607  22.894  0.00  0.00    +0.140 A 
BRANCH  18  23
ATOM     23  C   UNL     1       4.546   0.610  22.766  0.00  0.00    +0.105 C 
BRANCH  23  30
ATOM     30  C   UNL     1       5.272  -0.116  23.914  0.00  0.00    +0.163 C 
BRANCH  30   5
ATOM      5  O   UNL     1       4.673  -1.389  24.116  0.00  0.00    -0.395 OA
ATOM     33  H   UNL     1       3.969  -1.482  23.452  0.00  0.00    +0.209 HD
ENDBRANCH  30   5
ENDBRANCH  23  30
ENDBRANCH  18  23
ENDBRANCH  11  14
ENDBRANCH   8  11
ENDBRANCH   6   8
BRANCH   6  12
ATOM     12  C   UNL     1      -2.861   1.373  24.508  0.00  0.00    +0.124 C 
BRANCH  12  15
ATOM     15  C   UNL     1      -4.079   2.173  24.888  0.00  0.00    +0.008 A 
ATOM     19  C   UNL     1      -4.059   3.566  24.842  0.00  0.00    +0.124 A 
ATOM     21  C   UNL     1      -5.236   1.505  25.289  0.00  0.00    +0.008 A 
ATOM     24  C   UNL     1      -5.196   4.292  25.197  0.00  0.00    +0.046 A 
ATOM     26  C   UNL     1      -6.374   2.231  25.644  0.00  0.00    +0.001 A 
ATOM     28  C   UNL     1      -6.354   3.625  25.598  0.00  0.00    +0.004 A 
BRANCH  19   3
ATOM      3  O   UNL     1      -2.938   4.235  24.453  0.00  0.00    -0.495 OA
ATOM     31  C   UNL     1      -2.362   5.138  25.396  0.00  0.00    +0.277 C 
ENDBRANCH  19   3
ENDBRANCH  12  15
ENDBRANCH   6  12
BRANCH   6  13
ATOM     13  C   UNL     1      -1.726   0.095  26.200  0.00  0.00    +0.124 C 
BRANCH  13  16
ATOM     16  C   UNL     1      -2.342  -0.996  25.366  0.00  0.00    +0.008 A 
ATOM     20  C   UNL     1      -1.539  -1.918  24.694  0.00  0.00    +0.124 A 
ATOM     22  C   UNL     1      -3.730  -1.079  25.268  0.00  0.00    +0.008 A 
ATOM     25  C   UNL     1      -2.126  -2.923  23.924  0.00  0.00    +0.046 A 
ATOM     27  C   UNL     1      -4.317  -2.084  24.499  0.00  0.00    +0.001 A 
ATOM     29  C   UNL     1      -3.515  -3.005  23.827  0.00  0.00    +0.004 A 
BRANCH  20   4
ATOM      4  O   UNL     1      -0.181  -1.851  24.777  0.00  0.00    -0.495 OA
ATOM     32  C   UNL     1       0.463  -2.795  25.630  0.00  0.00    +0.277 C 
ENDBRANCH  20   4
ENDBRANCH  13  16
ENDBRANCH   6  13
TORSDOF 12
ENDMDL
MODEL 4
REMARK VINA RESULT:      -2.7      1.511      3.600
REMARK  Name = 56775394
REMARK  14 active torsions:
REMARK  status: ('A' for Active; 'I' for Inactive)
REMARK    1  A    between atoms: O_3  and  C_19
REMARK    2  A    between atoms: O_3  and  C_31
REMARK    3  A    between atoms: O_4  and  C_20
REMARK    4  A    between atoms: O_4  and  C_32
REMARK    5  A    between atoms: O_5  and  C_30
REMARK    6  A    between atoms: N_6  and  C_8
REMARK    7  A    between atoms: N_6  and  C_12
REMARK    8  A    between atoms: N_6  and  C_13
REMARK    9  A    between atoms: C_8  and  C_11
REMARK   10  A    between atoms: C_11  and  C_14
REMARK   11  A    between atoms: C_12  and  C_15
REMARK   12  A    between atoms: C_13  and  C_16
REMARK   13  A    between atoms: C_18  and  C_23
REMARK   14  A    between atoms: C_23  and  C_30
REMARK                            x       y       z     vdW  Elec       q    Type
REMARK                         _______ _______ _______ _____ _____    ______ ____
ROOT
ATOM      6  N   UNL     1      -1.808   0.457  24.230  0.00  0.00    -0.284 NA
ENDROOT
BRANCH   6   8
ATOM      1  O   UNL     1      -0.614  -2.044  25.477  0.00  0.00    -0.376 OA
ATOM      8  C   UNL     1      -0.794  -0.572  23.941  0.00  0.00    +0.075 C 
ATOM      9  C   UNL     1       0.052  -0.793  25.191  0.00  0.00    +0.184 C 
ATOM     10  C   UNL     1      -1.382  -1.944  24.255  0.00  0.00    +0.184 C 
BRANCH   8  11
ATOM     11  C   UNL     1      -0.107  -0.361  22.627  0.00  0.00    +0.085 C 
BRANCH  11  14
ATOM      2  O   UNL     1       2.910   1.410  23.530  0.00  0.00    -0.359 OA
ATOM      7  N   UNL     1       1.530   1.250  23.532  0.00  0.00    -0.083 NA
ATOM     14  C   UNL     1       1.310   0.132  22.834  0.00  0.00    +0.086 A 
ATOM     17  C   UNL     1       2.502  -0.450  22.370  0.00  0.00    +0.071 A 
ATOM     18  C   UNL     1       3.479   0.391  22.835  0.00  0.00    +0.140 A 
BRANCH  18  23
ATOM     23  C   UNL     1       4.943   0.404  22.734  0.00  0.00    +0.105 C 
BRANCH  23  30
ATOM     30  C   UNL     1       5.656  -0.190  23.963  0.00  0.00    +0.163 C 
BRANCH  30   5
ATOM      5  O   UNL     1       5.016  -1.404  24.336  0.00  0.00    -0.395 OA
ATOM     33  H   UNL     1       4.935  -1.397  25.305  0.00  0.00    +0.209 HD
ENDBRANCH  30   5
ENDBRANCH  23  30
ENDBRANCH  18  23
ENDBRANCH  11  14
ENDBRANCH   8  11
ENDBRANCH   6   8
BRANCH   6  12
ATOM     12  C   UNL     1      -3.100  -0.190  24.446  0.00  0.00    +0.124 C 
BRANCH  12  15
ATOM     15  C   UNL     1      -4.180   0.808  24.769  0.00  0.00    +0.008 A 
ATOM     19  C   UNL     1      -4.354   1.947  23.984  0.00  0.00    +0.124 A 
ATOM     21  C   UNL     1      -5.011   0.584  25.866  0.00  0.00    +0.008 A 
ATOM     24  C   UNL     1      -5.359   2.863  24.296  0.00  0.00    +0.046 A 
ATOM     26  C   UNL     1      -6.016   1.500  26.180  0.00  0.00    +0.001 A 
ATOM     28  C   UNL     1      -6.191   2.639  25.394  0.00  0.00    +0.004 A 
BRANCH  19   3
ATOM      3  O   UNL     1      -3.552   2.182  22.908  0.00  0.00    -0.495 OA
ATOM     31  C   UNL     1      -3.579   3.497  22.354  0.00  0.00    +0.277 C 
ENDBRANCH  19   3
ENDBRANCH  12  15
ENDBRANCH   6  12
BRANCH   6  13
ATOM     13  C   UNL     1      -1.402   1.209  25.417  0.00  0.00    +0.124 C 
BRANCH  13  16
ATOM     16  C   UNL     1      -1.212   2.671  25.116  0.00  0.00    +0.008 A 
ATOM     20  C   UNL     1      -1.956   3.640  25.789  0.00  0.00    +0.124 A 
ATOM     22  C   UNL     1      -0.281   3.053  24.150  0.00  0.00    +0.008 A 
ATOM     25  C   UNL     1      -1.768   4.991  25.497  0.00  0.00    +0.046 A 
ATOM     27  C   UNL     1      -0.093   4.404  23.858  0.00  0.00    +0.001 A 
ATOM     29  C   UNL     1      -0.836   5.373  24.531  0.00  0.00    +0.004 A 
BRANCH  20   4
ATOM      4  O   UNL     1      -2.871   3.285  26.734  0.00  0.00    -0.495 OA
ATOM     32  C   UNL     1      -3.742   4.310  27.209  0.00  0.00    +0.277 C 
ENDBRANCH  20   4
ENDBRANCH  13  16
ENDBRANCH   6  13
TORSDOF 12
ENDMDL
MODEL 5
REMARK VINA RESULT:      -1.4      1.529      4.004
REMARK  Name = 56775394
REMARK  14 active torsions:
REMARK  status: ('A' for Active; 'I' for Inactive)
REMARK    1  A    between atoms: O_3  and  C_19
REMARK    2  A    between atoms: O_3  and  C_31
REMARK    3  A    between atoms: O_4  and  C_20
REMARK    4  A    between atoms: O_4  and  C_32
REMARK    5  A    between atoms: O_5  and  C_30
REMARK    6  A    between atoms: N_6  and  C_8
REMARK    7  A    between atoms: N_6  and  C_12
REMARK    8  A    between atoms: N_6  and  C_13
REMARK    9  A    between atoms: C_8  and  C_11
REMARK   10  A    between atoms: C_11  and  C_14
REMARK   11  A    between atoms: C_12  and  C_15
REMARK   12  A    between atoms: C_13  and  C_16
REMARK   13  A    between atoms: C_18  and  C_23
REMARK   14  A    between atoms: C_23  and  C_30
REMARK                            x       y       z     vdW  Elec       q    Type
REMARK                         _______ _______ _______ _____ _____    ______ ____
ROOT
ATOM      6  N   UNL     1      -1.561   0.484  24.795  0.00  0.00    -0.284 NA
ENDROOT
BRANCH   6   8
ATOM      1  O   UNL     1      -0.365  -2.229  25.464  0.00  0.00    -0.376 OA
ATOM      8  C   UNL     1      -0.838  -0.621  24.141  0.00  0.00    +0.075 C 
ATOM      9  C   UNL     1       0.330  -1.038  25.029  0.00  0.00    +0.184 C 
ATOM     10  C   UNL     1      -1.466  -1.942  24.571  0.00  0.00    +0.184 C 
BRANCH   8  11
ATOM     11  C   UNL     1      -0.591  -0.376  22.684  0.00  0.00    +0.085 C 
BRANCH  11  14
ATOM      2  O   UNL     1       2.765  -0.119  21.370  0.00  0.00    -0.359 OA
ATOM      7  N   UNL     1       1.437  -0.520  21.284  0.00  0.00    -0.083 NA
ATOM     14  C   UNL     1       0.877  -0.108  22.425  0.00  0.00    +0.086 A 
ATOM     17  C   UNL     1       1.794   0.553  23.261  0.00  0.00    +0.071 A 
ATOM     18  C   UNL     1       2.965   0.520  22.551  0.00  0.00    +0.140 A 
BRANCH  18  23
ATOM     23  C   UNL     1       4.323   1.015  22.806  0.00  0.00    +0.105 C 
BRANCH  23  30
ATOM     30  C   UNL     1       5.244  -0.017  23.484  0.00  0.00    +0.163 C 
BRANCH  30   5
ATOM      5  O   UNL     1       5.335   0.275  24.872  0.00  0.00    -0.395 OA
ATOM     33  H   UNL     1       6.279   0.250  25.107  0.00  0.00    +0.209 HD
ENDBRANCH  30   5
ENDBRANCH  23  30
ENDBRANCH  18  23
ENDBRANCH  11  14
ENDBRANCH   8  11
ENDBRANCH   6   8
BRANCH   6  12
ATOM     12  C   UNL     1      -0.594   1.447  25.318  0.00  0.00    +0.124 C 
BRANCH  12  15
ATOM     15  C   UNL     1      -1.201   2.813  25.491  0.00  0.00    +0.008 A 
ATOM     19  C   UNL     1      -0.780   3.885  24.704  0.00  0.00    +0.124 A 
ATOM     21  C   UNL     1      -2.194   3.002  26.451  0.00  0.00    +0.008 A 
ATOM     24  C   UNL     1      -1.353   5.144  24.877  0.00  0.00    +0.046 A 
ATOM     26  C   UNL     1      -2.768   4.262  26.625  0.00  0.00    +0.001 A 
ATOM     28  C   UNL     1      -2.347   5.334  25.837  0.00  0.00    +0.004 A 
BRANCH  19   3
ATOM      3  O   UNL     1       0.189   3.718  23.761  0.00  0.00    -0.495 OA
ATOM     31  C   UNL     1       0.398   4.796  22.850  0.00  0.00    +0.277 C 
ENDBRANCH  19   3
ENDBRANCH  12  15
ENDBRANCH   6  12
BRANCH   6  13
ATOM     13  C   UNL     1      -2.446   1.120  23.820  0.00  0.00    +0.124 C 
BRANCH  13  16
ATOM     16  C   UNL     1      -3.819   1.364  24.386  0.00  0.00    +0.008 A 
ATOM     20  C   UNL     1      -4.504   2.547  24.109  0.00  0.00    +0.124 A 
ATOM     22  C   UNL     1      -4.406   0.392  25.196  0.00  0.00    +0.008 A 
ATOM     25  C   UNL     1      -5.775   2.758  24.643  0.00  0.00    +0.046 A 
ATOM     27  C   UNL     1      -5.677   0.603  25.729  0.00  0.00    +0.001 A 
ATOM     29  C   UNL     1      -6.362   1.785  25.453  0.00  0.00    +0.004 A 
BRANCH  20   4
ATOM      4  O   UNL     1      -3.946   3.508  23.322  0.00  0.00    -0.495 OA
ATOM     32  C   UNL     1      -3.550   3.119  22.008  0.00  0.00    +0.277 C 
ENDBRANCH  20   4
ENDBRANCH  13  16
ENDBRANCH   6  13
TORSDOF 12
ENDMDL
