MODEL 1
REMARK VINA RESULT:      -5.3      0.000      0.000
REMARK  Name = 11883271
REMARK  5 active torsions:
REMARK  status: ('A' for Active; 'I' for Inactive)
REMARK    1  A    between atoms: O_3  and  C_11
REMARK    2  A    between atoms: O_3  and  C_14
REMARK    3  A    between atoms: N_6  and  C_10
REMARK    4  A    between atoms: C_14  and  C_17
REMARK    5  A    between atoms: C_15  and  C_16
REMARK                            x       y       z     vdW  Elec       q    Type
REMARK                         _______ _______ _______ _____ _____    ______ ____
ROOT
ATOM      1  O   UNL     1      -1.617   2.170  23.213  0.00  0.00    -0.369 OA
ATOM      2  O   UNL     1      -2.536  -0.255  24.849  0.00  0.00    -0.369 OA
ATOM      8  C   UNL     1      -2.776   1.158  25.017  0.00  0.00    +0.172 C 
ATOM      9  C   UNL     1      -1.500   1.870  24.614  0.00  0.00    +0.180 C 
ATOM     10  C   UNL     1      -3.793   1.636  24.008  0.00  0.00    +0.130 C 
ATOM     11  C   UNL     1      -0.445   0.823  24.877  0.00  0.00    +0.176 C 
ATOM     12  C   UNL     1      -2.941   1.844  22.767  0.00  0.00    +0.185 C 
ATOM     13  C   UNL     1      -1.160  -0.453  24.495  0.00  0.00    +0.194 C 
ENDROOT
BRANCH  10   6
ATOM      4  O   UNL     1      -5.934   1.961  25.941  0.00  0.00    -0.276 OA
ATOM      6  N   UNL     1      -4.411   2.868  24.432  0.00  0.00    -0.308 N 
ATOM     15  C   UNL     1      -5.433   2.924  25.366  0.00  0.00    +0.210 C 
ATOM     16  C   UNL     1      -5.878   4.335  25.645  0.00  0.00    +0.109 C 
ATOM     18  H   UNL     1      -4.035   3.740  24.067  0.00  0.00    +0.149 HD
ENDBRANCH  10   6
BRANCH  11   3
ATOM      3  O   UNL     1       0.736   1.013  24.128  0.00  0.00    -0.362 OA
BRANCH   3  14
ATOM     14  C   UNL     1       0.970  -0.061  23.221  0.00  0.00    +0.255 C 
BRANCH  14  17
ATOM      5  O   UNL     1       2.398  -0.195  21.276  0.00  0.00    -0.274 OA
ATOM      7  N   UNL     1       3.122   0.997  23.106  0.00  0.00    -0.327 N 
ATOM     17  C   UNL     1       2.217   0.221  22.417  0.00  0.00    +0.236 C 
ATOM     19  H   UNL     1       4.006   1.266  22.687  0.00  0.00    +0.145 HD
ATOM     20  H   UNL     1       2.946   1.328  24.050  0.00  0.00    +0.145 HD
ENDBRANCH  14  17
ENDBRANCH   3  14
ENDBRANCH  11   3
TORSDOF 4
ENDMDL
MODEL 2
REMARK VINA RESULT:      -5.3      2.166      6.186
REMARK  Name = 11883271
REMARK  5 active torsions:
REMARK  status: ('A' for Active; 'I' for Inactive)
REMARK    1  A    between atoms: O_3  and  C_11
REMARK    2  A    between atoms: O_3  and  C_14
REMARK    3  A    between atoms: N_6  and  C_10
REMARK    4  A    between atoms: C_14  and  C_17
REMARK    5  A    between atoms: C_15  and  C_16
REMARK                            x       y       z     vdW  Elec       q    Type
REMARK                         _______ _______ _______ _____ _____    ______ ____
ROOT
ATOM      1  O   UNL     1      -2.614   2.016  23.991  0.00  0.00    -0.369 OA
ATOM      2  O   UNL     1      -0.744   3.900  25.526  0.00  0.00    -0.369 OA
ATOM      8  C   UNL     1      -1.131   2.531  25.767  0.00  0.00    +0.172 C 
ATOM      9  C   UNL     1      -2.590   2.412  25.372  0.00  0.00    +0.180 C 
ATOM     10  C   UNL     1      -0.417   1.612  24.805  0.00  0.00    +0.130 C 
ATOM     11  C   UNL     1      -3.095   3.821  25.561  0.00  0.00    +0.176 C 
ATOM     12  C   UNL     1      -1.278   1.722  23.558  0.00  0.00    +0.185 C 
ATOM     13  C   UNL     1      -1.904   4.648  25.133  0.00  0.00    +0.194 C 
ENDROOT
BRANCH  10   6
ATOM      4  O   UNL     1       0.181  -0.803  23.307  0.00  0.00    -0.276 OA
ATOM      6  N   UNL     1      -0.384   0.258  25.301  0.00  0.00    -0.308 N 
ATOM     15  C   UNL     1      -0.086  -0.837  24.506  0.00  0.00    +0.210 C 
ATOM     16  C   UNL     1      -0.095  -2.127  25.281  0.00  0.00    +0.109 C 
ATOM     18  H   UNL     1      -0.529   0.113  26.297  0.00  0.00    +0.149 HD
ENDBRANCH  10   6
BRANCH  11   3
ATOM      3  O   UNL     1      -4.245   4.114  24.798  0.00  0.00    -0.362 OA
BRANCH   3  14
ATOM     14  C   UNL     1      -5.439   3.995  25.567  0.00  0.00    +0.255 C 
BRANCH  14  17
ATOM      5  O   UNL     1      -5.873   1.839  24.566  0.00  0.00    -0.274 OA
ATOM      7  N   UNL     1      -6.359   2.148  26.794  0.00  0.00    -0.327 N 
ATOM     17  C   UNL     1      -5.903   2.557  25.561  0.00  0.00    +0.236 C 
ATOM     19  H   UNL     1      -6.702   1.203  26.937  0.00  0.00    +0.145 HD
ATOM     20  H   UNL     1      -6.372   2.765  27.600  0.00  0.00    +0.145 HD
ENDBRANCH  14  17
ENDBRANCH   3  14
ENDBRANCH  11   3
TORSDOF 4
ENDMDL
MODEL 3
REMARK VINA RESULT:      -5.2      1.501      6.222
REMARK  Name = 11883271
REMARK  5 active torsions:
REMARK  status: ('A' for Active; 'I' for Inactive)
REMARK    1  A    between atoms: O_3  and  C_11
REMARK    2  A    between atoms: O_3  and  C_14
REMARK    3  A    between atoms: N_6  and  C_10
REMARK    4  A    between atoms: C_14  and  C_17
REMARK    5  A    between atoms: C_15  and  C_16
REMARK                            x       y       z     vdW  Elec       q    Type
REMARK                         _______ _______ _______ _____ _____    ______ ____
ROOT
ATOM      1  O   UNL     1      -1.141   2.951  24.383  0.00  0.00    -0.369 OA
ATOM      2  O   UNL     1      -1.772  -0.047  24.253  0.00  0.00    -0.369 OA
ATOM      8  C   UNL     1      -0.781   0.752  23.574  0.00  0.00    +0.172 C 
ATOM      9  C   UNL     1      -1.428   2.089  23.270  0.00  0.00    +0.180 C 
ATOM     10  C   UNL     1       0.344   1.100  24.521  0.00  0.00    +0.130 C 
ATOM     11  C   UNL     1      -2.893   1.733  23.199  0.00  0.00    +0.176 C 
ATOM     12  C   UNL     1      -0.224   2.293  25.270  0.00  0.00    +0.185 C 
ATOM     13  C   UNL     1      -3.016   0.669  24.266  0.00  0.00    +0.194 C 
ENDROOT
BRANCH  10   6
ATOM      4  O   UNL     1       2.141  -0.683  23.099  0.00  0.00    -0.276 OA
ATOM      6  N   UNL     1       1.543   1.454  23.801  0.00  0.00    -0.308 N 
ATOM     15  C   UNL     1       2.341   0.528  23.150  0.00  0.00    +0.210 C 
ATOM     16  C   UNL     1       3.514   1.168  22.458  0.00  0.00    +0.109 C 
ATOM     18  H   UNL     1       1.776   2.441  23.723  0.00  0.00    +0.149 HD
ENDBRANCH  10   6
BRANCH  11   3
ATOM      3  O   UNL     1      -3.750   2.827  23.440  0.00  0.00    -0.362 OA
BRANCH   3  14
ATOM     14  C   UNL     1      -4.739   2.523  24.420  0.00  0.00    +0.255 C 
BRANCH  14  17
ATOM      5  O   UNL     1      -5.835   4.198  25.773  0.00  0.00    -0.274 OA
ATOM      7  N   UNL     1      -3.556   3.937  25.957  0.00  0.00    -0.327 N 
ATOM     17  C   UNL     1      -4.797   3.634  25.441  0.00  0.00    +0.236 C 
ATOM     19  H   UNL     1      -3.445   4.665  26.655  0.00  0.00    +0.145 HD
ATOM     20  H   UNL     1      -2.713   3.453  25.664  0.00  0.00    +0.145 HD
ENDBRANCH  14  17
ENDBRANCH   3  14
ENDBRANCH  11   3
TORSDOF 4
ENDMDL
MODEL 4
REMARK VINA RESULT:      -5.1      1.490      6.555
REMARK  Name = 11883271
REMARK  5 active torsions:
REMARK  status: ('A' for Active; 'I' for Inactive)
REMARK    1  A    between atoms: O_3  and  C_11
REMARK    2  A    between atoms: O_3  and  C_14
REMARK    3  A    between atoms: N_6  and  C_10
REMARK    4  A    between atoms: C_14  and  C_17
REMARK    5  A    between atoms: C_15  and  C_16
REMARK                            x       y       z     vdW  Elec       q    Type
REMARK                         _______ _______ _______ _____ _____    ______ ____
ROOT
ATOM      1  O   UNL     1      -0.941   0.869  25.495  0.00  0.00    -0.369 OA
ATOM      2  O   UNL     1      -2.024   1.177  22.643  0.00  0.00    -0.369 OA
ATOM      8  C   UNL     1      -0.730   1.470  23.211  0.00  0.00    +0.172 C 
ATOM      9  C   UNL     1      -0.975   2.001  24.609  0.00  0.00    +0.180 C 
ATOM     10  C   UNL     1       0.039   0.190  23.438  0.00  0.00    +0.130 C 
ATOM     11  C   UNL     1      -2.363   2.584  24.498  0.00  0.00    +0.176 C 
ATOM     12  C   UNL     1      -0.525  -0.294  24.763  0.00  0.00    +0.185 C 
ATOM     13  C   UNL     1      -3.041   1.617  23.555  0.00  0.00    +0.194 C 
ENDROOT
BRANCH  10   6
ATOM      4  O   UNL     1       2.043  -0.217  21.377  0.00  0.00    -0.276 OA
ATOM      6  N   UNL     1       1.456   0.440  23.532  0.00  0.00    -0.308 N 
ATOM     15  C   UNL     1       2.339   0.214  22.489  0.00  0.00    +0.210 C 
ATOM     16  C   UNL     1       3.754   0.583  22.845  0.00  0.00    +0.109 C 
ATOM     18  H   UNL     1       1.810   0.858  24.389  0.00  0.00    +0.149 HD
ENDBRANCH  10   6
BRANCH  11   3
ATOM      3  O   UNL     1      -3.035   2.677  25.735  0.00  0.00    -0.362 OA
BRANCH   3  14
ATOM     14  C   UNL     1      -3.944   3.775  25.766  0.00  0.00    +0.255 C 
BRANCH  14  17
ATOM      5  O   UNL     1      -5.647   2.061  25.812  0.00  0.00    -0.274 OA
ATOM      7  N   UNL     1      -6.293   4.270  25.791  0.00  0.00    -0.327 N 
ATOM     17  C   UNL     1      -5.362   3.255  25.792  0.00  0.00    +0.236 C 
ATOM     19  H   UNL     1      -7.287   4.067  25.807  0.00  0.00    +0.145 HD
ATOM     20  H   UNL     1      -6.027   5.250  25.773  0.00  0.00    +0.145 HD
ENDBRANCH  14  17
ENDBRANCH   3  14
ENDBRANCH  11   3
TORSDOF 4
ENDMDL
MODEL 5
REMARK VINA RESULT:      -4.9      2.517      6.133
REMARK  Name = 11883271
REMARK  5 active torsions:
REMARK  status: ('A' for Active; 'I' for Inactive)
REMARK    1  A    between atoms: O_3  and  C_11
REMARK    2  A    between atoms: O_3  and  C_14
REMARK    3  A    between atoms: N_6  and  C_10
REMARK    4  A    between atoms: C_14  and  C_17
REMARK    5  A    between atoms: C_15  and  C_16
REMARK                            x       y       z     vdW  Elec       q    Type
REMARK                         _______ _______ _______ _____ _____    ______ ____
ROOT
ATOM      1  O   UNL     1      -0.211  -0.739  24.195  0.00  0.00    -0.369 OA
ATOM      2  O   UNL     1      -1.185   2.120  23.666  0.00  0.00    -0.369 OA
ATOM      8  C   UNL     1       0.050   1.617  24.216  0.00  0.00    +0.172 C 
ATOM      9  C   UNL     1      -0.303   0.407  25.057  0.00  0.00    +0.180 C 
ATOM     10  C   UNL     1       0.917   1.053  23.115  0.00  0.00    +0.130 C 
ATOM     11  C   UNL     1      -1.731   0.694  25.457  0.00  0.00    +0.176 C 
ATOM     12  C   UNL     1       0.337  -0.339  22.931  0.00  0.00    +0.185 C 
ATOM     13  C   UNL     1      -2.278   1.373  24.222  0.00  0.00    +0.194 C 
ENDROOT
BRANCH  10   6
ATOM      4  O   UNL     1       3.190   0.245  21.500  0.00  0.00    -0.276 OA
ATOM      6  N   UNL     1       2.302   0.996  23.516  0.00  0.00    -0.308 N 
ATOM     15  C   UNL     1       3.323   0.595  22.670  0.00  0.00    +0.210 C 
ATOM     16  C   UNL     1       4.673   0.653  23.333  0.00  0.00    +0.109 C 
ATOM     18  H   UNL     1       2.540   1.323  24.449  0.00  0.00    +0.149 HD
ENDBRANCH  10   6
BRANCH  11   3
ATOM      3  O   UNL     1      -2.464  -0.463  25.795  0.00  0.00    -0.362 OA
BRANCH   3  14
ATOM     14  C   UNL     1      -3.621  -0.617  24.977  0.00  0.00    +0.255 C 
BRANCH  14  17
ATOM      5  O   UNL     1      -4.539  -2.443  23.687  0.00  0.00    -0.274 OA
ATOM      7  N   UNL     1      -2.390  -2.620  24.491  0.00  0.00    -0.327 N 
ATOM     17  C   UNL     1      -3.593  -1.974  24.314  0.00  0.00    +0.236 C 
ATOM     19  H   UNL     1      -2.229  -3.542  24.099  0.00  0.00    +0.145 HD
ATOM     20  H   UNL     1      -1.625  -2.207  25.016  0.00  0.00    +0.145 HD
ENDBRANCH  14  17
ENDBRANCH   3  14
ENDBRANCH  11   3
TORSDOF 4
ENDMDL
MODEL 6
REMARK VINA RESULT:      -4.3      2.610      3.420
REMARK  Name = 11883271
REMARK  5 active torsions:
REMARK  status: ('A' for Active; 'I' for Inactive)
REMARK    1  A    between atoms: O_3  and  C_11
REMARK    2  A    between atoms: O_3  and  C_14
REMARK    3  A    between atoms: N_6  and  C_10
REMARK    4  A    between atoms: C_14  and  C_17
REMARK    5  A    between atoms: C_15  and  C_16
REMARK                            x       y       z     vdW  Elec       q    Type
REMARK                         _______ _______ _______ _____ _____    ______ ____
ROOT
ATOM      1  O   UNL     1      -0.226  -0.372  24.752  0.00  0.00    -0.369 OA
ATOM      2  O   UNL     1      -1.520   2.342  25.352  0.00  0.00    -0.369 OA
ATOM      8  C   UNL     1      -1.889   1.288  24.438  0.00  0.00    +0.172 C 
ATOM      9  C   UNL     1      -0.598   0.714  23.888  0.00  0.00    +0.180 C 
ATOM     10  C   UNL     1      -2.506   0.136  25.195  0.00  0.00    +0.130 C 
ATOM     11  C   UNL     1       0.355   1.878  24.008  0.00  0.00    +0.176 C 
ATOM     12  C   UNL     1      -1.282  -0.612  25.694  0.00  0.00    +0.185 C 
ATOM     13  C   UNL     1      -0.099   2.531  25.294  0.00  0.00    +0.194 C 
ENDROOT
BRANCH  10   6
ATOM      4  O   UNL     1      -3.449  -2.562  25.704  0.00  0.00    -0.276 OA
ATOM      6  N   UNL     1      -3.308  -0.690  24.327  0.00  0.00    -0.308 N 
ATOM     15  C   UNL     1      -3.712  -1.974  24.658  0.00  0.00    +0.210 C 
ATOM     16  C   UNL     1      -4.561  -2.602  23.586  0.00  0.00    +0.109 C 
ATOM     18  H   UNL     1      -3.639  -0.284  23.455  0.00  0.00    +0.149 HD
ENDBRANCH  10   6
BRANCH  11   3
ATOM      3  O   UNL     1       1.710   1.493  24.058  0.00  0.00    -0.362 OA
BRANCH   3  14
ATOM     14  C   UNL     1       2.034   0.549  23.040  0.00  0.00    +0.255 C 
BRANCH  14  17
ATOM      5  O   UNL     1       4.388   0.838  23.503  0.00  0.00    -0.274 OA
ATOM      7  N   UNL     1       3.707   0.599  21.318  0.00  0.00    -0.327 N 
ATOM     17  C   UNL     1       3.495   0.680  22.677  0.00  0.00    +0.236 C 
ATOM     19  H   UNL     1       4.642   0.671  20.930  0.00  0.00    +0.145 HD
ATOM     20  H   UNL     1       2.947   0.468  20.657  0.00  0.00    +0.145 HD
ENDBRANCH  14  17
ENDBRANCH   3  14
ENDBRANCH  11   3
TORSDOF 4
ENDMDL
MODEL 7
REMARK VINA RESULT:      -4.2      2.621      4.953
REMARK  Name = 11883271
REMARK  5 active torsions:
REMARK  status: ('A' for Active; 'I' for Inactive)
REMARK    1  A    between atoms: O_3  and  C_11
REMARK    2  A    between atoms: O_3  and  C_14
REMARK    3  A    between atoms: N_6  and  C_10
REMARK    4  A    between atoms: C_14  and  C_17
REMARK    5  A    between atoms: C_15  and  C_16
REMARK                            x       y       z     vdW  Elec       q    Type
REMARK                         _______ _______ _______ _____ _____    ______ ____
ROOT
ATOM      1  O   UNL     1      -2.319   1.282  25.206  0.00  0.00    -0.369 OA
ATOM      2  O   UNL     1       0.311   0.935  23.667  0.00  0.00    -0.369 OA
ATOM      8  C   UNL     1      -0.415   0.039  24.535  0.00  0.00    +0.172 C 
ATOM      9  C   UNL     1      -1.008   0.887  25.643  0.00  0.00    +0.180 C 
ATOM     10  C   UNL     1      -1.621  -0.517  23.817  0.00  0.00    +0.130 C 
ATOM     11  C   UNL     1      -0.059   2.059  25.701  0.00  0.00    +0.176 C 
ATOM     12  C   UNL     1      -2.637   0.600  23.984  0.00  0.00    +0.185 C 
ATOM     13  C   UNL     1       0.304   2.248  24.246  0.00  0.00    +0.194 C 
ENDROOT
BRANCH  10   6
ATOM      4  O   UNL     1      -4.263  -1.706  23.624  0.00  0.00    -0.276 OA
ATOM      6  N   UNL     1      -2.079  -1.738  24.431  0.00  0.00    -0.308 N 
ATOM     15  C   UNL     1      -3.366  -2.230  24.281  0.00  0.00    +0.210 C 
ATOM     16  C   UNL     1      -3.570  -3.533  25.005  0.00  0.00    +0.109 C 
ATOM     18  H   UNL     1      -1.403  -2.292  24.951  0.00  0.00    +0.149 HD
ENDBRANCH  10   6
BRANCH  11   3
ATOM      3  O   UNL     1      -0.633   3.220  26.260  0.00  0.00    -0.362 OA
BRANCH   3  14
ATOM     14  C   UNL     1      -1.187   4.073  25.261  0.00  0.00    +0.255 C 
BRANCH  14  17
ATOM      5  O   UNL     1      -3.207   4.368  26.554  0.00  0.00    -0.274 OA
ATOM      7  N   UNL     1      -3.379   4.046  24.283  0.00  0.00    -0.327 N 
ATOM     17  C   UNL     1      -2.680   4.180  25.462  0.00  0.00    +0.236 C 
ATOM     19  H   UNL     1      -4.393   4.097  24.267  0.00  0.00    +0.145 HD
ATOM     20  H   UNL     1      -2.916   3.891  23.392  0.00  0.00    +0.145 HD
ENDBRANCH  14  17
ENDBRANCH   3  14
ENDBRANCH  11   3
TORSDOF 4
ENDMDL
MODEL 8
REMARK VINA RESULT:      -3.9     16.401     17.581
REMARK  Name = 11883271
REMARK  5 active torsions:
REMARK  status: ('A' for Active; 'I' for Inactive)
REMARK    1  A    between atoms: O_3  and  C_11
REMARK    2  A    between atoms: O_3  and  C_14
REMARK    3  A    between atoms: N_6  and  C_10
REMARK    4  A    between atoms: C_14  and  C_17
REMARK    5  A    between atoms: C_15  and  C_16
REMARK                            x       y       z     vdW  Elec       q    Type
REMARK                         _______ _______ _______ _____ _____    ______ ____
ROOT
ATOM      1  O   UNL     1      -5.375  -9.597  12.031  0.00  0.00    -0.369 OA
ATOM      2  O   UNL     1      -3.110  -9.621   9.964  0.00  0.00    -0.369 OA
ATOM      8  C   UNL     1      -4.381 -10.303   9.998  0.00  0.00    +0.172 C 
ATOM      9  C   UNL     1      -4.638 -10.682  11.443  0.00  0.00    +0.180 C 
ATOM     10  C   UNL     1      -5.497  -9.339   9.671  0.00  0.00    +0.130 C 
ATOM     11  C   UNL     1      -3.241 -10.781  12.007  0.00  0.00    +0.176 C 
ATOM     12  C   UNL     1      -5.735  -8.657  11.008  0.00  0.00    +0.185 C 
ATOM     13  C   UNL     1      -2.520  -9.675  11.271  0.00  0.00    +0.194 C 
ENDROOT
BRANCH  10   6
ATOM      4  O   UNL     1      -7.704  -8.259   8.125  0.00  0.00    -0.276 OA
ATOM      6  N   UNL     1      -6.676 -10.037   9.221  0.00  0.00    -0.308 N 
ATOM     15  C   UNL     1      -7.682  -9.434   8.484  0.00  0.00    +0.210 C 
ATOM     16  C   UNL     1      -8.784 -10.394   8.124  0.00  0.00    +0.109 C 
ATOM     18  H   UNL     1      -6.739 -11.035   9.408  0.00  0.00    +0.149 HD
ENDBRANCH  10   6
BRANCH  11   3
ATOM      3  O   UNL     1      -3.186 -10.611  13.406  0.00  0.00    -0.362 OA
BRANCH   3  14
ATOM     14  C   UNL     1      -1.845 -10.490  13.876  0.00  0.00    +0.255 C 
BRANCH  14  17
ATOM      5  O   UNL     1      -2.853 -10.571  16.071  0.00  0.00    -0.274 OA
ATOM      7  N   UNL     1      -0.563 -10.430  15.904  0.00  0.00    -0.327 N 
ATOM     17  C   UNL     1      -1.837 -10.503  15.386  0.00  0.00    +0.236 C 
ATOM     19  H   UNL     1      -0.405 -10.429  16.907  0.00  0.00    +0.145 HD
ATOM     20  H   UNL     1       0.261 -10.374  15.313  0.00  0.00    +0.145 HD
ENDBRANCH  14  17
ENDBRANCH   3  14
ENDBRANCH  11   3
TORSDOF 4
ENDMDL
MODEL 9
REMARK VINA RESULT:      -3.8      1.455      1.902
REMARK  Name = 11883271
REMARK  5 active torsions:
REMARK  status: ('A' for Active; 'I' for Inactive)
REMARK    1  A    between atoms: O_3  and  C_11
REMARK    2  A    between atoms: O_3  and  C_14
REMARK    3  A    between atoms: N_6  and  C_10
REMARK    4  A    between atoms: C_14  and  C_17
REMARK    5  A    between atoms: C_15  and  C_16
REMARK                            x       y       z     vdW  Elec       q    Type
REMARK                         _______ _______ _______ _____ _____    ______ ____
ROOT
ATOM      1  O   UNL     1      -1.613   2.443  25.746  0.00  0.00    -0.369 OA
ATOM      2  O   UNL     1      -2.690   2.282  22.879  0.00  0.00    -0.369 OA
ATOM      8  C   UNL     1      -3.289   1.939  24.146  0.00  0.00    +0.172 C 
ATOM      9  C   UNL     1      -2.188   1.352  25.007  0.00  0.00    +0.180 C 
ATOM     10  C   UNL     1      -3.699   3.191  24.884  0.00  0.00    +0.130 C 
ATOM     11  C   UNL     1      -1.227   0.803  23.980  0.00  0.00    +0.176 C 
ATOM     12  C   UNL     1      -2.393   3.628  25.526  0.00  0.00    +0.185 C 
ATOM     13  C   UNL     1      -1.330   1.824  22.870  0.00  0.00    +0.194 C 
ENDROOT
BRANCH  10   6
ATOM      4  O   UNL     1      -6.078   1.557  24.573  0.00  0.00    -0.276 OA
ATOM      6  N   UNL     1      -4.703   2.908  25.879  0.00  0.00    -0.308 N 
ATOM     15  C   UNL     1      -5.811   2.112  25.636  0.00  0.00    +0.210 C 
ATOM     16  C   UNL     1      -6.684   1.959  26.853  0.00  0.00    +0.109 C 
ATOM     18  H   UNL     1      -4.555   3.265  26.820  0.00  0.00    +0.149 HD
ENDBRANCH  10   6
BRANCH  11   3
ATOM      3  O   UNL     1       0.093   0.671  24.458  0.00  0.00    -0.362 OA
BRANCH   3  14
ATOM     14  C   UNL     1       1.002   1.511  23.752  0.00  0.00    +0.255 C 
BRANCH  14  17
ATOM      5  O   UNL     1       1.651  -0.343  22.345  0.00  0.00    -0.274 OA
ATOM      7  N   UNL     1       3.268   1.134  23.051  0.00  0.00    -0.327 N 
ATOM     17  C   UNL     1       1.977   0.659  22.974  0.00  0.00    +0.236 C 
ATOM     19  H   UNL     1       4.028   0.660  22.576  0.00  0.00    +0.145 HD
ATOM     20  H   UNL     1       3.508   1.967  23.580  0.00  0.00    +0.145 HD
ENDBRANCH  14  17
ENDBRANCH   3  14
ENDBRANCH  11   3
TORSDOF 4
ENDMDL
MODEL 10
REMARK VINA RESULT:      -3.8     17.179     18.950
REMARK  Name = 11883271
REMARK  5 active torsions:
REMARK  status: ('A' for Active; 'I' for Inactive)
REMARK    1  A    between atoms: O_3  and  C_11
REMARK    2  A    between atoms: O_3  and  C_14
REMARK    3  A    between atoms: N_6  and  C_10
REMARK    4  A    between atoms: C_14  and  C_17
REMARK    5  A    between atoms: C_15  and  C_16
REMARK                            x       y       z     vdW  Elec       q    Type
REMARK                         _______ _______ _______ _____ _____    ______ ____
ROOT
ATOM      1  O   UNL     1      -5.635  -8.959  10.996  0.00  0.00    -0.369 OA
ATOM      2  O   UNL     1      -5.381 -10.476   8.343  0.00  0.00    -0.369 OA
ATOM      8  C   UNL     1      -4.534  -9.485   8.963  0.00  0.00    +0.172 C 
ATOM      9  C   UNL     1      -5.451  -8.492   9.649  0.00  0.00    +0.180 C 
ATOM     10  C   UNL     1      -3.755 -10.105  10.099  0.00  0.00    +0.130 C 
ATOM     11  C   UNL     1      -6.720  -8.605   8.839  0.00  0.00    +0.176 C 
ATOM     12  C   UNL     1      -4.763 -10.074  11.235  0.00  0.00    +0.185 C 
ATOM     13  C   UNL     1      -6.751 -10.078   8.499  0.00  0.00    +0.194 C 
ENDROOT
BRANCH  10   6
ATOM      4  O   UNL     1      -1.639 -10.781  11.968  0.00  0.00    -0.276 OA
ATOM      6  N   UNL     1      -2.583  -9.326  10.416  0.00  0.00    -0.308 N 
ATOM     15  C   UNL     1      -1.622  -9.733  11.327  0.00  0.00    +0.210 C 
ATOM     16  C   UNL     1      -0.493  -8.746  11.449  0.00  0.00    +0.109 C 
ATOM     18  H   UNL     1      -2.431  -8.463   9.899  0.00  0.00    +0.149 HD
ENDBRANCH  10   6
BRANCH  11   3
ATOM      3  O   UNL     1      -7.874  -8.199   9.541  0.00  0.00    -0.362 OA
BRANCH   3  14
ATOM     14  C   UNL     1      -8.903  -9.184   9.489  0.00  0.00    +0.255 C 
BRANCH  14  17
ATOM      5  O   UNL     1     -10.628  -9.353  11.173  0.00  0.00    -0.274 OA
ATOM      7  N   UNL     1      -8.443  -9.749  11.777  0.00  0.00    -0.327 N 
ATOM     17  C   UNL     1      -9.438  -9.429  10.880  0.00  0.00    +0.236 C 
ATOM     19  H   UNL     1      -8.658  -9.940  12.750  0.00  0.00    +0.145 HD
ATOM     20  H   UNL     1      -7.466  -9.805  11.506  0.00  0.00    +0.145 HD
ENDBRANCH  14  17
ENDBRANCH   3  14
ENDBRANCH  11   3
TORSDOF 4
ENDMDL
