MODEL 1
REMARK VINA RESULT:      -4.9      0.000      0.000
REMARK  Name = 40779852
REMARK  8 active torsions:
REMARK  status: ('A' for Active; 'I' for Inactive)
REMARK    1  A    between atoms: S_1  and  N_7
REMARK    2  A    between atoms: S_1  and  C_21
REMARK    3  A    between atoms: N_6  and  C_15
REMARK    4  A    between atoms: N_6  and  C_17
REMARK    5  A    between atoms: N_6  and  C_18
REMARK    6  A    between atoms: N_7  and  C_16
REMARK    7  A    between atoms: C_9  and  C_15
REMARK    8  A    between atoms: C_10  and  C_16
REMARK                            x       y       z     vdW  Elec       q    Type
REMARK                         _______ _______ _______ _____ _____    ______ ____
ROOT
ATOM      5  N   UNL     1      -2.677  -2.407  24.341  0.00  0.00    -0.298 NA
ATOM      8  C   UNL     1      -3.104  -0.244  25.721  0.00  0.00    -0.002 C 
ATOM      9  C   UNL     1      -3.926  -0.234  24.413  0.00  0.00    +0.023 C 
ATOM     10  C   UNL     1      -1.382  -1.764  24.693  0.00  0.00    +0.072 C 
ATOM     11  C   UNL     1      -1.610  -0.401  25.383  0.00  0.00    +0.024 C 
ATOM     12  C   UNL     1      -3.525  -1.466  23.570  0.00  0.00    +0.090 C 
ATOM     13  C   UNL     1      -3.527  -1.499  26.507  0.00  0.00    +0.019 C 
ATOM     14  C   UNL     1      -3.382  -2.737  25.603  0.00  0.00    +0.085 C 
ENDROOT
BRANCH   9  15
ATOM     15  C   UNL     1      -3.780   1.062  23.619  0.00  0.00    +0.109 C 
BRANCH  15   6
ATOM      6  N   UNL     1      -3.952   2.191  24.496  0.00  0.00    -0.333 N 
ATOM     17  C   UNL     1      -5.223   2.339  25.212  0.00  0.00    +0.129 C 
BRANCH   6  18
ATOM     18  C   UNL     1      -2.938   3.147  24.672  0.00  0.00    +0.029 A 
ATOM     19  C   UNL     1      -3.211   4.339  25.342  0.00  0.00    +0.023 A 
ATOM     20  C   UNL     1      -1.657   2.902  24.177  0.00  0.00    +0.023 A 
ATOM     22  C   UNL     1      -2.204   5.288  25.516  0.00  0.00    +0.002 A 
ATOM     23  C   UNL     1      -0.650   3.851  24.351  0.00  0.00    +0.002 A 
ATOM     25  C   UNL     1      -0.923   5.044  25.020  0.00  0.00    +0.000 A 
ENDBRANCH   6  18
ENDBRANCH  15   6
ENDBRANCH   9  15
BRANCH  10  16
ATOM     16  C   UNL     1      -0.444  -1.643  23.490  0.00  0.00    +0.124 C 
BRANCH  16   7
ATOM      7  N   UNL     1       0.785  -1.019  23.898  0.00  0.00    -0.188 NA
ATOM     28  H   UNL     1       0.833  -0.786  24.898  0.00  0.00    +0.148 HD
BRANCH   7   1
ATOM      1  S   UNL     1       1.613   0.079  22.863  0.00  0.00    +0.065 S 
ATOM      3  O   UNL     1       1.333   1.432  23.304  0.00  0.00    -0.153 OA
ATOM      4  O   UNL     1       1.410  -0.293  21.476  0.00  0.00    -0.153 OA
BRANCH   1  21
ATOM      2  S   UNL     1       4.413   0.945  22.822  0.00  0.00    -0.077 S 
ATOM     21  C   UNL     1       3.299  -0.282  23.253  0.00  0.00    +0.142 A 
ATOM     24  C   UNL     1       3.920  -1.361  23.841  0.00  0.00    +0.036 A 
ATOM     26  C   UNL     1       5.330  -1.178  23.939  0.00  0.00    +0.010 A 
ATOM     27  C   UNL     1       5.733   0.034  23.423  0.00  0.00    +0.047 A 
ENDBRANCH   1  21
ENDBRANCH   7   1
ENDBRANCH  16   7
ENDBRANCH  10  16
TORSDOF 7
ENDMDL
MODEL 2
REMARK VINA RESULT:      -4.0      1.505      4.401
REMARK  Name = 40779852
REMARK  8 active torsions:
REMARK  status: ('A' for Active; 'I' for Inactive)
REMARK    1  A    between atoms: S_1  and  N_7
REMARK    2  A    between atoms: S_1  and  C_21
REMARK    3  A    between atoms: N_6  and  C_15
REMARK    4  A    between atoms: N_6  and  C_17
REMARK    5  A    between atoms: N_6  and  C_18
REMARK    6  A    between atoms: N_7  and  C_16
REMARK    7  A    between atoms: C_9  and  C_15
REMARK    8  A    between atoms: C_10  and  C_16
REMARK                            x       y       z     vdW  Elec       q    Type
REMARK                         _______ _______ _______ _____ _____    ______ ____
ROOT
ATOM      5  N   UNL     1      -1.154   3.132  25.904  0.00  0.00    -0.298 NA
ATOM      8  C   UNL     1      -2.409   3.974  23.786  0.00  0.00    -0.002 C 
ATOM      9  C   UNL     1      -3.309   3.040  24.626  0.00  0.00    +0.023 C 
ATOM     10  C   UNL     1      -0.333   2.874  24.690  0.00  0.00    +0.072 C 
ATOM     11  C   UNL     1      -1.116   3.228  23.406  0.00  0.00    +0.024 C 
ATOM     12  C   UNL     1      -2.470   2.459  25.787  0.00  0.00    +0.090 C 
ATOM     13  C   UNL     1      -2.006   5.147  24.699  0.00  0.00    +0.019 C 
ATOM     14  C   UNL     1      -1.389   4.593  25.996  0.00  0.00    +0.085 C 
ENDROOT
BRANCH   9  15
ATOM     15  C   UNL     1      -3.969   1.937  23.801  0.00  0.00    +0.109 C 
BRANCH  15   6
ATOM      6  N   UNL     1      -4.615   0.996  24.679  0.00  0.00    -0.333 N 
ATOM     17  C   UNL     1      -5.727   1.459  25.514  0.00  0.00    +0.129 C 
BRANCH   6  18
ATOM     18  C   UNL     1      -4.199  -0.344  24.753  0.00  0.00    +0.029 A 
ATOM     19  C   UNL     1      -4.482  -1.223  23.708  0.00  0.00    +0.023 A 
ATOM     20  C   UNL     1      -3.502  -0.795  25.874  0.00  0.00    +0.023 A 
ATOM     22  C   UNL     1      -4.070  -2.552  23.783  0.00  0.00    +0.002 A 
ATOM     23  C   UNL     1      -3.089  -2.125  25.949  0.00  0.00    +0.002 A 
ATOM     25  C   UNL     1      -3.372  -3.004  24.904  0.00  0.00    +0.000 A 
ENDBRANCH   6  18
ENDBRANCH  15   6
ENDBRANCH   9  15
BRANCH  10  16
ATOM     16  C   UNL     1       0.214   1.447  24.647  0.00  0.00    +0.124 C 
BRANCH  16   7
ATOM      7  N   UNL     1       1.070   1.292  23.502  0.00  0.00    -0.188 NA
ATOM     28  H   UNL     1       0.972   2.031  22.795  0.00  0.00    +0.148 HD
BRANCH   7   1
ATOM      1  S   UNL     1       1.435  -0.266  22.868  0.00  0.00    +0.065 S 
ATOM      3  O   UNL     1       1.289  -0.226  21.425  0.00  0.00    -0.153 OA
ATOM      4  O   UNL     1       0.760  -1.290  23.642  0.00  0.00    -0.153 OA
BRANCH   1  21
ATOM      2  S   UNL     1       4.096   0.959  22.761  0.00  0.00    -0.077 S 
ATOM     21  C   UNL     1       3.160  -0.393  23.236  0.00  0.00    +0.142 A 
ATOM     24  C   UNL     1       3.926  -1.368  23.836  0.00  0.00    +0.036 A 
ATOM     26  C   UNL     1       5.301  -1.000  23.906  0.00  0.00    +0.010 A 
ATOM     27  C   UNL     1       5.533   0.243  23.358  0.00  0.00    +0.047 A 
ENDBRANCH   1  21
ENDBRANCH   7   1
ENDBRANCH  16   7
ENDBRANCH  10  16
TORSDOF 7
ENDMDL
MODEL 3
REMARK VINA RESULT:      -3.2      3.412      7.029
REMARK  Name = 40779852
REMARK  8 active torsions:
REMARK  status: ('A' for Active; 'I' for Inactive)
REMARK    1  A    between atoms: S_1  and  N_7
REMARK    2  A    between atoms: S_1  and  C_21
REMARK    3  A    between atoms: N_6  and  C_15
REMARK    4  A    between atoms: N_6  and  C_17
REMARK    5  A    between atoms: N_6  and  C_18
REMARK    6  A    between atoms: N_7  and  C_16
REMARK    7  A    between atoms: C_9  and  C_15
REMARK    8  A    between atoms: C_10  and  C_16
REMARK                            x       y       z     vdW  Elec       q    Type
REMARK                         _______ _______ _______ _____ _____    ______ ____
ROOT
ATOM      5  N   UNL     1      -0.976   3.257  24.037  0.00  0.00    -0.298 NA
ATOM      8  C   UNL     1      -0.216   1.350  25.636  0.00  0.00    -0.002 C 
ATOM      9  C   UNL     1       0.520   1.259  24.280  0.00  0.00    +0.023 C 
ATOM     10  C   UNL     1      -2.163   2.529  24.562  0.00  0.00    +0.072 C 
ATOM     11  C   UNL     1      -1.736   1.299  25.394  0.00  0.00    +0.024 C 
ATOM     12  C   UNL     1      -0.072   2.321  23.326  0.00  0.00    +0.090 C 
ATOM     13  C   UNL     1       0.106   2.735  26.228  0.00  0.00    +0.019 C 
ATOM     14  C   UNL     1      -0.238   3.822  25.193  0.00  0.00    +0.085 C 
ENDROOT
BRANCH   9  15
ATOM     15  C   UNL     1       0.478  -0.137  23.664  0.00  0.00    +0.109 C 
BRANCH  15   6
ATOM      6  N   UNL     1       1.519  -0.264  22.677  0.00  0.00    -0.333 N 
ATOM     17  C   UNL     1       1.140  -0.452  21.273  0.00  0.00    +0.129 C 
BRANCH   6  18
ATOM     18  C   UNL     1       2.878  -0.216  23.031  0.00  0.00    +0.029 A 
ATOM     19  C   UNL     1       3.623   0.937  22.789  0.00  0.00    +0.023 A 
ATOM     20  C   UNL     1       3.481  -1.325  23.625  0.00  0.00    +0.023 A 
ATOM     22  C   UNL     1       4.971   0.984  23.140  0.00  0.00    +0.002 A 
ATOM     23  C   UNL     1       4.830  -1.279  23.977  0.00  0.00    +0.002 A 
ATOM     25  C   UNL     1       5.575  -0.125  23.735  0.00  0.00    +0.000 A 
ENDBRANCH   6  18
ENDBRANCH  15   6
ENDBRANCH   9  15
BRANCH  10  16
ATOM     16  C   UNL     1      -3.151   2.152  23.458  0.00  0.00    +0.124 C 
BRANCH  16   7
ATOM      7  N   UNL     1      -4.481   2.531  23.850  0.00  0.00    -0.188 NA
ATOM     28  H   UNL     1      -4.629   3.545  23.932  0.00  0.00    +0.148 HD
BRANCH   7   1
ATOM      1  S   UNL     1      -5.385   1.581  24.966  0.00  0.00    +0.065 S 
ATOM      3  O   UNL     1      -6.757   1.499  24.501  0.00  0.00    -0.153 OA
ATOM      4  O   UNL     1      -5.099   2.001  26.324  0.00  0.00    -0.153 OA
BRANCH   1  21
ATOM      2  S   UNL     1      -3.837  -0.618  26.133  0.00  0.00    -0.077 S 
ATOM     21  C   UNL     1      -4.642  -0.008  24.749  0.00  0.00    +0.142 A 
ATOM     24  C   UNL     1      -4.569  -0.878  23.684  0.00  0.00    +0.036 A 
ATOM     26  C   UNL     1      -3.843  -2.061  24.008  0.00  0.00    +0.010 A 
ATOM     27  C   UNL     1      -3.390  -2.051  25.308  0.00  0.00    +0.047 A 
ENDBRANCH   1  21
ENDBRANCH   7   1
ENDBRANCH  16   7
ENDBRANCH  10  16
TORSDOF 7
ENDMDL
MODEL 4
REMARK VINA RESULT:      -2.9      3.155      6.560
REMARK  Name = 40779852
REMARK  8 active torsions:
REMARK  status: ('A' for Active; 'I' for Inactive)
REMARK    1  A    between atoms: S_1  and  N_7
REMARK    2  A    between atoms: S_1  and  C_21
REMARK    3  A    between atoms: N_6  and  C_15
REMARK    4  A    between atoms: N_6  and  C_17
REMARK    5  A    between atoms: N_6  and  C_18
REMARK    6  A    between atoms: N_7  and  C_16
REMARK    7  A    between atoms: C_9  and  C_15
REMARK    8  A    between atoms: C_10  and  C_16
REMARK                            x       y       z     vdW  Elec       q    Type
REMARK                         _______ _______ _______ _____ _____    ______ ____
ROOT
ATOM      5  N   UNL     1      -1.886  -0.135  25.976  0.00  0.00    -0.298 NA
ATOM      8  C   UNL     1      -0.392  -1.469  24.316  0.00  0.00    -0.002 C 
ATOM      9  C   UNL     1       0.123  -0.021  24.479  0.00  0.00    +0.023 C 
ATOM     10  C   UNL     1      -2.730  -0.764  24.925  0.00  0.00    +0.072 C 
ATOM     11  C   UNL     1      -1.857  -1.438  23.843  0.00  0.00    +0.024 C 
ATOM     12  C   UNL     1      -0.879   0.762  25.358  0.00  0.00    +0.090 C 
ATOM     13  C   UNL     1      -0.379  -2.110  25.716  0.00  0.00    +0.019 C 
ATOM     14  C   UNL     1      -1.165  -1.215  26.692  0.00  0.00    +0.085 C 
ENDROOT
BRANCH   9  15
ATOM     15  C   UNL     1       0.374   0.684  23.149  0.00  0.00    +0.109 C 
BRANCH  15   6
ATOM      6  N   UNL     1       1.393  -0.019  22.412  0.00  0.00    -0.333 N 
ATOM     17  C   UNL     1       1.019  -0.702  21.170  0.00  0.00    +0.129 C 
BRANCH   6  18
ATOM     18  C   UNL     1       2.723  -0.066  22.860  0.00  0.00    +0.029 A 
ATOM     19  C   UNL     1       3.544   1.054  22.734  0.00  0.00    +0.023 A 
ATOM     20  C   UNL     1       3.223  -1.236  23.432  0.00  0.00    +0.023 A 
ATOM     22  C   UNL     1       4.864   1.006  23.178  0.00  0.00    +0.002 A 
ATOM     23  C   UNL     1       4.545  -1.284  23.877  0.00  0.00    +0.002 A 
ATOM     25  C   UNL     1       5.365  -0.164  23.751  0.00  0.00    +0.000 A 
ENDBRANCH   6  18
ENDBRANCH  15   6
ENDBRANCH   9  15
BRANCH  10  16
ATOM     16  C   UNL     1      -3.734   0.216  24.317  0.00  0.00    +0.124 C 
BRANCH  16   7
ATOM      7  N   UNL     1      -4.691   0.609  25.315  0.00  0.00    -0.188 NA
ATOM     28  H   UNL     1      -5.369  -0.122  25.566  0.00  0.00    +0.148 HD
BRANCH   7   1
ATOM      1  S   UNL     1      -5.311   2.213  25.373  0.00  0.00    +0.065 S 
ATOM      3  O   UNL     1      -5.910   2.433  26.675  0.00  0.00    -0.153 OA
ATOM      4  O   UNL     1      -6.063   2.501  24.166  0.00  0.00    -0.153 OA
BRANCH   1  21
ATOM      2  S   UNL     1      -3.111   3.250  23.737  0.00  0.00    -0.077 S 
ATOM     21  C   UNL     1      -3.822   3.163  25.292  0.00  0.00    +0.142 A 
ATOM     24  C   UNL     1      -3.097   3.861  26.232  0.00  0.00    +0.036 A 
ATOM     26  C   UNL     1      -1.942   4.476  25.668  0.00  0.00    +0.010 A 
ATOM     27  C   UNL     1      -1.829   4.226  24.318  0.00  0.00    +0.047 A 
ENDBRANCH   1  21
ENDBRANCH   7   1
ENDBRANCH  16   7
ENDBRANCH  10  16
TORSDOF 7
ENDMDL
MODEL 5
REMARK VINA RESULT:      -2.7     16.459     18.644
REMARK  Name = 40779852
REMARK  8 active torsions:
REMARK  status: ('A' for Active; 'I' for Inactive)
REMARK    1  A    between atoms: S_1  and  N_7
REMARK    2  A    between atoms: S_1  and  C_21
REMARK    3  A    between atoms: N_6  and  C_15
REMARK    4  A    between atoms: N_6  and  C_17
REMARK    5  A    between atoms: N_6  and  C_18
REMARK    6  A    between atoms: N_7  and  C_16
REMARK    7  A    between atoms: C_9  and  C_15
REMARK    8  A    between atoms: C_10  and  C_16
REMARK                            x       y       z     vdW  Elec       q    Type
REMARK                         _______ _______ _______ _____ _____    ______ ____
ROOT
ATOM      5  N   UNL     1      16.518  -7.684  30.218  0.00  0.00    -0.298 NA
ATOM      8  C   UNL     1      15.152  -6.633  32.168  0.00  0.00    -0.002 C 
ATOM      9  C   UNL     1      14.236  -7.456  31.234  0.00  0.00    +0.023 C 
ATOM     10  C   UNL     1      16.783  -6.222  30.296  0.00  0.00    +0.072 C 
ATOM     11  C   UNL     1      15.873  -5.548  31.347  0.00  0.00    +0.024 C 
ATOM     12  C   UNL     1      15.069  -7.933  30.022  0.00  0.00    +0.090 C 
ATOM     13  C   UNL     1      16.231  -7.596  32.698  0.00  0.00    +0.019 C 
ATOM     14  C   UNL     1      16.920  -8.291  31.510  0.00  0.00    +0.085 C 
ENDROOT
BRANCH   9  15
ATOM     15  C   UNL     1      12.986  -6.698  30.794  0.00  0.00    +0.109 C 
BRANCH  15   6
ATOM      6  N   UNL     1      11.945  -6.869  31.773  0.00  0.00    -0.333 N 
ATOM     17  C   UNL     1      11.659  -5.767  32.697  0.00  0.00    +0.129 C 
BRANCH   6  18
ATOM     18  C   UNL     1      11.209  -8.062  31.862  0.00  0.00    +0.029 A 
ATOM     19  C   UNL     1      11.855  -9.292  31.741  0.00  0.00    +0.023 A 
ATOM     20  C   UNL     1       9.831  -8.016  32.073  0.00  0.00    +0.023 A 
ATOM     22  C   UNL     1      11.124 -10.476  31.829  0.00  0.00    +0.002 A 
ATOM     23  C   UNL     1       9.099  -9.200  32.162  0.00  0.00    +0.002 A 
ATOM     25  C   UNL     1       9.745 -10.430  32.040  0.00  0.00    +0.000 A 
ENDBRANCH   6  18
ENDBRANCH  15   6
ENDBRANCH   9  15
BRANCH  10  16
ATOM     16  C   UNL     1      16.681  -5.537  28.932  0.00  0.00    +0.124 C 
BRANCH  16   7
ATOM      7  N   UNL     1      17.405  -6.300  27.952  0.00  0.00    -0.188 NA
ATOM     28  H   UNL     1      18.398  -6.048  27.866  0.00  0.00    +0.148 HD
BRANCH   7   1
ATOM      1  S   UNL     1      16.660  -6.798  26.483  0.00  0.00    +0.065 S 
ATOM      3  O   UNL     1      15.231  -6.912  26.702  0.00  0.00    -0.153 OA
ATOM      4  O   UNL     1      17.399  -7.901  25.899  0.00  0.00    -0.153 OA
BRANCH   1  21
ATOM      2  S   UNL     1      17.221  -5.746  23.805  0.00  0.00    -0.077 S 
ATOM     21  C   UNL     1      16.943  -5.387  25.456  0.00  0.00    +0.142 A 
ATOM     24  C   UNL     1      16.989  -4.033  25.706  0.00  0.00    +0.036 A 
ATOM     26  C   UNL     1      17.255  -3.280  24.526  0.00  0.00    +0.010 A 
ATOM     27  C   UNL     1      17.402  -4.087  23.418  0.00  0.00    +0.047 A 
ENDBRANCH   1  21
ENDBRANCH   7   1
ENDBRANCH  16   7
ENDBRANCH  10  16
TORSDOF 7
ENDMDL
MODEL 6
REMARK VINA RESULT:      -2.1     16.416     18.973
REMARK  Name = 40779852
REMARK  8 active torsions:
REMARK  status: ('A' for Active; 'I' for Inactive)
REMARK    1  A    between atoms: S_1  and  N_7
REMARK    2  A    between atoms: S_1  and  C_21
REMARK    3  A    between atoms: N_6  and  C_15
REMARK    4  A    between atoms: N_6  and  C_17
REMARK    5  A    between atoms: N_6  and  C_18
REMARK    6  A    between atoms: N_7  and  C_16
REMARK    7  A    between atoms: C_9  and  C_15
REMARK    8  A    between atoms: C_10  and  C_16
REMARK                            x       y       z     vdW  Elec       q    Type
REMARK                         _______ _______ _______ _____ _____    ______ ____
ROOT
ATOM      5  N   UNL     1      16.527  -7.678  30.212  0.00  0.00    -0.298 NA
ATOM      8  C   UNL     1      15.168  -6.730  32.217  0.00  0.00    -0.002 C 
ATOM      9  C   UNL     1      14.247  -7.497  31.241  0.00  0.00    +0.023 C 
ATOM     10  C   UNL     1      16.798  -6.224  30.368  0.00  0.00    +0.072 C 
ATOM     11  C   UNL     1      15.892  -5.605  31.456  0.00  0.00    +0.024 C 
ATOM     12  C   UNL     1      15.077  -7.911  30.004  0.00  0.00    +0.090 C 
ATOM     13  C   UNL     1      16.243  -7.724  32.693  0.00  0.00    +0.019 C 
ATOM     14  C   UNL     1      16.928  -8.357  31.468  0.00  0.00    +0.085 C 
ENDROOT
BRANCH   9  15
ATOM     15  C   UNL     1      13.000  -6.711  30.845  0.00  0.00    +0.109 C 
BRANCH  15   6
ATOM      6  N   UNL     1      12.007  -6.822  31.881  0.00  0.00    -0.333 N 
ATOM     17  C   UNL     1      11.824  -5.698  32.805  0.00  0.00    +0.129 C 
BRANCH   6  18
ATOM     18  C   UNL     1      11.221  -7.977  32.026  0.00  0.00    +0.029 A 
ATOM     19  C   UNL     1      11.830  -9.226  32.142  0.00  0.00    +0.023 A 
ATOM     20  C   UNL     1       9.830  -7.874  32.054  0.00  0.00    +0.023 A 
ATOM     22  C   UNL     1      11.050 -10.372  32.286  0.00  0.00    +0.002 A 
ATOM     23  C   UNL     1       9.049  -9.021  32.198  0.00  0.00    +0.002 A 
ATOM     25  C   UNL     1       9.659 -10.270  32.314  0.00  0.00    +0.000 A 
ENDBRANCH   6  18
ENDBRANCH  15   6
ENDBRANCH   9  15
BRANCH  10  16
ATOM     16  C   UNL     1      16.697  -5.465  29.044  0.00  0.00    +0.124 C 
BRANCH  16   7
ATOM      7  N   UNL     1      17.389  -6.193  28.016  0.00  0.00    -0.188 NA
ATOM     28  H   UNL     1      18.369  -5.912  27.883  0.00  0.00    +0.148 HD
BRANCH   7   1
ATOM      1  S   UNL     1      16.583  -6.691  26.580  0.00  0.00    +0.065 S 
ATOM      3  O   UNL     1      17.285  -6.139  25.437  0.00  0.00    -0.153 OA
ATOM      4  O   UNL     1      15.152  -6.498  26.719  0.00  0.00    -0.153 OA
BRANCH   1  21
ATOM      2  S   UNL     1      16.489  -9.248  25.150  0.00  0.00    -0.077 S 
ATOM     21  C   UNL     1      16.874  -8.435  26.606  0.00  0.00    +0.142 A 
ATOM     24  C   UNL     1      17.353  -9.295  27.569  0.00  0.00    +0.036 A 
ATOM     26  C   UNL     1      17.405 -10.641  27.104  0.00  0.00    +0.010 A 
ATOM     27  C   UNL     1      16.965 -10.758  25.804  0.00  0.00    +0.047 A 
ENDBRANCH   1  21
ENDBRANCH   7   1
ENDBRANCH  16   7
ENDBRANCH  10  16
TORSDOF 7
ENDMDL
MODEL 7
REMARK VINA RESULT:      -1.8      3.191      6.680
REMARK  Name = 40779852
REMARK  8 active torsions:
REMARK  status: ('A' for Active; 'I' for Inactive)
REMARK    1  A    between atoms: S_1  and  N_7
REMARK    2  A    between atoms: S_1  and  C_21
REMARK    3  A    between atoms: N_6  and  C_15
REMARK    4  A    between atoms: N_6  and  C_17
REMARK    5  A    between atoms: N_6  and  C_18
REMARK    6  A    between atoms: N_7  and  C_16
REMARK    7  A    between atoms: C_9  and  C_15
REMARK    8  A    between atoms: C_10  and  C_16
REMARK                            x       y       z     vdW  Elec       q    Type
REMARK                         _______ _______ _______ _____ _____    ______ ____
ROOT
ATOM      5  N   UNL     1      -2.241   4.648  24.692  0.00  0.00    -0.298 NA
ATOM      8  C   UNL     1      -0.460   2.872  25.358  0.00  0.00    -0.002 C 
ATOM      9  C   UNL     1      -0.989   2.614  23.929  0.00  0.00    +0.023 C 
ATOM     10  C   UNL     1      -2.600   4.032  25.999  0.00  0.00    +0.072 C 
ATOM     11  C   UNL     1      -1.641   2.871  26.346  0.00  0.00    +0.024 C 
ATOM     12  C   UNL     1      -2.140   3.605  23.643  0.00  0.00    +0.090 C 
ATOM     13  C   UNL     1       0.138   4.291  25.365  0.00  0.00    +0.019 C 
ATOM     14  C   UNL     1      -0.911   5.287  24.838  0.00  0.00    +0.085 C 
ENDROOT
BRANCH   9  15
ATOM     15  C   UNL     1      -1.420   1.168  23.698  0.00  0.00    +0.109 C 
BRANCH  15   6
ATOM      6  N   UNL     1      -0.333   0.280  24.018  0.00  0.00    -0.333 N 
ATOM     17  C   UNL     1      -0.495  -0.659  25.133  0.00  0.00    +0.129 C 
BRANCH   6  18
ATOM     18  C   UNL     1       0.870   0.300  23.294  0.00  0.00    +0.029 A 
ATOM     19  C   UNL     1       0.993  -0.448  22.123  0.00  0.00    +0.023 A 
ATOM     20  C   UNL     1       1.942   1.068  23.746  0.00  0.00    +0.023 A 
ATOM     22  C   UNL     1       2.188  -0.429  21.404  0.00  0.00    +0.002 A 
ATOM     23  C   UNL     1       3.138   1.088  23.027  0.00  0.00    +0.002 A 
ATOM     25  C   UNL     1       3.261   0.341  21.857  0.00  0.00    +0.000 A 
ENDBRANCH   6  18
ENDBRANCH  15   6
ENDBRANCH   9  15
BRANCH  10  16
ATOM     16  C   UNL     1      -4.065   3.597  26.057  0.00  0.00    +0.124 C 
BRANCH  16   7
ATOM      7  N   UNL     1      -4.152   2.171  25.893  0.00  0.00    -0.188 NA
ATOM     28  H   UNL     1      -3.292   1.662  26.134  0.00  0.00    +0.148 HD
BRANCH   7   1
ATOM      1  S   UNL     1      -5.062   1.476  24.608  0.00  0.00    +0.065 S 
ATOM      3  O   UNL     1      -4.660   2.101  23.363  0.00  0.00    -0.153 OA
ATOM      4  O   UNL     1      -6.465   1.409  24.971  0.00  0.00    -0.153 OA
BRANCH   1  21
ATOM      2  S   UNL     1      -3.741  -0.685  26.083  0.00  0.00    -0.077 S 
ATOM     21  C   UNL     1      -4.449  -0.182  24.608  0.00  0.00    +0.142 A 
ATOM     24  C   UNL     1      -4.418  -1.175  23.654  0.00  0.00    +0.036 A 
ATOM     26  C   UNL     1      -3.805  -2.366  24.141  0.00  0.00    +0.010 A 
ATOM     27  C   UNL     1      -3.392  -2.238  25.449  0.00  0.00    +0.047 A 
ENDBRANCH   1  21
ENDBRANCH   7   1
ENDBRANCH  16   7
ENDBRANCH  10  16
TORSDOF 7
ENDMDL
MODEL 8
REMARK VINA RESULT:      -1.1      3.450      6.199
REMARK  Name = 40779852
REMARK  8 active torsions:
REMARK  status: ('A' for Active; 'I' for Inactive)
REMARK    1  A    between atoms: S_1  and  N_7
REMARK    2  A    between atoms: S_1  and  C_21
REMARK    3  A    between atoms: N_6  and  C_15
REMARK    4  A    between atoms: N_6  and  C_17
REMARK    5  A    between atoms: N_6  and  C_18
REMARK    6  A    between atoms: N_7  and  C_16
REMARK    7  A    between atoms: C_9  and  C_15
REMARK    8  A    between atoms: C_10  and  C_16
REMARK                            x       y       z     vdW  Elec       q    Type
REMARK                         _______ _______ _______ _____ _____    ______ ____
ROOT
ATOM      5  N   UNL     1      -3.541  -1.319  25.825  0.00  0.00    -0.298 NA
ATOM      8  C   UNL     1      -1.966  -1.569  23.769  0.00  0.00    -0.002 C 
ATOM      9  C   UNL     1      -1.475  -0.442  24.706  0.00  0.00    +0.023 C 
ATOM     10  C   UNL     1      -4.335  -1.274  24.567  0.00  0.00    +0.072 C 
ATOM     11  C   UNL     1      -3.411  -1.271  23.328  0.00  0.00    +0.024 C 
ATOM     12  C   UNL     1      -2.520  -0.243  25.827  0.00  0.00    +0.090 C 
ATOM     13  C   UNL     1      -2.002  -2.863  24.604  0.00  0.00    +0.019 C 
ATOM     14  C   UNL     1      -2.837  -2.623  25.876  0.00  0.00    +0.085 C 
ENDROOT
BRANCH   9  15
ATOM     15  C   UNL     1      -1.178   0.864  23.974  0.00  0.00    +0.109 C 
BRANCH  15   6
ATOM      6  N   UNL     1       0.173   1.279  24.250  0.00  0.00    -0.333 N 
ATOM     17  C   UNL     1       0.425   2.131  25.416  0.00  0.00    +0.129 C 
BRANCH   6  18
ATOM     18  C   UNL     1       1.244   0.892  23.426  0.00  0.00    +0.029 A 
ATOM     19  C   UNL     1       1.049  -0.068  22.433  0.00  0.00    +0.023 A 
ATOM     20  C   UNL     1       2.502   1.467  23.604  0.00  0.00    +0.023 A 
ATOM     22  C   UNL     1       2.112  -0.452  21.616  0.00  0.00    +0.002 A 
ATOM     23  C   UNL     1       3.565   1.083  22.787  0.00  0.00    +0.002 A 
ATOM     25  C   UNL     1       3.371   0.124  21.793  0.00  0.00    +0.000 A 
ENDBRANCH   6  18
ENDBRANCH  15   6
ENDBRANCH   9  15
BRANCH  10  16
ATOM     16  C   UNL     1      -5.324  -0.108  24.542  0.00  0.00    +0.124 C 
BRANCH  16   7
ATOM      7  N   UNL     1      -5.062   0.771  25.649  0.00  0.00    -0.188 NA
ATOM     28  H   UNL     1      -5.056   0.310  26.567  0.00  0.00    +0.148 HD
BRANCH   7   1
ATOM      1  S   UNL     1      -5.655   2.387  25.662  0.00  0.00    +0.065 S 
ATOM      3  O   UNL     1      -6.174   2.681  26.984  0.00  0.00    -0.153 OA
ATOM      4  O   UNL     1      -6.471   2.629  24.487  0.00  0.00    -0.153 OA
BRANCH   1  21
ATOM      2  S   UNL     1      -3.639   3.462  23.825  0.00  0.00    -0.077 S 
ATOM     21  C   UNL     1      -4.159   3.306  25.449  0.00  0.00    +0.142 A 
ATOM     24  C   UNL     1      -3.306   3.935  26.328  0.00  0.00    +0.036 A 
ATOM     26  C   UNL     1      -2.210   4.553  25.660  0.00  0.00    +0.010 A 
ATOM     27  C   UNL     1      -2.268   4.375  24.295  0.00  0.00    +0.047 A 
ENDBRANCH   1  21
ENDBRANCH   7   1
ENDBRANCH  16   7
ENDBRANCH  10  16
TORSDOF 7
ENDMDL
MODEL 9
REMARK VINA RESULT:      -1.0     15.925     18.415
REMARK  Name = 40779852
REMARK  8 active torsions:
REMARK  status: ('A' for Active; 'I' for Inactive)
REMARK    1  A    between atoms: S_1  and  N_7
REMARK    2  A    between atoms: S_1  and  C_21
REMARK    3  A    between atoms: N_6  and  C_15
REMARK    4  A    between atoms: N_6  and  C_17
REMARK    5  A    between atoms: N_6  and  C_18
REMARK    6  A    between atoms: N_7  and  C_16
REMARK    7  A    between atoms: C_9  and  C_15
REMARK    8  A    between atoms: C_10  and  C_16
REMARK                            x       y       z     vdW  Elec       q    Type
REMARK                         _______ _______ _______ _____ _____    ______ ____
ROOT
ATOM      5  N   UNL     1      15.449  -8.947  30.399  0.00  0.00    -0.298 NA
ATOM      8  C   UNL     1      14.002  -8.200  32.428  0.00  0.00    -0.002 C 
ATOM      9  C   UNL     1      13.110  -8.575  31.223  0.00  0.00    +0.023 C 
ATOM     10  C   UNL     1      15.919  -7.627  30.901  0.00  0.00    +0.072 C 
ATOM     11  C   UNL     1      14.984  -7.091  32.009  0.00  0.00    +0.024 C 
ATOM     12  C   UNL     1      14.021  -8.870  30.009  0.00  0.00    +0.090 C 
ATOM     13  C   UNL     1      14.840  -9.446  32.770  0.00  0.00    +0.019 C 
ATOM     14  C   UNL     1      15.574  -9.927  31.505  0.00  0.00    +0.085 C 
ENDROOT
BRANCH   9  15
ATOM     15  C   UNL     1      12.061  -7.515  30.895  0.00  0.00    +0.109 C 
BRANCH  15   6
ATOM      6  N   UNL     1      10.996  -7.571  31.862  0.00  0.00    -0.333 N 
ATOM     17  C   UNL     1      10.872  -6.484  32.839  0.00  0.00    +0.129 C 
BRANCH   6  18
ATOM     18  C   UNL     1      10.085  -8.640  31.891  0.00  0.00    +0.029 A 
ATOM     19  C   UNL     1       9.039  -8.691  30.970  0.00  0.00    +0.023 A 
ATOM     20  C   UNL     1      10.228  -9.651  32.842  0.00  0.00    +0.023 A 
ATOM     22  C   UNL     1       8.135  -9.753  30.999  0.00  0.00    +0.002 A 
ATOM     23  C   UNL     1       9.324 -10.713  32.871  0.00  0.00    +0.002 A 
ATOM     25  C   UNL     1       8.278 -10.764  31.950  0.00  0.00    +0.000 A 
ENDBRANCH   6  18
ENDBRANCH  15   6
ENDBRANCH   9  15
BRANCH  10  16
ATOM     16  C   UNL     1      16.109  -6.609  29.776  0.00  0.00    +0.124 C 
BRANCH  16   7
ATOM      7  N   UNL     1      16.678  -7.259  28.627  0.00  0.00    -0.188 NA
ATOM     28  H   UNL     1      17.669  -7.512  28.729  0.00  0.00    +0.148 HD
BRANCH   7   1
ATOM      1  S   UNL     1      16.209  -6.819  27.031  0.00  0.00    +0.065 S 
ATOM      3  O   UNL     1      17.402  -6.524  26.261  0.00  0.00    -0.153 OA
ATOM      4  O   UNL     1      15.117  -5.865  27.078  0.00  0.00    -0.153 OA
BRANCH   1  21
ATOM      2  S   UNL     1      16.106  -9.740  27.244  0.00  0.00    -0.077 S 
ATOM     21  C   UNL     1      15.538  -8.342  26.435  0.00  0.00    +0.142 A 
ATOM     24  C   UNL     1      14.640  -8.650  25.438  0.00  0.00    +0.036 A 
ATOM     26  C   UNL     1      14.414 -10.054  25.337  0.00  0.00    +0.010 A 
ATOM     27  C   UNL     1      15.147 -10.764  26.262  0.00  0.00    +0.047 A 
ENDBRANCH   1  21
ENDBRANCH   7   1
ENDBRANCH  16   7
ENDBRANCH  10  16
TORSDOF 7
ENDMDL
