MODEL 1
REMARK VINA RESULT:      -4.5      0.000      0.000
REMARK  Name = 45784318
REMARK  4 active torsions:
REMARK  status: ('A' for Active; 'I' for Inactive)
REMARK    1  A    between atoms: N_3  and  C_12
REMARK    2  A    between atoms: C_7  and  C_11
REMARK    3  A    between atoms: C_12  and  C_13
REMARK    4  A    between atoms: C_20  and  C_25
REMARK                            x       y       z     vdW  Elec       q    Type
REMARK                         _______ _______ _______ _____ _____    ______ ____
ROOT
ATOM      3  N   UNL     1      11.747  -9.389  31.544  0.00  0.00    -0.297 NA
ATOM      7  C   UNL     1      13.226  -8.080  30.280  0.00  0.00    +0.070 C 
ATOM      8  C   UNL     1      13.903  -9.412  30.646  0.00  0.00    +0.028 C 
ATOM      9  C   UNL     1      12.017  -7.986  31.221  0.00  0.00    +0.096 C 
ATOM     10  C   UNL     1      13.064  -9.981  31.783  0.00  0.00    +0.085 C 
ENDROOT
BRANCH   7  11
ATOM      4  N   UNL     1      13.873  -5.849  31.228  0.00  0.00    -0.342 N 
ATOM      5  N   UNL     1      15.204  -6.645  29.637  0.00  0.00    -0.232 NA
ATOM     11  C   UNL     1      14.126  -6.869  30.355  0.00  0.00    +0.113 A 
ATOM     14  C   UNL     1      14.853  -4.904  31.064  0.00  0.00    +0.067 A 
ATOM     15  C   UNL     1      15.671  -5.424  30.065  0.00  0.00    +0.089 A 
ATOM     18  C   UNL     1      15.087  -3.676  31.685  0.00  0.00    +0.046 A 
ATOM     19  C   UNL     1      16.794  -4.689  29.648  0.00  0.00    +0.031 A 
ATOM     20  C   UNL     1      16.208  -2.958  31.257  0.00  0.00    +0.054 A 
ATOM     21  C   UNL     1      17.048  -3.453  30.256  0.00  0.00    +0.021 A 
ATOM     26  H   UNL     1      13.103  -5.797  31.881  0.00  0.00    +0.167 HD
BRANCH  20  25
ATOM      6  N   UNL     1      16.735  -0.665  32.342  0.00  0.00    -0.191 NA
ATOM     25  C   UNL     1      16.499  -1.693  31.856  0.00  0.00    +0.099 C 
ENDBRANCH  20  25
ENDBRANCH   7  11
BRANCH   3  12
ATOM     12  C   UNL     1      10.859  -9.534  32.688  0.00  0.00    +0.119 C 
BRANCH  12  13
ATOM      1  F   UNL     1       6.669 -10.454  30.360  0.00  0.00    -0.202 F 
ATOM      2  F   UNL     1       5.542  -8.189  31.399  0.00  0.00    -0.202 F 
ATOM     13  C   UNL     1       9.438  -9.174  32.343  0.00  0.00    -0.030 A 
ATOM     16  C   UNL     1       8.697  -9.997  31.494  0.00  0.00    +0.046 A 
ATOM     17  C   UNL     1       8.863  -8.020  32.873  0.00  0.00    +0.008 A 
ATOM     22  C   UNL     1       7.381  -9.664  31.176  0.00  0.00    +0.159 A 
ATOM     23  C   UNL     1       7.546  -7.686  32.554  0.00  0.00    +0.041 A 
ATOM     24  C   UNL     1       6.805  -8.509  31.705  0.00  0.00    +0.158 A 
ENDBRANCH  12  13
ENDBRANCH   3  12
TORSDOF 4
ENDMDL
MODEL 2
REMARK VINA RESULT:      -3.1      3.626      4.598
REMARK  Name = 45784318
REMARK  4 active torsions:
REMARK  status: ('A' for Active; 'I' for Inactive)
REMARK    1  A    between atoms: N_3  and  C_12
REMARK    2  A    between atoms: C_7  and  C_11
REMARK    3  A    between atoms: C_12  and  C_13
REMARK    4  A    between atoms: C_20  and  C_25
REMARK                            x       y       z     vdW  Elec       q    Type
REMARK                         _______ _______ _______ _____ _____    ______ ____
ROOT
ATOM      3  N   UNL     1      14.628  -9.884  30.573  0.00  0.00    -0.297 NA
ATOM      7  C   UNL     1      15.094  -9.534  28.302  0.00  0.00    +0.070 C 
ATOM      8  C   UNL     1      16.140 -10.491  28.900  0.00  0.00    +0.028 C 
ATOM      9  C   UNL     1      14.415  -8.890  29.519  0.00  0.00    +0.096 C 
ATOM     10  C   UNL     1      16.016 -10.318  30.408  0.00  0.00    +0.085 C 
ENDROOT
BRANCH   7  11
ATOM      4  N   UNL     1      15.571  -7.177  27.584  0.00  0.00    -0.342 N 
ATOM      5  N   UNL     1      16.234  -8.767  26.180  0.00  0.00    -0.232 NA
ATOM     11  C   UNL     1      15.646  -8.517  27.329  0.00  0.00    +0.113 A 
ATOM     14  C   UNL     1      16.150  -6.517  26.531  0.00  0.00    +0.067 A 
ATOM     15  C   UNL     1      16.555  -7.531  25.668  0.00  0.00    +0.089 A 
ATOM     18  C   UNL     1      16.348  -5.161  26.266  0.00  0.00    +0.046 A 
ATOM     19  C   UNL     1      17.197  -7.192  24.465  0.00  0.00    +0.031 A 
ATOM     20  C   UNL     1      16.988  -4.841  25.065  0.00  0.00    +0.054 A 
ATOM     21  C   UNL     1      17.405  -5.837  24.178  0.00  0.00    +0.021 A 
ATOM     26  H   UNL     1      15.164  -6.745  28.403  0.00  0.00    +0.167 HD
BRANCH  20  25
ATOM      6  N   UNL     1      17.405  -2.353  24.475  0.00  0.00    -0.191 NA
ATOM     25  C   UNL     1      17.218  -3.468  24.739  0.00  0.00    +0.099 C 
ENDBRANCH  20  25
ENDBRANCH   7  11
BRANCH   3  12
ATOM     12  C   UNL     1      14.370  -9.348  31.902  0.00  0.00    +0.119 C 
BRANCH  12  13
ATOM      1  F   UNL     1       9.623 -10.448  31.628  0.00  0.00    -0.202 F 
ATOM      2  F   UNL     1       8.948  -7.980  32.595  0.00  0.00    -0.202 F 
ATOM     13  C   UNL     1      12.921  -8.982  32.087  0.00  0.00    -0.030 A 
ATOM     16  C   UNL     1      11.924  -9.903  31.765  0.00  0.00    +0.046 A 
ATOM     17  C   UNL     1      12.577  -7.724  32.580  0.00  0.00    +0.008 A 
ATOM     22  C   UNL     1      10.581  -9.564  31.937  0.00  0.00    +0.159 A 
ATOM     23  C   UNL     1      11.235  -7.385  32.752  0.00  0.00    +0.041 A 
ATOM     24  C   UNL     1      10.236  -8.306  32.430  0.00  0.00    +0.158 A 
ENDBRANCH  12  13
ENDBRANCH   3  12
TORSDOF 4
ENDMDL
MODEL 3
REMARK VINA RESULT:      -2.7      4.971      6.960
REMARK  Name = 45784318
REMARK  4 active torsions:
REMARK  status: ('A' for Active; 'I' for Inactive)
REMARK    1  A    between atoms: N_3  and  C_12
REMARK    2  A    between atoms: C_7  and  C_11
REMARK    3  A    between atoms: C_12  and  C_13
REMARK    4  A    between atoms: C_20  and  C_25
REMARK                            x       y       z     vdW  Elec       q    Type
REMARK                         _______ _______ _______ _____ _____    ______ ____
ROOT
ATOM      3  N   UNL     1      15.508  -9.051  30.320  0.00  0.00    -0.297 NA
ATOM      7  C   UNL     1      15.386  -8.840  27.987  0.00  0.00    +0.070 C 
ATOM      8  C   UNL     1      16.321 -10.007  28.350  0.00  0.00    +0.028 C 
ATOM      9  C   UNL     1      15.232  -8.045  29.292  0.00  0.00    +0.096 C 
ATOM     10  C   UNL     1      16.664  -9.794  29.819  0.00  0.00    +0.085 C 
ENDROOT
BRANCH   7  11
ATOM      4  N   UNL     1      15.634  -6.639  26.806  0.00  0.00    -0.342 N 
ATOM      5  N   UNL     1      16.493  -8.401  25.758  0.00  0.00    -0.232 NA
ATOM     11  C   UNL     1      15.854  -7.988  26.830  0.00  0.00    +0.113 A 
ATOM     14  C   UNL     1      16.167  -6.148  25.643  0.00  0.00    +0.067 A 
ATOM     15  C   UNL     1      16.697  -7.267  25.006  0.00  0.00    +0.089 A 
ATOM     18  C   UNL     1      16.230  -4.861  25.108  0.00  0.00    +0.046 A 
ATOM     19  C   UNL     1      17.330  -7.111  23.761  0.00  0.00    +0.031 A 
ATOM     20  C   UNL     1      16.863  -4.723  23.869  0.00  0.00    +0.054 A 
ATOM     21  C   UNL     1      17.403  -5.828  23.205  0.00  0.00    +0.021 A 
ATOM     26  H   UNL     1      15.164  -6.097  27.518  0.00  0.00    +0.167 HD
BRANCH  20  25
ATOM      6  N   UNL     1      17.034  -2.376  22.786  0.00  0.00    -0.191 NA
ATOM     25  C   UNL     1      16.957  -3.428  23.271  0.00  0.00    +0.099 C 
ENDBRANCH  20  25
ENDBRANCH   7  11
BRANCH   3  12
ATOM     12  C   UNL     1      15.755  -8.456  31.626  0.00  0.00    +0.119 C 
BRANCH  12  13
ATOM      1  F   UNL     1      13.117  -4.358  31.889  0.00  0.00    -0.202 F 
ATOM      2  F   UNL     1      15.354  -2.838  31.485  0.00  0.00    -0.202 F 
ATOM     13  C   UNL     1      15.648  -6.955  31.588  0.00  0.00    -0.030 A 
ATOM     16  C   UNL     1      14.407  -6.340  31.759  0.00  0.00    +0.046 A 
ATOM     17  C   UNL     1      16.789  -6.180  31.382  0.00  0.00    +0.008 A 
ATOM     22  C   UNL     1      14.308  -4.949  31.725  0.00  0.00    +0.159 A 
ATOM     23  C   UNL     1      16.689  -4.789  31.346  0.00  0.00    +0.041 A 
ATOM     24  C   UNL     1      15.449  -4.173  31.518  0.00  0.00    +0.158 A 
ENDBRANCH  12  13
ENDBRANCH   3  12
TORSDOF 4
ENDMDL
MODEL 4
REMARK VINA RESULT:      -1.1     14.737     16.860
REMARK  Name = 45784318
REMARK  4 active torsions:
REMARK  status: ('A' for Active; 'I' for Inactive)
REMARK    1  A    between atoms: N_3  and  C_12
REMARK    2  A    between atoms: C_7  and  C_11
REMARK    3  A    between atoms: C_12  and  C_13
REMARK    4  A    between atoms: C_20  and  C_25
REMARK                            x       y       z     vdW  Elec       q    Type
REMARK                         _______ _______ _______ _____ _____    ______ ____
ROOT
ATOM      3  N   UNL     1      -3.254  -0.399  24.682  0.00  0.00    -0.297 NA
ATOM      7  C   UNL     1      -1.162  -1.072  23.863  0.00  0.00    +0.070 C 
ATOM      8  C   UNL     1      -1.400  -1.702  25.246  0.00  0.00    +0.028 C 
ATOM      9  C   UNL     1      -2.207   0.049  23.761  0.00  0.00    +0.096 C 
ATOM     10  C   UNL     1      -2.537  -0.893  25.857  0.00  0.00    +0.085 C 
ENDROOT
BRANCH   7  11
ATOM      4  N   UNL     1       1.326  -1.395  23.841  0.00  0.00    -0.342 N 
ATOM      5  N   UNL     1       0.606   0.604  23.191  0.00  0.00    -0.232 NA
ATOM     11  C   UNL     1       0.248  -0.586  23.620  0.00  0.00    +0.113 A 
ATOM     14  C   UNL     1       2.456  -0.682  23.535  0.00  0.00    +0.067 A 
ATOM     15  C   UNL     1       1.980   0.562  23.132  0.00  0.00    +0.089 A 
ATOM     18  C   UNL     1       3.813  -1.008  23.574  0.00  0.00    +0.046 A 
ATOM     19  C   UNL     1       2.897   1.553  22.741  0.00  0.00    +0.031 A 
ATOM     20  C   UNL     1       4.711  -0.011  23.183  0.00  0.00    +0.054 A 
ATOM     21  C   UNL     1       4.264   1.248  22.774  0.00  0.00    +0.021 A 
ATOM     26  H   UNL     1       1.300  -2.351  24.172  0.00  0.00    +0.167 HD
BRANCH  20  25
ATOM      6  N   UNL     1       7.253  -0.511  23.219  0.00  0.00    -0.191 NA
ATOM     25  C   UNL     1       6.114  -0.286  23.203  0.00  0.00    +0.099 C 
ENDBRANCH  20  25
ENDBRANCH   7  11
BRANCH   3  12
ATOM     12  C   UNL     1      -4.193   0.663  25.012  0.00  0.00    +0.119 C 
BRANCH  12  13
ATOM      1  F   UNL     1      -0.309   3.448  26.001  0.00  0.00    -0.202 F 
ATOM      2  F   UNL     1      -1.672   5.696  25.249  0.00  0.00    -0.202 F 
ATOM     13  C   UNL     1      -3.520   2.008  25.076  0.00  0.00    -0.030 A 
ATOM     16  C   UNL     1      -2.200   2.106  25.518  0.00  0.00    +0.046 A 
ATOM     17  C   UNL     1      -4.215   3.155  24.692  0.00  0.00    +0.008 A 
ATOM     22  C   UNL     1      -1.576   3.353  25.576  0.00  0.00    +0.159 A 
ATOM     23  C   UNL     1      -3.591   4.401  24.751  0.00  0.00    +0.041 A 
ATOM     24  C   UNL     1      -2.271   4.500  25.193  0.00  0.00    +0.158 A 
ENDBRANCH  12  13
ENDBRANCH   3  12
TORSDOF 4
ENDMDL
MODEL 5
REMARK VINA RESULT:      -0.7     14.902     17.139
REMARK  Name = 45784318
REMARK  4 active torsions:
REMARK  status: ('A' for Active; 'I' for Inactive)
REMARK    1  A    between atoms: N_3  and  C_12
REMARK    2  A    between atoms: C_7  and  C_11
REMARK    3  A    between atoms: C_12  and  C_13
REMARK    4  A    between atoms: C_20  and  C_25
REMARK                            x       y       z     vdW  Elec       q    Type
REMARK                         _______ _______ _______ _____ _____    ______ ____
ROOT
ATOM      3  N   UNL     1      -3.660   2.247  24.940  0.00  0.00    -0.297 NA
ATOM      7  C   UNL     1      -1.398   2.554  24.402  0.00  0.00    +0.070 C 
ATOM      8  C   UNL     1      -2.277   3.202  23.318  0.00  0.00    +0.028 C 
ATOM      9  C   UNL     1      -2.351   1.633  25.177  0.00  0.00    +0.096 C 
ATOM     10  C   UNL     1      -3.661   2.597  23.520  0.00  0.00    +0.085 C 
ENDROOT
BRANCH   7  11
ATOM      4  N   UNL     1       1.072   2.112  24.361  0.00  0.00    -0.342 N 
ATOM      5  N   UNL     1      -0.150   0.901  22.955  0.00  0.00    -0.232 NA
ATOM     11  C   UNL     1      -0.176   1.833  23.881  0.00  0.00    +0.113 A 
ATOM     14  C   UNL     1       1.964   1.307  23.703  0.00  0.00    +0.067 A 
ATOM     15  C   UNL     1       1.178   0.560  22.830  0.00  0.00    +0.089 A 
ATOM     18  C   UNL     1       3.351   1.170  23.792  0.00  0.00    +0.046 A 
ATOM     19  C   UNL     1       1.792  -0.383  21.989  0.00  0.00    +0.031 A 
ATOM     20  C   UNL     1       3.946   0.228  22.948  0.00  0.00    +0.054 A 
ATOM     21  C   UNL     1       3.183  -0.535  22.061  0.00  0.00    +0.021 A 
ATOM     26  H   UNL     1       1.301   2.791  25.076  0.00  0.00    +0.167 HD
BRANCH  20  25
ATOM      6  N   UNL     1       6.514  -0.105  23.032  0.00  0.00    -0.191 NA
ATOM     25  C   UNL     1       5.363   0.044  22.995  0.00  0.00    +0.099 C 
ENDBRANCH  20  25
ENDBRANCH   7  11
BRANCH   3  12
ATOM     12  C   UNL     1      -4.760   1.362  25.293  0.00  0.00    +0.119 C 
BRANCH  12  13
ATOM      1  F   UNL     1      -4.688  -2.783  22.718  0.00  0.00    -0.202 F 
ATOM      2  F   UNL     1      -3.350  -4.064  24.730  0.00  0.00    -0.202 F 
ATOM     13  C   UNL     1      -4.383  -0.088  25.143  0.00  0.00    -0.030 A 
ATOM     16  C   UNL     1      -4.717  -0.777  23.977  0.00  0.00    +0.046 A 
ATOM     17  C   UNL     1      -3.701  -0.741  26.169  0.00  0.00    +0.008 A 
ATOM     22  C   UNL     1      -4.367  -2.121  23.838  0.00  0.00    +0.159 A 
ATOM     23  C   UNL     1      -3.352  -2.085  26.030  0.00  0.00    +0.041 A 
ATOM     24  C   UNL     1      -3.685  -2.775  24.864  0.00  0.00    +0.158 A 
ENDBRANCH  12  13
ENDBRANCH   3  12
TORSDOF 4
ENDMDL
