MODEL 1
REMARK VINA RESULT:      25.0      0.000      0.000
REMARK  Name = 11884210
REMARK  2 active torsions:
REMARK  status: ('A' for Active; 'I' for Inactive)
REMARK    1  A    between atoms: C_17  and  C_21
REMARK    2  A    between atoms: C_20  and  C_23
REMARK                            x       y       z     vdW  Elec       q    Type
REMARK                         _______ _______ _______ _____ _____    ______ ____
ROOT
ATOM      3  O   UNL     1       1.885  -0.663  21.437  0.00  0.00    -0.273 OA
ATOM      4  O   UNL     1       0.521   3.091  24.898  0.00  0.00    -0.270 OA
ATOM      5  O   UNL     1       4.687  -2.735  23.515  0.00  0.00    -0.269 OA
ATOM      6  N   UNL     1       1.470   1.106  24.186  0.00  0.00    -0.283 N 
ATOM      7  N   UNL     1       3.767  -0.627  23.778  0.00  0.00    -0.293 N 
ATOM      8  N   UNL     1      -0.123   0.340  21.814  0.00  0.00    -0.283 N 
ATOM      9  C   UNL     1       1.286  -0.269  23.742  0.00  0.00    +0.180 C 
ATOM     10  C   UNL     1       2.457  -1.179  24.132  0.00  0.00    +0.140 C 
ATOM     11  C   UNL     1       2.807   1.492  24.636  0.00  0.00    +0.128 C 
ATOM     12  C   UNL     1       3.895   0.836  23.799  0.00  0.00    +0.127 C 
ATOM     13  C   UNL     1       1.074  -0.195  22.238  0.00  0.00    +0.239 C 
ATOM     14  C   UNL     1       0.411   1.994  24.348  0.00  0.00    +0.249 C 
ATOM     15  C   UNL     1      -0.925   1.627  23.805  0.00  0.00    +0.059 A 
ATOM     16  C   UNL     1      -1.128   0.956  22.589  0.00  0.00    +0.046 A 
ATOM     17  C   UNL     1       4.835  -1.511  23.524  0.00  0.00    +0.253 C 
ATOM     18  C   UNL     1      -2.032   2.160  24.492  0.00  0.00    +0.023 A 
ATOM     19  C   UNL     1      -2.428   0.895  22.054  0.00  0.00    +0.024 A 
ATOM     20  C   UNL     1      -3.320   2.049  23.970  0.00  0.00    -0.014 A 
ATOM     22  C   UNL     1      -3.517   1.427  22.744  0.00  0.00    +0.010 A 
ATOM     32  H   UNL     1      -0.349   0.183  20.834  0.00  0.00    +0.155 HD
ENDROOT
BRANCH  20  23
ATOM      2  F   UNL     1      -5.160   0.423  25.335  0.00  0.00    -0.205 F 
ATOM     23  C   UNL     1      -4.446   2.599  24.692  0.00  0.00    +0.017 A 
ATOM     26  C   UNL     1      -5.335   1.752  25.356  0.00  0.00    +0.131 A 
ATOM     27  C   UNL     1      -4.643   3.980  24.725  0.00  0.00    +0.011 A 
ATOM     29  C   UNL     1      -6.419   2.287  26.052  0.00  0.00    +0.039 A 
ATOM     30  C   UNL     1      -5.727   4.514  25.420  0.00  0.00    +0.001 A 
ATOM     31  C   UNL     1      -6.616   3.668  26.084  0.00  0.00    +0.003 A 
ENDBRANCH  20  23
BRANCH  17  21
ATOM      1  S   UNL     1       6.548   0.556  24.034  0.00  0.00    -0.092 S 
ATOM     21  C   UNL     1       6.150  -0.924  23.277  0.00  0.00    +0.074 A 
ATOM     24  C   UNL     1       7.168  -1.404  22.491  0.00  0.00    +0.021 A 
ATOM     25  C   UNL     1       8.302  -0.541  22.508  0.00  0.00    +0.008 A 
ATOM     28  C   UNL     1       8.099   0.563  23.308  0.00  0.00    +0.046 A 
ENDBRANCH  17  21
TORSDOF 2
ENDMDL
MODEL 2
REMARK VINA RESULT:      25.7      3.516      9.470
REMARK  Name = 11884210
REMARK  2 active torsions:
REMARK  status: ('A' for Active; 'I' for Inactive)
REMARK    1  A    between atoms: C_17  and  C_21
REMARK    2  A    between atoms: C_20  and  C_23
REMARK                            x       y       z     vdW  Elec       q    Type
REMARK                         _______ _______ _______ _____ _____    ______ ____
ROOT
ATOM      3  O   UNL     1      -2.571   0.967  22.395  0.00  0.00    -0.273 OA
ATOM      4  O   UNL     1       1.305   1.297  25.972  0.00  0.00    -0.270 OA
ATOM      5  O   UNL     1      -4.461   4.523  22.881  0.00  0.00    -0.269 OA
ATOM      6  N   UNL     1      -0.388   2.073  24.601  0.00  0.00    -0.283 N 
ATOM      7  N   UNL     1      -2.976   3.334  24.199  0.00  0.00    -0.293 N 
ATOM      8  N   UNL     1      -0.444   0.157  22.348  0.00  0.00    -0.283 N 
ATOM      9  C   UNL     1      -0.842   2.413  23.259  0.00  0.00    +0.180 C 
ATOM     10  C   UNL     1      -1.878   3.543  23.252  0.00  0.00    +0.140 C 
ATOM     11  C   UNL     1      -1.164   2.598  25.725  0.00  0.00    +0.128 C 
ATOM     12  C   UNL     1      -2.657   2.596  25.428  0.00  0.00    +0.127 C 
ATOM     13  C   UNL     1      -1.378   1.120  22.663  0.00  0.00    +0.239 C 
ATOM     14  C   UNL     1       0.817   1.423  24.848  0.00  0.00    +0.249 C 
ATOM     15  C   UNL     1       1.553   0.815  23.707  0.00  0.00    +0.059 A 
ATOM     16  C   UNL     1       0.938   0.155  22.629  0.00  0.00    +0.046 A 
ATOM     17  C   UNL     1      -4.233   3.911  23.926  0.00  0.00    +0.253 C 
ATOM     18  C   UNL     1       2.953   0.759  23.841  0.00  0.00    +0.023 A 
ATOM     19  C   UNL     1       1.734  -0.602  21.752  0.00  0.00    +0.024 A 
ATOM     20  C   UNL     1       3.731   0.042  22.933  0.00  0.00    -0.014 A 
ATOM     22  C   UNL     1       3.120  -0.649  21.895  0.00  0.00    +0.010 A 
ATOM     32  H   UNL     1      -0.779  -0.599  21.754  0.00  0.00    +0.155 HD
ENDROOT
BRANCH  20  23
ATOM      2  F   UNL     1       5.028   1.074  25.202  0.00  0.00    -0.205 F 
ATOM     23  C   UNL     1       5.169   0.000  23.084  0.00  0.00    +0.017 A 
ATOM     26  C   UNL     1       5.770   0.526  24.229  0.00  0.00    +0.131 A 
ATOM     27  C   UNL     1       5.957  -0.567  22.082  0.00  0.00    +0.011 A 
ATOM     29  C   UNL     1       7.157   0.483  24.371  0.00  0.00    +0.039 A 
ATOM     30  C   UNL     1       7.343  -0.610  22.224  0.00  0.00    +0.001 A 
ATOM     31  C   UNL     1       7.944  -0.084  23.369  0.00  0.00    +0.003 A 
ENDBRANCH  20  23
BRANCH  17  21
ATOM      1  S   UNL     1      -5.793   2.200  25.378  0.00  0.00    -0.092 S 
ATOM     21  C   UNL     1      -5.273   3.769  24.942  0.00  0.00    +0.074 A 
ATOM     24  C   UNL     1      -5.931   4.753  25.637  0.00  0.00    +0.021 A 
ATOM     25  C   UNL     1      -6.883   4.211  26.549  0.00  0.00    +0.008 A 
ATOM     28  C   UNL     1      -6.910   2.834  26.509  0.00  0.00    +0.046 A 
ENDBRANCH  17  21
TORSDOF 2
ENDMDL
MODEL 3
REMARK VINA RESULT:      27.1      3.386      9.546
REMARK  Name = 11884210
REMARK  2 active torsions:
REMARK  status: ('A' for Active; 'I' for Inactive)
REMARK    1  A    between atoms: C_17  and  C_21
REMARK    2  A    between atoms: C_20  and  C_23
REMARK                            x       y       z     vdW  Elec       q    Type
REMARK                         _______ _______ _______ _____ _____    ______ ____
ROOT
ATOM      3  O   UNL     1      -1.096   4.223  23.752  0.00  0.00    -0.273 OA
ATOM      4  O   UNL     1       0.329  -0.863  23.564  0.00  0.00    -0.270 OA
ATOM      5  O   UNL     1      -3.520   4.290  27.005  0.00  0.00    -0.269 OA
ATOM      6  N   UNL     1      -0.539   1.064  24.504  0.00  0.00    -0.283 N 
ATOM      7  N   UNL     1      -2.734   2.579  25.659  0.00  0.00    -0.293 N 
ATOM      8  N   UNL     1       0.862   3.260  23.102  0.00  0.00    -0.283 N 
ATOM      9  C   UNL     1      -0.301   2.376  25.088  0.00  0.00    +0.180 C 
ATOM     10  C   UNL     1      -1.358   2.762  26.129  0.00  0.00    +0.140 C 
ATOM     11  C   UNL     1      -1.849   0.455  24.733  0.00  0.00    +0.128 C 
ATOM     12  C   UNL     1      -2.965   1.490  24.701  0.00  0.00    +0.127 C 
ATOM     13  C   UNL     1      -0.245   3.347  23.919  0.00  0.00    +0.239 C 
ATOM     14  C   UNL     1       0.463   0.318  23.892  0.00  0.00    +0.249 C 
ATOM     15  C   UNL     1       1.762   0.974  23.582  0.00  0.00    +0.059 A 
ATOM     16  C   UNL     1       1.892   2.297  23.127  0.00  0.00    +0.046 A 
ATOM     17  C   UNL     1      -3.755   3.384  26.202  0.00  0.00    +0.253 C 
ATOM     18  C   UNL     1       2.890   0.133  23.586  0.00  0.00    +0.023 A 
ATOM     19  C   UNL     1       3.132   2.723  22.621  0.00  0.00    +0.024 A 
ATOM     20  C   UNL     1       4.125   0.587  23.124  0.00  0.00    -0.014 A 
ATOM     22  C   UNL     1       4.243   1.880  22.630  0.00  0.00    +0.010 A 
ATOM     32  H   UNL     1       1.000   4.044  22.468  0.00  0.00    +0.155 HD
ENDROOT
BRANCH  20  23
ATOM      2  F   UNL     1       3.970  -2.063  24.041  0.00  0.00    -0.205 F 
ATOM     23  C   UNL     1       5.274  -0.290  23.140  0.00  0.00    +0.017 A 
ATOM     26  C   UNL     1       5.150  -1.600  23.605  0.00  0.00    +0.131 A 
ATOM     27  C   UNL     1       6.510   0.175  22.690  0.00  0.00    +0.011 A 
ATOM     29  C   UNL     1       6.261  -2.444  23.618  0.00  0.00    +0.039 A 
ATOM     30  C   UNL     1       7.620  -0.668  22.703  0.00  0.00    +0.001 A 
ATOM     31  C   UNL     1       7.496  -1.978  23.168  0.00  0.00    +0.003 A 
ENDBRANCH  20  23
BRANCH  17  21
ATOM      1  S   UNL     1      -5.573   1.487  25.455  0.00  0.00    -0.092 S 
ATOM     21  C   UNL     1      -5.127   3.103  25.787  0.00  0.00    +0.074 A 
ATOM     24  C   UNL     1      -6.167   3.982  25.613  0.00  0.00    +0.021 A 
ATOM     25  C   UNL     1      -7.358   3.318  25.200  0.00  0.00    +0.008 A 
ATOM     28  C   UNL     1      -7.175   1.958  25.075  0.00  0.00    +0.046 A 
ENDBRANCH  17  21
TORSDOF 2
ENDMDL
