MODEL 1
REMARK VINA RESULT:      -0.0      0.000      0.000
REMARK  Name = 11941843
REMARK  4 active torsions:
REMARK  status: ('A' for Active; 'I' for Inactive)
REMARK    1  A    between atoms: N_5  and  C_12
REMARK    2  A    between atoms: N_6  and  C_13
REMARK    3  A    between atoms: N_7  and  C_16
REMARK    4  A    between atoms: C_24  and  C_27
REMARK                            x       y       z     vdW  Elec       q    Type
REMARK                         _______ _______ _______ _____ _____    ______ ____
ROOT
ATOM      2  O   UNL     1      -0.951   4.124  23.950  0.00  0.00    -0.370 OA
ATOM      3  O   UNL     1      -2.180   3.562  26.762  0.00  0.00    -0.370 OA
ATOM     10  C   UNL     1      -1.704   2.710  25.708  0.00  0.00    +0.171 C 
ATOM     11  C   UNL     1      -2.085   3.361  24.393  0.00  0.00    +0.171 C 
ATOM     12  C   UNL     1      -0.193   2.694  25.686  0.00  0.00    +0.131 C 
ATOM     13  C   UNL     1      -3.226   4.283  24.755  0.00  0.00    +0.130 C 
ATOM     14  C   UNL     1       0.133   3.933  24.872  0.00  0.00    +0.185 C 
ATOM     15  C   UNL     1      -2.907   4.659  26.190  0.00  0.00    +0.185 C 
ENDROOT
BRANCH  13   6
ATOM      6  N   UNL     1      -4.481   3.566  24.693  0.00  0.00    -0.306 N 
ATOM      8  N   UNL     1      -3.415   1.476  24.729  0.00  0.00    -0.214 NA
ATOM      9  N   UNL     1      -5.818   1.639  24.622  0.00  0.00    -0.223 NA
ATOM     23  C   UNL     1      -4.573   2.185  24.681  0.00  0.00    +0.216 A 
ATOM     24  C   UNL     1      -3.543   0.133  24.716  0.00  0.00    +0.083 A 
ATOM     25  C   UNL     1      -5.871   0.290  24.614  0.00  0.00    +0.116 A 
ATOM     26  C   UNL     1      -4.756  -0.522  24.659  0.00  0.00    +0.049 A 
ATOM     32  H   UNL     1      -5.352   4.084  24.710  0.00  0.00    +0.149 HD
BRANCH  24  27
ATOM      1  S   UNL     1      -1.578  -0.900  26.292  0.00  0.00    -0.095 S 
ATOM     27  C   UNL     1      -2.300  -0.591  24.768  0.00  0.00    +0.038 A 
ATOM     28  C   UNL     1      -1.547  -1.108  23.731  0.00  0.00    +0.017 A 
ATOM     29  C   UNL     1      -0.371  -1.762  24.195  0.00  0.00    +0.008 A 
ATOM     30  C   UNL     1      -0.263  -1.723  25.568  0.00  0.00    +0.046 A 
ENDBRANCH  24  27
ENDBRANCH  13   6
BRANCH  12   5
ATOM      4  O   UNL     1       1.734   2.562  23.555  0.00  0.00    -0.253 OA
ATOM      5  N   UNL     1       0.308   1.501  25.047  0.00  0.00    -0.292 N 
ATOM      7  N   UNL     1       1.559   0.247  23.579  0.00  0.00    -0.297 N 
ATOM     19  C   UNL     1       1.246   1.532  24.017  0.00  0.00    +0.300 C 
ATOM     31  H   UNL     1      -0.086   0.603  25.313  0.00  0.00    +0.151 HD
ATOM     33  H   UNL     1       1.043  -0.530  23.980  0.00  0.00    +0.151 HD
BRANCH   7  16
ATOM     16  C   UNL     1       2.505  -0.018  22.518  0.00  0.00    +0.074 C 
ATOM     17  C   UNL     1       3.602   1.050  22.479  0.00  0.00    +0.022 C 
ATOM     18  C   UNL     1       3.102  -1.423  22.650  0.00  0.00    +0.022 C 
ATOM     20  C   UNL     1       4.576   0.933  23.652  0.00  0.00    +0.002 C 
ATOM     21  C   UNL     1       4.075  -1.537  23.823  0.00  0.00    +0.002 C 
ATOM     22  C   UNL     1       5.165  -0.471  23.756  0.00  0.00    +0.000 C 
ENDBRANCH   7  16
ENDBRANCH  12   5
TORSDOF 4
ENDMDL
MODEL 2
REMARK VINA RESULT:       0.2      2.071      3.931
REMARK  Name = 11941843
REMARK  4 active torsions:
REMARK  status: ('A' for Active; 'I' for Inactive)
REMARK    1  A    between atoms: N_5  and  C_12
REMARK    2  A    between atoms: N_6  and  C_13
REMARK    3  A    between atoms: N_7  and  C_16
REMARK    4  A    between atoms: C_24  and  C_27
REMARK                            x       y       z     vdW  Elec       q    Type
REMARK                         _______ _______ _______ _____ _____    ______ ____
ROOT
ATOM      2  O   UNL     1      -1.371  -1.140  26.494  0.00  0.00    -0.370 OA
ATOM      3  O   UNL     1      -2.783  -2.232  23.936  0.00  0.00    -0.370 OA
ATOM     10  C   UNL     1      -2.002  -1.056  24.202  0.00  0.00    +0.171 C 
ATOM     11  C   UNL     1      -2.353  -0.588  25.602  0.00  0.00    +0.171 C 
ATOM     12  C   UNL     1      -0.535  -1.407  24.289  0.00  0.00    +0.131 C 
ATOM     13  C   UNL     1      -3.707  -1.204  25.868  0.00  0.00    +0.130 C 
ATOM     14  C   UNL     1      -0.395  -1.864  25.731  0.00  0.00    +0.185 C 
ATOM     15  C   UNL     1      -3.660  -2.479  25.045  0.00  0.00    +0.185 C 
ENDROOT
BRANCH  13   6
ATOM      6  N   UNL     1      -4.752  -0.331  25.381  0.00  0.00    -0.306 N 
ATOM      8  N   UNL     1      -3.309   1.514  25.264  0.00  0.00    -0.214 NA
ATOM      9  N   UNL     1      -5.626   1.712  24.630  0.00  0.00    -0.223 NA
ATOM     23  C   UNL     1      -4.556   1.005  25.083  0.00  0.00    +0.216 A 
ATOM     24  C   UNL     1      -3.154   2.821  24.963  0.00  0.00    +0.083 A 
ATOM     25  C   UNL     1      -5.399   3.012  24.349  0.00  0.00    +0.116 A 
ATOM     26  C   UNL     1      -4.172   3.626  24.497  0.00  0.00    +0.049 A 
ATOM     32  H   UNL     1      -5.672  -0.714  25.193  0.00  0.00    +0.149 HD
BRANCH  24  27
ATOM      1  S   UNL     1      -0.664   2.347  25.957  0.00  0.00    -0.095 S 
ATOM     27  C   UNL     1      -1.824   3.331  25.164  0.00  0.00    +0.038 A 
ATOM     28  C   UNL     1      -1.295   4.556  24.805  0.00  0.00    +0.017 A 
ATOM     29  C   UNL     1       0.072   4.683  25.183  0.00  0.00    +0.008 A 
ATOM     30  C   UNL     1       0.541   3.555  25.818  0.00  0.00    +0.046 A 
ENDBRANCH  24  27
ENDBRANCH  13   6
BRANCH  12   5
ATOM      4  O   UNL     1       1.824  -1.330  22.646  0.00  0.00    -0.253 OA
ATOM      5  N   UNL     1       0.295  -0.257  24.022  0.00  0.00    -0.292 N 
ATOM      7  N   UNL     1       2.043   0.933  23.117  0.00  0.00    -0.297 N 
ATOM     19  C   UNL     1       1.425  -0.312  23.209  0.00  0.00    +0.300 C 
ATOM     31  H   UNL     1       0.085   0.616  24.498  0.00  0.00    +0.151 HD
ATOM     33  H   UNL     1       1.672   1.690  23.682  0.00  0.00    +0.151 HD
BRANCH   7  16
ATOM     16  C   UNL     1       3.239   1.166  22.339  0.00  0.00    +0.074 C 
ATOM     17  C   UNL     1       4.291   1.920  23.159  0.00  0.00    +0.022 C 
ATOM     18  C   UNL     1       3.802  -0.146  21.786  0.00  0.00    +0.022 C 
ATOM     20  C   UNL     1       4.923   1.048  24.244  0.00  0.00    +0.002 C 
ATOM     21  C   UNL     1       4.435  -1.016  22.872  0.00  0.00    +0.002 C 
ATOM     22  C   UNL     1       5.486  -0.248  23.667  0.00  0.00    +0.000 C 
ENDBRANCH   7  16
ENDBRANCH  12   5
TORSDOF 4
ENDMDL
MODEL 3
REMARK VINA RESULT:       2.4      2.448      4.355
REMARK  Name = 11941843
REMARK  4 active torsions:
REMARK  status: ('A' for Active; 'I' for Inactive)
REMARK    1  A    between atoms: N_5  and  C_12
REMARK    2  A    between atoms: N_6  and  C_13
REMARK    3  A    between atoms: N_7  and  C_16
REMARK    4  A    between atoms: C_24  and  C_27
REMARK                            x       y       z     vdW  Elec       q    Type
REMARK                         _______ _______ _______ _____ _____    ______ ____
ROOT
ATOM      2  O   UNL     1      -3.218   3.258  23.578  0.00  0.00    -0.370 OA
ATOM      3  O   UNL     1      -5.228   2.786  25.917  0.00  0.00    -0.370 OA
ATOM     10  C   UNL     1      -3.795   2.740  25.827  0.00  0.00    +0.171 C 
ATOM     11  C   UNL     1      -3.446   2.156  24.472  0.00  0.00    +0.171 C 
ATOM     12  C   UNL     1      -3.226   4.139  25.782  0.00  0.00    +0.131 C 
ATOM     13  C   UNL     1      -4.689   1.400  24.064  0.00  0.00    +0.130 C 
ATOM     14  C   UNL     1      -3.337   4.488  24.308  0.00  0.00    +0.185 C 
ATOM     15  C   UNL     1      -5.795   2.190  24.741  0.00  0.00    +0.185 C 
ENDROOT
BRANCH  13   6
ATOM      6  N   UNL     1      -4.644   0.053  24.588  0.00  0.00    -0.306 N 
ATOM      8  N   UNL     1      -2.342  -0.147  24.177  0.00  0.00    -0.214 NA
ATOM      9  N   UNL     1      -3.586  -1.961  25.163  0.00  0.00    -0.223 NA
ATOM     23  C   UNL     1      -3.489  -0.707  24.644  0.00  0.00    +0.216 A 
ATOM     24  C   UNL     1      -1.236  -0.916  24.248  0.00  0.00    +0.083 A 
ATOM     25  C   UNL     1      -2.442  -2.674  25.203  0.00  0.00    +0.116 A 
ATOM     26  C   UNL     1      -1.226  -2.199  24.756  0.00  0.00    +0.049 A 
ATOM     32  H   UNL     1      -5.482  -0.355  24.986  0.00  0.00    +0.149 HD
BRANCH  24  27
ATOM      1  S   UNL     1       0.199   1.383  23.998  0.00  0.00    -0.095 S 
ATOM     27  C   UNL     1      -0.038  -0.297  23.747  0.00  0.00    +0.038 A 
ATOM     28  C   UNL     1       1.014  -0.864  23.055  0.00  0.00    +0.017 A 
ATOM     29  C   UNL     1       2.021   0.090  22.731  0.00  0.00    +0.008 A 
ATOM     30  C   UNL     1       1.705   1.351  23.185  0.00  0.00    +0.046 A 
ENDBRANCH  24  27
ENDBRANCH  13   6
BRANCH  12   5
ATOM      4  O   UNL     1      -1.634   1.874  26.559  0.00  0.00    -0.253 OA
ATOM      5  N   UNL     1      -1.851   4.159  26.221  0.00  0.00    -0.292 N 
ATOM      7  N   UNL     1       0.150   3.303  26.964  0.00  0.00    -0.297 N 
ATOM     19  C   UNL     1      -1.155   3.007  26.580  0.00  0.00    +0.300 C 
ATOM     31  H   UNL     1      -1.389   5.057  26.337  0.00  0.00    +0.151 HD
ATOM     33  H   UNL     1       0.420   4.281  27.015  0.00  0.00    +0.151 HD
BRANCH   7  16
ATOM     16  C   UNL     1       1.099   2.296  27.388  0.00  0.00    +0.074 C 
ATOM     17  C   UNL     1       2.495   2.899  27.572  0.00  0.00    +0.022 C 
ATOM     18  C   UNL     1       0.624   1.594  28.664  0.00  0.00    +0.022 C 
ATOM     20  C   UNL     1       2.588   3.796  28.806  0.00  0.00    +0.002 C 
ATOM     21  C   UNL     1       0.719   2.493  29.896  0.00  0.00    +0.002 C 
ATOM     22  C   UNL     1       2.120   3.071  30.065  0.00  0.00    +0.000 C 
ENDBRANCH   7  16
ENDBRANCH  12   5
TORSDOF 4
ENDMDL
MODEL 4
REMARK VINA RESULT:       3.5      2.923      5.148
REMARK  Name = 11941843
REMARK  4 active torsions:
REMARK  status: ('A' for Active; 'I' for Inactive)
REMARK    1  A    between atoms: N_5  and  C_12
REMARK    2  A    between atoms: N_6  and  C_13
REMARK    3  A    between atoms: N_7  and  C_16
REMARK    4  A    between atoms: C_24  and  C_27
REMARK                            x       y       z     vdW  Elec       q    Type
REMARK                         _______ _______ _______ _____ _____    ______ ____
ROOT
ATOM      2  O   UNL     1      -1.743  -1.802  24.671  0.00  0.00    -0.370 OA
ATOM      3  O   UNL     1      -2.642   0.797  23.197  0.00  0.00    -0.370 OA
ATOM     10  C   UNL     1      -2.222   0.525  24.544  0.00  0.00    +0.171 C 
ATOM     11  C   UNL     1      -2.776  -0.835  24.924  0.00  0.00    +0.171 C 
ATOM     12  C   UNL     1      -0.723   0.340  24.600  0.00  0.00    +0.131 C 
ATOM     13  C   UNL     1      -3.931  -1.042  23.972  0.00  0.00    +0.130 C 
ATOM     14  C   UNL     1      -0.561  -1.121  24.222  0.00  0.00    +0.185 C 
ATOM     15  C   UNL     1      -3.492  -0.266  22.743  0.00  0.00    +0.185 C 
ENDROOT
BRANCH  13   6
ATOM      6  N   UNL     1      -5.137  -0.465  24.524  0.00  0.00    -0.306 N 
ATOM      8  N   UNL     1      -4.153   1.653  24.747  0.00  0.00    -0.214 NA
ATOM      9  N   UNL     1      -6.440   1.274  25.407  0.00  0.00    -0.223 NA
ATOM     23  C   UNL     1      -5.246   0.861  24.904  0.00  0.00    +0.216 A 
ATOM     24  C   UNL     1      -4.296   2.940  25.127  0.00  0.00    +0.083 A 
ATOM     25  C   UNL     1      -6.512   2.573  25.767  0.00  0.00    +0.116 A 
ATOM     26  C   UNL     1      -5.462   3.461  25.648  0.00  0.00    +0.049 A 
ATOM     32  H   UNL     1      -5.973  -1.034  24.597  0.00  0.00    +0.149 HD
BRANCH  24  27
ATOM      1  S   UNL     1      -2.229   3.621  23.491  0.00  0.00    -0.095 S 
ATOM     27  C   UNL     1      -3.123   3.754  24.949  0.00  0.00    +0.038 A 
ATOM     28  C   UNL     1      -2.563   4.679  25.809  0.00  0.00    +0.017 A 
ATOM     29  C   UNL     1      -1.393   5.281  25.264  0.00  0.00    +0.008 A 
ATOM     30  C   UNL     1      -1.098   4.798  24.009  0.00  0.00    +0.046 A 
ENDBRANCH  24  27
ENDBRANCH  13   6
BRANCH  12   5
ATOM      4  O   UNL     1       0.244   2.850  25.617  0.00  0.00    -0.253 OA
ATOM      5  N   UNL     1      -0.214   0.597  25.926  0.00  0.00    -0.292 N 
ATOM      7  N   UNL     1       0.672   1.826  27.656  0.00  0.00    -0.297 N 
ATOM     19  C   UNL     1       0.235   1.851  26.334  0.00  0.00    +0.300 C 
ATOM     31  H   UNL     1      -0.119  -0.182  26.571  0.00  0.00    +0.151 HD
ATOM     33  H   UNL     1       0.690   0.931  28.134  0.00  0.00    +0.151 HD
BRANCH   7  16
ATOM     16  C   UNL     1       1.193   2.990  28.339  0.00  0.00    +0.074 C 
ATOM     17  C   UNL     1       0.472   3.213  29.673  0.00  0.00    +0.022 C 
ATOM     18  C   UNL     1       2.707   2.881  28.538  0.00  0.00    +0.022 C 
ATOM     20  C   UNL     1       0.853   2.172  30.726  0.00  0.00    +0.002 C 
ATOM     21  C   UNL     1       3.086   1.841  29.592  0.00  0.00    +0.002 C 
ATOM     22  C   UNL     1       2.366   2.090  30.913  0.00  0.00    +0.000 C 
ENDBRANCH   7  16
ENDBRANCH  12   5
TORSDOF 4
ENDMDL
