MODEL 1
REMARK VINA RESULT:      -1.6      0.000      0.000
REMARK  Name = 40778240
REMARK  8 active torsions:
REMARK  status: ('A' for Active; 'I' for Inactive)
REMARK    1  A    between atoms: O_3  and  C_13
REMARK    2  A    between atoms: O_4  and  C_14
REMARK    3  A    between atoms: N_7  and  C_17
REMARK    4  A    between atoms: N_9  and  C_25
REMARK    5  A    between atoms: C_10  and  C_19
REMARK    6  A    between atoms: C_11  and  C_17
REMARK    7  A    between atoms: C_12  and  C_18
REMARK    8  A    between atoms: C_18  and  C_20
REMARK                            x       y       z     vdW  Elec       q    Type
REMARK                         _______ _______ _______ _____ _____    ______ ____
ROOT
ATOM      2  O   UNL     1      -4.526   3.478  24.427  0.00  0.00    -0.366 OA
ATOM     11  C   UNL     1      -5.116   3.433  25.746  0.00  0.00    +0.167 C 
ATOM     12  C   UNL     1      -4.567   2.160  23.853  0.00  0.00    +0.159 C 
ATOM     13  C   UNL     1      -5.693   2.031  25.912  0.00  0.00    +0.176 C 
ATOM     14  C   UNL     1      -4.786   1.210  25.018  0.00  0.00    +0.175 C 
ENDROOT
BRANCH  13   3
ATOM      3  O   UNL     1      -7.024   2.036  25.397  0.00  0.00    -0.387 OA
ATOM     32  H   UNL     1      -7.124   2.839  24.858  0.00  0.00    +0.210 HD
ENDBRANCH  13   3
BRANCH  14   4
ATOM      4  O   UNL     1      -5.364  -0.011  24.605  0.00  0.00    -0.387 OA
ATOM     33  H   UNL     1      -5.689  -0.463  25.403  0.00  0.00    +0.210 HD
ENDBRANCH  14   4
BRANCH  11  17
ATOM     17  C   UNL     1      -4.023   3.751  26.757  0.00  0.00    +0.138 C 
BRANCH  17   7
ATOM      5  O   UNL     1      -1.444   2.515  26.233  0.00  0.00    -0.276 OA
ATOM      7  N   UNL     1      -2.868   4.352  26.106  0.00  0.00    -0.313 N 
ATOM     19  C   UNL     1      -1.688   3.671  25.908  0.00  0.00    +0.216 C 
ATOM     31  H   UNL     1      -2.950   5.315  25.792  0.00  0.00    +0.149 HD
BRANCH  19  10
ATOM     10  C   UNL     1      -0.638   4.480  25.220  0.00  0.00    +0.075 C 
ATOM     15  C   UNL     1      -0.762   4.734  23.746  0.00  0.00    +0.013 C 
ATOM     16  C   UNL     1      -0.984   5.852  24.723  0.00  0.00    +0.013 C 
ENDBRANCH  19  10
ENDBRANCH  17   7
ENDBRANCH  11  17
BRANCH  12  18
ATOM     18  C   UNL     1      -3.281   1.893  23.092  0.00  0.00    +0.130 C 
BRANCH  18  20
ATOM      6  O   UNL     1      -3.444  -0.364  23.812  0.00  0.00    -0.276 OA
ATOM      8  N   UNL     1      -1.301   0.499  23.563  0.00  0.00    -0.298 N 
ATOM      9  N   UNL     1       1.574   0.170  23.478  0.00  0.00    -0.327 N 
ATOM     20  C   UNL     1      -2.694   0.571  23.521  0.00  0.00    +0.218 C 
ATOM     21  C   UNL     1      -0.657  -0.747  23.973  0.00  0.00    +0.126 C 
ATOM     22  C   UNL     1      -0.411   1.606  23.207  0.00  0.00    +0.126 C 
ATOM     23  C   UNL     1       0.674  -0.965  23.256  0.00  0.00    +0.124 C 
ATOM     24  C   UNL     1       0.983   1.467  23.822  0.00  0.00    +0.124 C 
BRANCH   9  25
ATOM      1  F   UNL     1       7.050  -0.471  23.174  0.00  0.00    -0.205 F 
ATOM     25  C   UNL     1       2.955   0.008  23.401  0.00  0.00    +0.030 A 
ATOM     26  C   UNL     1       3.750   1.037  22.896  0.00  0.00    +0.026 A 
ATOM     27  C   UNL     1       3.544  -1.181  23.832  0.00  0.00    +0.026 A 
ATOM     28  C   UNL     1       5.134   0.875  22.818  0.00  0.00    +0.040 A 
ATOM     29  C   UNL     1       4.927  -1.343  23.754  0.00  0.00    +0.040 A 
ATOM     30  C   UNL     1       5.722  -0.315  23.248  0.00  0.00    +0.124 A 
ENDBRANCH   9  25
ENDBRANCH  18  20
ENDBRANCH  12  18
TORSDOF 8
ENDMDL
MODEL 2
REMARK VINA RESULT:      -1.3      1.215      1.535
REMARK  Name = 40778240
REMARK  8 active torsions:
REMARK  status: ('A' for Active; 'I' for Inactive)
REMARK    1  A    between atoms: O_3  and  C_13
REMARK    2  A    between atoms: O_4  and  C_14
REMARK    3  A    between atoms: N_7  and  C_17
REMARK    4  A    between atoms: N_9  and  C_25
REMARK    5  A    between atoms: C_10  and  C_19
REMARK    6  A    between atoms: C_11  and  C_17
REMARK    7  A    between atoms: C_12  and  C_18
REMARK    8  A    between atoms: C_18  and  C_20
REMARK                            x       y       z     vdW  Elec       q    Type
REMARK                         _______ _______ _______ _____ _____    ______ ____
ROOT
ATOM      2  O   UNL     1      -4.656   3.097  23.743  0.00  0.00    -0.366 OA
ATOM     11  C   UNL     1      -4.639   3.853  24.975  0.00  0.00    +0.167 C 
ATOM     12  C   UNL     1      -4.687   1.694  24.057  0.00  0.00    +0.159 C 
ATOM     13  C   UNL     1      -4.831   2.844  26.101  0.00  0.00    +0.176 C 
ATOM     14  C   UNL     1      -4.235   1.586  25.503  0.00  0.00    +0.175 C 
ENDROOT
BRANCH  13   3
ATOM      3  O   UNL     1      -6.233   2.676  26.311  0.00  0.00    -0.387 OA
ATOM     32  H   UNL     1      -6.554   3.467  26.777  0.00  0.00    +0.210 HD
ENDBRANCH  13   3
BRANCH  14   4
ATOM      4  O   UNL     1      -4.697   0.402  26.116  0.00  0.00    -0.387 OA
ATOM     33  H   UNL     1      -5.652   0.506  26.267  0.00  0.00    +0.210 HD
ENDBRANCH  14   4
BRANCH  11  17
ATOM     17  C   UNL     1      -3.307   4.587  25.052  0.00  0.00    +0.138 C 
BRANCH  17   7
ATOM      5  O   UNL     1      -0.444   5.045  24.836  0.00  0.00    -0.276 OA
ATOM      7  N   UNL     1      -2.232   3.680  25.430  0.00  0.00    -0.313 N 
ATOM     19  C   UNL     1      -0.902   4.001  25.283  0.00  0.00    +0.216 C 
ATOM     31  H   UNL     1      -2.490   2.775  25.814  0.00  0.00    +0.149 HD
BRANCH  19  10
ATOM     10  C   UNL     1       0.027   2.923  25.736  0.00  0.00    +0.075 C 
ATOM     15  C   UNL     1       0.416   2.855  27.183  0.00  0.00    +0.013 C 
ATOM     16  C   UNL     1      -0.502   1.820  26.602  0.00  0.00    +0.013 C 
ENDBRANCH  19  10
ENDBRANCH  17   7
ENDBRANCH  11  17
BRANCH  12  18
ATOM     18  C   UNL     1      -3.798   0.934  23.090  0.00  0.00    +0.130 C 
BRANCH  18  20
ATOM      6  O   UNL     1      -3.646  -1.018  24.433  0.00  0.00    -0.276 OA
ATOM      8  N   UNL     1      -1.641  -0.049  23.773  0.00  0.00    -0.298 N 
ATOM      9  N   UNL     1       1.245  -0.089  23.547  0.00  0.00    -0.327 N 
ATOM     20  C   UNL     1      -3.032  -0.137  23.827  0.00  0.00    +0.218 C 
ATOM     21  C   UNL     1      -0.828  -1.047  24.466  0.00  0.00    +0.126 C 
ATOM     22  C   UNL     1      -0.912   0.991  23.043  0.00  0.00    +0.126 C 
ATOM     23  C   UNL     1       0.482  -1.326  23.733  0.00  0.00    +0.124 C 
ATOM     24  C   UNL     1       0.517   1.182  23.555  0.00  0.00    +0.124 C 
BRANCH   9  25
ATOM      1  F   UNL     1       6.737  -0.222  22.986  0.00  0.00    -0.205 F 
ATOM     25  C   UNL     1       2.631  -0.123  23.405  0.00  0.00    +0.030 A 
ATOM     26  C   UNL     1       3.301   0.968  22.853  0.00  0.00    +0.026 A 
ATOM     27  C   UNL     1       3.347  -1.246  23.818  0.00  0.00    +0.026 A 
ATOM     28  C   UNL     1       4.689   0.935  22.710  0.00  0.00    +0.040 A 
ATOM     29  C   UNL     1       4.734  -1.280  23.676  0.00  0.00    +0.040 A 
ATOM     30  C   UNL     1       5.405  -0.190  23.122  0.00  0.00    +0.124 A 
ENDBRANCH   9  25
ENDBRANCH  18  20
ENDBRANCH  12  18
TORSDOF 8
ENDMDL
MODEL 3
REMARK VINA RESULT:      -0.9      1.743      3.699
REMARK  Name = 40778240
REMARK  8 active torsions:
REMARK  status: ('A' for Active; 'I' for Inactive)
REMARK    1  A    between atoms: O_3  and  C_13
REMARK    2  A    between atoms: O_4  and  C_14
REMARK    3  A    between atoms: N_7  and  C_17
REMARK    4  A    between atoms: N_9  and  C_25
REMARK    5  A    between atoms: C_10  and  C_19
REMARK    6  A    between atoms: C_11  and  C_17
REMARK    7  A    between atoms: C_12  and  C_18
REMARK    8  A    between atoms: C_18  and  C_20
REMARK                            x       y       z     vdW  Elec       q    Type
REMARK                         _______ _______ _______ _____ _____    ______ ____
ROOT
ATOM      2  O   UNL     1      -3.860   1.790  26.009  0.00  0.00    -0.366 OA
ATOM     11  C   UNL     1      -5.029   0.941  26.047  0.00  0.00    +0.167 C 
ATOM     12  C   UNL     1      -4.277   3.149  25.793  0.00  0.00    +0.159 C 
ATOM     13  C   UNL     1      -6.237   1.871  26.009  0.00  0.00    +0.176 C 
ATOM     14  C   UNL     1      -5.693   3.064  25.250  0.00  0.00    +0.175 C 
ENDROOT
BRANCH  13   3
ATOM      3  O   UNL     1      -6.553   2.240  27.351  0.00  0.00    -0.387 OA
ATOM     32  H   UNL     1      -6.892   3.151  27.330  0.00  0.00    +0.210 HD
ENDBRANCH  13   3
BRANCH  14   4
ATOM      4  O   UNL     1      -6.421   4.251  25.478  0.00  0.00    -0.387 OA
ATOM     33  H   UNL     1      -5.899   4.801  26.087  0.00  0.00    +0.210 HD
ENDBRANCH  14   4
BRANCH  11  17
ATOM     17  C   UNL     1      -4.962   0.002  24.850  0.00  0.00    +0.138 C 
BRANCH  17   7
ATOM      5  O   UNL     1      -4.508  -2.623  23.685  0.00  0.00    -0.276 OA
ATOM      7  N   UNL     1      -3.729  -0.771  24.860  0.00  0.00    -0.313 N 
ATOM     19  C   UNL     1      -3.624  -2.012  24.275  0.00  0.00    +0.216 C 
ATOM     31  H   UNL     1      -2.921  -0.366  25.324  0.00  0.00    +0.149 HD
BRANCH  19  10
ATOM     10  C   UNL     1      -2.267  -2.622  24.404  0.00  0.00    +0.075 C 
ATOM     15  C   UNL     1      -1.084  -1.897  23.834  0.00  0.00    +0.013 C 
ATOM     16  C   UNL     1      -1.265  -1.986  25.321  0.00  0.00    +0.013 C 
ENDBRANCH  19  10
ENDBRANCH  17   7
ENDBRANCH  11  17
BRANCH  12  18
ATOM     18  C   UNL     1      -3.310   3.837  24.846  0.00  0.00    +0.130 C 
BRANCH  18  20
ATOM      6  O   UNL     1      -3.834   2.766  22.792  0.00  0.00    -0.276 OA
ATOM      8  N   UNL     1      -1.743   2.316  23.698  0.00  0.00    -0.298 N 
ATOM      9  N   UNL     1       0.907   1.165  23.519  0.00  0.00    -0.327 N 
ATOM     20  C   UNL     1      -2.996   2.929  23.682  0.00  0.00    +0.218 C 
ATOM     21  C   UNL     1      -1.366   1.419  22.608  0.00  0.00    +0.126 C 
ATOM     22  C   UNL     1      -0.743   2.519  24.750  0.00  0.00    +0.126 C 
ATOM     23  C   UNL     1       0.132   1.474  22.315  0.00  0.00    +0.124 C 
ATOM     24  C   UNL     1       0.277   1.382  24.824  0.00  0.00    +0.124 C 
BRANCH   9  25
ATOM      1  F   UNL     1       6.011  -0.905  23.128  0.00  0.00    -0.205 F 
ATOM     25  C   UNL     1       2.195   0.643  23.421  0.00  0.00    +0.030 A 
ATOM     26  C   UNL     1       2.423  -0.706  23.692  0.00  0.00    +0.026 A 
ATOM     27  C   UNL     1       3.256   1.468  23.048  0.00  0.00    +0.026 A 
ATOM     28  C   UNL     1       3.712  -1.229  23.594  0.00  0.00    +0.040 A 
ATOM     29  C   UNL     1       4.545   0.945  22.950  0.00  0.00    +0.040 A 
ATOM     30  C   UNL     1       4.774  -0.403  23.222  0.00  0.00    +0.124 A 
ENDBRANCH   9  25
ENDBRANCH  18  20
ENDBRANCH  12  18
TORSDOF 8
ENDMDL
MODEL 4
REMARK VINA RESULT:       0.6      1.687      3.153
REMARK  Name = 40778240
REMARK  8 active torsions:
REMARK  status: ('A' for Active; 'I' for Inactive)
REMARK    1  A    between atoms: O_3  and  C_13
REMARK    2  A    between atoms: O_4  and  C_14
REMARK    3  A    between atoms: N_7  and  C_17
REMARK    4  A    between atoms: N_9  and  C_25
REMARK    5  A    between atoms: C_10  and  C_19
REMARK    6  A    between atoms: C_11  and  C_17
REMARK    7  A    between atoms: C_12  and  C_18
REMARK    8  A    between atoms: C_18  and  C_20
REMARK                            x       y       z     vdW  Elec       q    Type
REMARK                         _______ _______ _______ _____ _____    ______ ____
ROOT
ATOM      2  O   UNL     1      -1.732   3.514  24.698  0.00  0.00    -0.366 OA
ATOM     11  C   UNL     1      -1.861   3.165  26.095  0.00  0.00    +0.167 C 
ATOM     12  C   UNL     1      -3.046   3.635  24.126  0.00  0.00    +0.159 C 
ATOM     13  C   UNL     1      -3.348   3.235  26.421  0.00  0.00    +0.176 C 
ATOM     14  C   UNL     1      -3.980   2.914  25.083  0.00  0.00    +0.175 C 
ENDROOT
BRANCH  13   3
ATOM      3  O   UNL     1      -3.655   4.575  26.805  0.00  0.00    -0.387 OA
ATOM     32  H   UNL     1      -4.222   4.530  27.594  0.00  0.00    +0.210 HD
ENDBRANCH  13   3
BRANCH  14   4
ATOM      4  O   UNL     1      -5.311   3.370  24.968  0.00  0.00    -0.387 OA
ATOM     33  H   UNL     1      -5.509   3.892  25.764  0.00  0.00    +0.210 HD
ENDBRANCH  14   4
BRANCH  11  17
ATOM     17  C   UNL     1      -1.274   1.773  26.283  0.00  0.00    +0.138 C 
BRANCH  17   7
ATOM      5  O   UNL     1      -0.883  -1.102  26.092  0.00  0.00    -0.276 OA
ATOM      7  N   UNL     1      -2.294   0.748  26.109  0.00  0.00    -0.313 N 
ATOM     19  C   UNL     1      -1.995  -0.593  26.030  0.00  0.00    +0.216 C 
ATOM     31  H   UNL     1      -3.261   1.051  26.042  0.00  0.00    +0.149 HD
BRANCH  19  10
ATOM     10  C   UNL     1      -3.195  -1.464  25.854  0.00  0.00    +0.075 C 
ATOM     15  C   UNL     1      -4.030  -1.315  24.616  0.00  0.00    +0.013 C 
ATOM     16  C   UNL     1      -3.172  -2.532  24.801  0.00  0.00    +0.013 C 
ENDBRANCH  19  10
ENDBRANCH  17   7
ENDBRANCH  11  17
BRANCH  12  18
ATOM     18  C   UNL     1      -3.049   3.048  22.725  0.00  0.00    +0.130 C 
BRANCH  18  20
ATOM      6  O   UNL     1      -3.546   0.727  22.647  0.00  0.00    -0.276 OA
ATOM      8  N   UNL     1      -1.321   1.306  22.983  0.00  0.00    -0.298 N 
ATOM      9  N   UNL     1       1.481   0.607  23.186  0.00  0.00    -0.327 N 
ATOM     20  C   UNL     1      -2.672   1.587  22.778  0.00  0.00    +0.218 C 
ATOM     21  C   UNL     1      -0.878  -0.085  23.051  0.00  0.00    +0.126 C 
ATOM     22  C   UNL     1      -0.282   2.328  23.128  0.00  0.00    +0.126 C 
ATOM     23  C   UNL     1       0.531  -0.264  22.489  0.00  0.00    +0.124 C 
ATOM     24  C   UNL     1       0.964   1.809  23.847  0.00  0.00    +0.124 C 
BRANCH   9  25
ATOM      1  F   UNL     1       6.842  -0.693  23.433  0.00  0.00    -0.205 F 
ATOM     25  C   UNL     1       2.833   0.279  23.248  0.00  0.00    +0.030 A 
ATOM     26  C   UNL     1       3.797   1.228  22.907  0.00  0.00    +0.026 A 
ATOM     27  C   UNL     1       3.224  -0.997  23.654  0.00  0.00    +0.026 A 
ATOM     28  C   UNL     1       5.152   0.899  22.968  0.00  0.00    +0.040 A 
ATOM     29  C   UNL     1       4.578  -1.325  23.715  0.00  0.00    +0.040 A 
ATOM     30  C   UNL     1       5.542  -0.378  23.373  0.00  0.00    +0.124 A 
ENDBRANCH   9  25
ENDBRANCH  18  20
ENDBRANCH  12  18
TORSDOF 8
ENDMDL
MODEL 5
REMARK VINA RESULT:       0.8      1.697      3.965
REMARK  Name = 40778240
REMARK  8 active torsions:
REMARK  status: ('A' for Active; 'I' for Inactive)
REMARK    1  A    between atoms: O_3  and  C_13
REMARK    2  A    between atoms: O_4  and  C_14
REMARK    3  A    between atoms: N_7  and  C_17
REMARK    4  A    between atoms: N_9  and  C_25
REMARK    5  A    between atoms: C_10  and  C_19
REMARK    6  A    between atoms: C_11  and  C_17
REMARK    7  A    between atoms: C_12  and  C_18
REMARK    8  A    between atoms: C_18  and  C_20
REMARK                            x       y       z     vdW  Elec       q    Type
REMARK                         _______ _______ _______ _____ _____    ______ ____
ROOT
ATOM      2  O   UNL     1      -3.957   1.668  25.538  0.00  0.00    -0.366 OA
ATOM     11  C   UNL     1      -4.946   0.616  25.604  0.00  0.00    +0.167 C 
ATOM     12  C   UNL     1      -4.628   2.930  25.378  0.00  0.00    +0.159 C 
ATOM     13  C   UNL     1      -6.305   1.305  25.644  0.00  0.00    +0.176 C 
ATOM     14  C   UNL     1      -6.029   2.593  24.895  0.00  0.00    +0.175 C 
ENDROOT
BRANCH  13   3
ATOM      3  O   UNL     1      -6.620   1.584  27.009  0.00  0.00    -0.387 OA
ATOM     32  H   UNL     1      -7.231   2.340  27.018  0.00  0.00    +0.210 HD
ENDBRANCH  13   3
BRANCH  14   4
ATOM      4  O   UNL     1      -6.952   3.620  25.187  0.00  0.00    -0.387 OA
ATOM     33  H   UNL     1      -6.927   3.769  26.148  0.00  0.00    +0.210 HD
ENDBRANCH  14   4
BRANCH  11  17
ATOM     17  C   UNL     1      -4.764  -0.271  24.380  0.00  0.00    +0.138 C 
BRANCH  17   7
ATOM      5  O   UNL     1      -4.003  -3.075  24.505  0.00  0.00    -0.276 OA
ATOM      7  N   UNL     1      -3.420  -0.828  24.333  0.00  0.00    -0.313 N 
ATOM     19  C   UNL     1      -3.172  -2.180  24.401  0.00  0.00    +0.216 C 
ATOM     31  H   UNL     1      -2.642  -0.180  24.249  0.00  0.00    +0.149 HD
BRANCH  19  10
ATOM     10  C   UNL     1      -1.721  -2.527  24.333  0.00  0.00    +0.075 C 
ATOM     15  C   UNL     1      -0.729  -1.454  23.991  0.00  0.00    +0.013 C 
ATOM     16  C   UNL     1      -0.794  -1.999  25.388  0.00  0.00    +0.013 C 
ENDBRANCH  19  10
ENDBRANCH  17   7
ENDBRANCH  11  17
BRANCH  12  18
ATOM     18  C   UNL     1      -3.851   3.803  24.409  0.00  0.00    +0.130 C 
BRANCH  18  20
ATOM      6  O   UNL     1      -2.456   5.096  25.830  0.00  0.00    -0.276 OA
ATOM      8  N   UNL     1      -1.417   3.440  24.575  0.00  0.00    -0.298 N 
ATOM      9  N   UNL     1       0.899   1.836  23.911  0.00  0.00    -0.327 N 
ATOM     20  C   UNL     1      -2.518   4.178  25.009  0.00  0.00    +0.218 C 
ATOM     21  C   UNL     1      -0.091   3.747  25.106  0.00  0.00    +0.126 C 
ATOM     22  C   UNL     1      -1.494   2.343  23.608  0.00  0.00    +0.126 C 
ATOM     23  C   UNL     1       0.785   2.500  25.212  0.00  0.00    +0.124 C 
ATOM     24  C   UNL     1      -0.156   2.066  22.920  0.00  0.00    +0.124 C 
BRANCH   9  25
ATOM      1  F   UNL     1       5.268  -1.329  22.734  0.00  0.00    -0.205 F 
ATOM     25  C   UNL     1       2.001   1.037  23.614  0.00  0.00    +0.030 A 
ATOM     26  C   UNL     1       1.916  -0.348  23.752  0.00  0.00    +0.026 A 
ATOM     27  C   UNL     1       3.190   1.623  23.176  0.00  0.00    +0.026 A 
ATOM     28  C   UNL     1       3.020  -1.148  23.455  0.00  0.00    +0.040 A 
ATOM     29  C   UNL     1       4.293   0.823  22.880  0.00  0.00    +0.040 A 
ATOM     30  C   UNL     1       4.209  -0.562  23.019  0.00  0.00    +0.124 A 
ENDBRANCH   9  25
ENDBRANCH  18  20
ENDBRANCH  12  18
TORSDOF 8
ENDMDL
MODEL 6
REMARK VINA RESULT:       1.0      2.144      2.704
REMARK  Name = 40778240
REMARK  8 active torsions:
REMARK  status: ('A' for Active; 'I' for Inactive)
REMARK    1  A    between atoms: O_3  and  C_13
REMARK    2  A    between atoms: O_4  and  C_14
REMARK    3  A    between atoms: N_7  and  C_17
REMARK    4  A    between atoms: N_9  and  C_25
REMARK    5  A    between atoms: C_10  and  C_19
REMARK    6  A    between atoms: C_11  and  C_17
REMARK    7  A    between atoms: C_12  and  C_18
REMARK    8  A    between atoms: C_18  and  C_20
REMARK                            x       y       z     vdW  Elec       q    Type
REMARK                         _______ _______ _______ _____ _____    ______ ____
ROOT
ATOM      2  O   UNL     1      -2.218   3.520  24.472  0.00  0.00    -0.366 OA
ATOM     11  C   UNL     1      -2.094   3.609  25.909  0.00  0.00    +0.167 C 
ATOM     12  C   UNL     1      -3.599   3.298  24.136  0.00  0.00    +0.159 C 
ATOM     13  C   UNL     1      -3.514   3.598  26.465  0.00  0.00    +0.176 C 
ATOM     14  C   UNL     1      -4.259   2.804  25.412  0.00  0.00    +0.175 C 
ENDROOT
BRANCH  13   3
ATOM      3  O   UNL     1      -3.987   4.945  26.497  0.00  0.00    -0.387 OA
ATOM     32  H   UNL     1      -3.317   5.499  26.061  0.00  0.00    +0.210 HD
ENDBRANCH  13   3
BRANCH  14   4
ATOM      4  O   UNL     1      -5.651   3.039  25.414  0.00  0.00    -0.387 OA
ATOM     33  H   UNL     1      -5.784   3.998  25.508  0.00  0.00    +0.210 HD
ENDBRANCH  14   4
BRANCH  11  17
ATOM     17  C   UNL     1      -1.261   2.424  26.380  0.00  0.00    +0.138 C 
BRANCH  17   7
ATOM      5  O   UNL     1       1.605   2.444  26.870  0.00  0.00    -0.276 OA
ATOM      7  N   UNL     1      -0.577   2.729  27.628  0.00  0.00    -0.313 N 
ATOM     19  C   UNL     1       0.793   2.708  27.750  0.00  0.00    +0.216 C 
ATOM     31  H   UNL     1      -1.149   2.963  28.435  0.00  0.00    +0.149 HD
BRANCH  19  10
ATOM     10  C   UNL     1       1.278   3.054  29.119  0.00  0.00    +0.075 C 
ATOM     15  C   UNL     1       1.854   1.973  29.985  0.00  0.00    +0.013 C 
ATOM     16  C   UNL     1       2.751   3.024  29.401  0.00  0.00    +0.013 C 
ENDBRANCH  19  10
ENDBRANCH  17   7
ENDBRANCH  11  17
BRANCH  12  18
ATOM     18  C   UNL     1      -3.694   2.310  22.988  0.00  0.00    +0.130 C 
BRANCH  18  20
ATOM      6  O   UNL     1      -3.943   0.062  23.711  0.00  0.00    -0.276 OA
ATOM      8  N   UNL     1      -1.769   0.842  23.462  0.00  0.00    -0.298 N 
ATOM      9  N   UNL     1       1.092   0.404  23.379  0.00  0.00    -0.327 N 
ATOM     20  C   UNL     1      -3.157   0.967  23.419  0.00  0.00    +0.218 C 
ATOM     21  C   UNL     1      -1.172  -0.427  23.874  0.00  0.00    +0.126 C 
ATOM     22  C   UNL     1      -0.837   1.914  23.104  0.00  0.00    +0.126 C 
ATOM     23  C   UNL     1       0.149  -0.696  23.158  0.00  0.00    +0.124 C 
ATOM     24  C   UNL     1       0.550   1.722  23.719  0.00  0.00    +0.124 C 
BRANCH   9  25
ATOM      1  F   UNL     1       6.539  -0.446  23.078  0.00  0.00    -0.205 F 
ATOM     25  C   UNL     1       2.466   0.189  23.302  0.00  0.00    +0.030 A 
ATOM     26  C   UNL     1       3.306   1.207  22.851  0.00  0.00    +0.026 A 
ATOM     27  C   UNL     1       3.002  -1.042  23.680  0.00  0.00    +0.026 A 
ATOM     28  C   UNL     1       4.682   0.992  22.774  0.00  0.00    +0.040 A 
ATOM     29  C   UNL     1       4.378  -1.256  23.604  0.00  0.00    +0.040 A 
ATOM     30  C   UNL     1       5.218  -0.240  23.151  0.00  0.00    +0.124 A 
ENDBRANCH   9  25
ENDBRANCH  18  20
ENDBRANCH  12  18
TORSDOF 8
ENDMDL
MODEL 7
REMARK VINA RESULT:       2.1      1.310      3.199
REMARK  Name = 40778240
REMARK  8 active torsions:
REMARK  status: ('A' for Active; 'I' for Inactive)
REMARK    1  A    between atoms: O_3  and  C_13
REMARK    2  A    between atoms: O_4  and  C_14
REMARK    3  A    between atoms: N_7  and  C_17
REMARK    4  A    between atoms: N_9  and  C_25
REMARK    5  A    between atoms: C_10  and  C_19
REMARK    6  A    between atoms: C_11  and  C_17
REMARK    7  A    between atoms: C_12  and  C_18
REMARK    8  A    between atoms: C_18  and  C_20
REMARK                            x       y       z     vdW  Elec       q    Type
REMARK                         _______ _______ _______ _____ _____    ______ ____
ROOT
ATOM      2  O   UNL     1      -2.331   2.644  25.347  0.00  0.00    -0.366 OA
ATOM     11  C   UNL     1      -2.414   4.030  25.751  0.00  0.00    +0.167 C 
ATOM     12  C   UNL     1      -2.771   2.528  23.983  0.00  0.00    +0.159 C 
ATOM     13  C   UNL     1      -2.778   4.821  24.499  0.00  0.00    +0.176 C 
ATOM     14  C   UNL     1      -3.552   3.799  23.693  0.00  0.00    +0.175 C 
ENDROOT
BRANCH  13   3
ATOM      3  O   UNL     1      -1.566   5.167  23.827  0.00  0.00    -0.387 OA
ATOM     32  H   UNL     1      -1.758   5.185  22.874  0.00  0.00    +0.210 HD
ENDBRANCH  13   3
BRANCH  14   4
ATOM      4  O   UNL     1      -3.597   4.091  22.313  0.00  0.00    -0.387 OA
ATOM     33  H   UNL     1      -3.519   5.055  22.217  0.00  0.00    +0.210 HD
ENDBRANCH  14   4
BRANCH  11  17
ATOM     17  C   UNL     1      -3.466   4.133  26.847  0.00  0.00    +0.138 C 
BRANCH  17   7
ATOM      5  O   UNL     1      -6.070   4.628  25.652  0.00  0.00    -0.276 OA
ATOM      7  N   UNL     1      -4.540   3.175  26.634  0.00  0.00    -0.313 N 
ATOM     19  C   UNL     1      -5.741   3.519  26.056  0.00  0.00    +0.216 C 
ATOM     31  H   UNL     1      -4.384   2.216  26.931  0.00  0.00    +0.149 HD
BRANCH  19  10
ATOM     10  C   UNL     1      -6.696   2.378  25.933  0.00  0.00    +0.075 C 
ATOM     15  C   UNL     1      -6.580   1.452  24.758  0.00  0.00    +0.013 C 
ATOM     16  C   UNL     1      -6.190   0.979  26.128  0.00  0.00    +0.013 C 
ENDBRANCH  19  10
ENDBRANCH  17   7
ENDBRANCH  11  17
BRANCH  12  18
ATOM     18  C   UNL     1      -3.594   1.264  23.817  0.00  0.00    +0.130 C 
BRANCH  18  20
ATOM      6  O   UNL     1      -3.450  -0.838  24.911  0.00  0.00    -0.276 OA
ATOM      8  N   UNL     1      -1.449   0.110  24.208  0.00  0.00    -0.298 N 
ATOM      9  N   UNL     1       1.405  -0.033  23.750  0.00  0.00    -0.327 N 
ATOM     20  C   UNL     1      -2.835   0.079  24.363  0.00  0.00    +0.218 C 
ATOM     21  C   UNL     1      -0.643  -0.998  24.715  0.00  0.00    +0.126 C 
ATOM     22  C   UNL     1      -0.721   1.196  23.547  0.00  0.00    +0.126 C 
ATOM     23  C   UNL     1       0.592  -1.247  23.852  0.00  0.00    +0.124 C 
ATOM     24  C   UNL     1       0.749   1.261  23.961  0.00  0.00    +0.124 C 
BRANCH   9  25
ATOM      1  F   UNL     1       6.825  -0.345  22.740  0.00  0.00    -0.205 F 
ATOM     25  C   UNL     1       2.773  -0.112  23.495  0.00  0.00    +0.030 A 
ATOM     26  C   UNL     1       3.428   0.951  22.874  0.00  0.00    +0.026 A 
ATOM     27  C   UNL     1       3.487  -1.253  23.863  0.00  0.00    +0.026 A 
ATOM     28  C   UNL     1       4.798   0.873  22.619  0.00  0.00    +0.040 A 
ATOM     29  C   UNL     1       4.855  -1.331  23.607  0.00  0.00    +0.040 A 
ATOM     30  C   UNL     1       5.511  -0.269  22.985  0.00  0.00    +0.124 A 
ENDBRANCH   9  25
ENDBRANCH  18  20
ENDBRANCH  12  18
TORSDOF 8
ENDMDL
