MODEL 1
REMARK VINA RESULT:      -1.0      0.000      0.000
REMARK  Name = 38027809
REMARK  14 active torsions:
REMARK  status: ('A' for Active; 'I' for Inactive)
REMARK    1  A    between atoms: O_4  and  C_35
REMARK    2  A    between atoms: O_4  and  C_36
REMARK    3  A    between atoms: N_5  and  C_15
REMARK    4  A    between atoms: N_7  and  C_28
REMARK    5  A    between atoms: C_8  and  C_12
REMARK    6  A    between atoms: C_9  and  C_15
REMARK    7  A    between atoms: C_11  and  C_16
REMARK    8  A    between atoms: C_12  and  C_17
REMARK    9  A    between atoms: C_12  and  C_18
REMARK   10  A    between atoms: C_13  and  C_19
REMARK   11  A    between atoms: C_16  and  C_24
REMARK   12  A    between atoms: C_20  and  C_21
REMARK   13  A    between atoms: C_27  and  C_29
REMARK   14  A    between atoms: C_28  and  C_30
REMARK                            x       y       z     vdW  Elec       q    Type
REMARK                         _______ _______ _______ _____ _____    ______ ____
ROOT
ATOM      8  C   UNL     1      15.444  -9.162  30.615  0.00  0.00    +0.000 C 
ATOM      9  C   UNL     1      14.005  -9.086  31.184  0.00  0.00    +0.032 C 
ATOM     10  C   UNL     1      16.329  -8.077  31.248  0.00  0.00    +0.012 C 
ATOM     11  C   UNL     1      15.780  -6.660  31.000  0.00  0.00    +0.023 C 
ATOM     13  C   UNL     1      14.295  -6.573  31.286  0.00  0.00    -0.073 C 
ATOM     14  C   UNL     1      13.519  -7.668  31.378  0.00  0.00    -0.022 C 
ATOM     19  C   UNL     1      13.727  -5.198  31.509  0.00  0.00    +0.039 C 
ENDROOT
BRANCH   8  12
ATOM     12  C   UNL     1      16.072 -10.541  30.840  0.00  0.00    -0.013 C 
ATOM     17  C   UNL     1      17.231 -10.761  29.873  0.00  0.00    +0.007 C 
ATOM     18  C   UNL     1      16.539 -10.683  32.285  0.00  0.00    +0.007 C 
ENDBRANCH   8  12
BRANCH   9  15
ATOM     15  C   UNL     1      13.016  -9.846  30.293  0.00  0.00    +0.112 C 
BRANCH  15   5
ATOM      1  O   UNL     1      12.230  -8.755  32.866  0.00  0.00    -0.276 OA
ATOM      5  N   UNL     1      11.729  -9.918  30.909  0.00  0.00    -0.315 N 
ATOM     21  C   UNL     1      11.435  -9.363  32.153  0.00  0.00    +0.216 C 
ATOM     37  H   UNL     1      10.970 -10.307  30.359  0.00  0.00    +0.149 HD
BRANCH  21  20
ATOM      3  O   UNL     1       5.532  -8.108  30.998  0.00  0.00    -0.276 OA
ATOM      6  N   UNL     1       7.197  -9.476  31.868  0.00  0.00    -0.302 N 
ATOM     20  C   UNL     1      10.006  -9.560  32.553  0.00  0.00    +0.078 C 
ATOM     22  C   UNL     1       9.361 -10.641  31.681  0.00  0.00    +0.032 C 
ATOM     23  C   UNL     1       9.252  -8.234  32.421  0.00  0.00    +0.032 C 
ATOM     25  C   UNL     1       7.869 -10.776  31.981  0.00  0.00    +0.108 C 
ATOM     26  C   UNL     1       7.764  -8.417  32.706  0.00  0.00    +0.108 C 
ATOM     27  C   UNL     1       6.079  -9.211  31.077  0.00  0.00    +0.212 C 
ATOM     29  C   UNL     1       5.530 -10.364  30.277  0.00  0.00    +0.109 C 
ENDBRANCH  21  20
ENDBRANCH  15   5
ENDBRANCH   9  15
BRANCH  11  16
ATOM     16  C   UNL     1      16.093  -6.187  29.575  0.00  0.00    +0.103 C 
BRANCH  16  24
ATOM      2  O   UNL     1      16.452  -3.985  30.510  0.00  0.00    -0.276 OA
ATOM      7  N   UNL     1      16.944  -4.373  28.272  0.00  0.00    -0.311 N 
ATOM     24  C   UNL     1      16.506  -4.733  29.537  0.00  0.00    +0.214 C 
ATOM     38  H   UNL     1      17.025  -5.085  27.552  0.00  0.00    +0.149 HD
BRANCH   7  28
ATOM     28  C   UNL     1      17.397  -3.041  27.944  0.00  0.00    +0.139 C 
BRANCH  28  30
ATOM     30  C   UNL     1      17.184  -2.715  26.494  0.00  0.00    -0.030 A 
ATOM     31  C   UNL     1      17.090  -1.384  26.085  0.00  0.00    +0.009 A 
ATOM     32  C   UNL     1      17.081  -3.741  25.555  0.00  0.00    +0.009 A 
ATOM     33  C   UNL     1      16.893  -1.081  24.738  0.00  0.00    +0.046 A 
ATOM     34  C   UNL     1      16.884  -3.438  24.208  0.00  0.00    +0.046 A 
ATOM     35  C   UNL     1      16.790  -2.108  23.800  0.00  0.00    +0.120 A 
BRANCH  35   4
ATOM      4  O   UNL     1      16.598  -1.812  22.484  0.00  0.00    -0.495 OA
ATOM     36  C   UNL     1      15.268  -1.926  21.981  0.00  0.00    +0.277 C 
ENDBRANCH  35   4
ENDBRANCH  28  30
ENDBRANCH   7  28
ENDBRANCH  16  24
ENDBRANCH  11  16
TORSDOF 9
ENDMDL
MODEL 2
REMARK VINA RESULT:       1.4     14.679     18.609
REMARK  Name = 38027809
REMARK  14 active torsions:
REMARK  status: ('A' for Active; 'I' for Inactive)
REMARK    1  A    between atoms: O_4  and  C_35
REMARK    2  A    between atoms: O_4  and  C_36
REMARK    3  A    between atoms: N_5  and  C_15
REMARK    4  A    between atoms: N_7  and  C_28
REMARK    5  A    between atoms: C_8  and  C_12
REMARK    6  A    between atoms: C_9  and  C_15
REMARK    7  A    between atoms: C_11  and  C_16
REMARK    8  A    between atoms: C_12  and  C_17
REMARK    9  A    between atoms: C_12  and  C_18
REMARK   10  A    between atoms: C_13  and  C_19
REMARK   11  A    between atoms: C_16  and  C_24
REMARK   12  A    between atoms: C_20  and  C_21
REMARK   13  A    between atoms: C_27  and  C_29
REMARK   14  A    between atoms: C_28  and  C_30
REMARK                            x       y       z     vdW  Elec       q    Type
REMARK                         _______ _______ _______ _____ _____    ______ ____
ROOT
ATOM      8  C   UNL     1      -3.660   3.638  25.726  0.00  0.00    +0.000 C 
ATOM      9  C   UNL     1      -3.723   4.082  24.243  0.00  0.00    +0.032 C 
ATOM     10  C   UNL     1      -2.526   4.372  26.458  0.00  0.00    +0.012 C 
ATOM     11  C   UNL     1      -1.153   4.113  25.811  0.00  0.00    +0.023 C 
ATOM     13  C   UNL     1      -1.199   4.270  24.305  0.00  0.00    -0.073 C 
ATOM     14  C   UNL     1      -2.359   4.268  23.622  0.00  0.00    -0.022 C 
ATOM     19  C   UNL     1       0.115   4.477  23.604  0.00  0.00    +0.039 C 
ENDROOT
BRANCH   8  12
ATOM     12  C   UNL     1      -4.988   3.882  26.450  0.00  0.00    -0.013 C 
ATOM     17  C   UNL     1      -5.923   4.715  25.578  0.00  0.00    +0.007 C 
ATOM     18  C   UNL     1      -5.639   2.557  26.830  0.00  0.00    +0.007 C 
ENDBRANCH   8  12
BRANCH   9  15
ATOM     15  C   UNL     1      -4.535   3.089  23.403  0.00  0.00    +0.112 C 
BRANCH  15   5
ATOM      1  O   UNL     1      -6.472   1.253  24.545  0.00  0.00    -0.276 OA
ATOM      5  N   UNL     1      -4.306   1.748  23.840  0.00  0.00    -0.315 N 
ATOM     21  C   UNL     1      -5.298   0.931  24.379  0.00  0.00    +0.216 C 
ATOM     37  H   UNL     1      -3.394   1.345  23.652  0.00  0.00    +0.149 HD
BRANCH  21  20
ATOM      3  O   UNL     1      -1.086  -3.433  23.396  0.00  0.00    -0.276 OA
ATOM      6  N   UNL     1      -2.641  -2.364  24.752  0.00  0.00    -0.302 N 
ATOM     20  C   UNL     1      -4.795  -0.434  24.733  0.00  0.00    +0.078 C 
ATOM     22  C   UNL     1      -3.632  -0.326  25.722  0.00  0.00    +0.032 C 
ATOM     23  C   UNL     1      -4.361  -1.164  23.459  0.00  0.00    +0.032 C 
ATOM     25  C   UNL     1      -3.016  -1.695  26.004  0.00  0.00    +0.108 C 
ATOM     26  C   UNL     1      -3.731  -2.515  23.787  0.00  0.00    +0.108 C 
ATOM     27  C   UNL     1      -1.377  -2.875  24.457  0.00  0.00    +0.212 C 
ATOM     29  C   UNL     1      -0.320  -2.718  25.521  0.00  0.00    +0.109 C 
ENDBRANCH  21  20
ENDBRANCH  15   5
ENDBRANCH   9  15
BRANCH  11  16
ATOM     16  C   UNL     1      -0.609   2.733  26.202  0.00  0.00    +0.103 C 
BRANCH  16  24
ATOM      2  O   UNL     1      -1.657   1.192  24.660  0.00  0.00    -0.276 OA
ATOM      7  N   UNL     1       0.622   1.608  24.489  0.00  0.00    -0.311 N 
ATOM     24  C   UNL     1      -0.639   1.762  25.044  0.00  0.00    +0.214 C 
ATOM     38  H   UNL     1       1.388   2.183  24.828  0.00  0.00    +0.149 HD
BRANCH   7  28
ATOM     28  C   UNL     1       0.891   0.737  23.368  0.00  0.00    +0.139 C 
BRANCH  28  30
ATOM     30  C   UNL     1       2.337   0.341  23.297  0.00  0.00    -0.030 A 
ATOM     31  C   UNL     1       2.724  -0.951  23.655  0.00  0.00    +0.009 A 
ATOM     32  C   UNL     1       3.294   1.263  22.873  0.00  0.00    +0.009 A 
ATOM     33  C   UNL     1       4.068  -1.320  23.587  0.00  0.00    +0.046 A 
ATOM     34  C   UNL     1       4.637   0.894  22.806  0.00  0.00    +0.046 A 
ATOM     35  C   UNL     1       5.024  -0.397  23.164  0.00  0.00    +0.120 A 
BRANCH  35   4
ATOM      4  O   UNL     1       6.336  -0.758  23.098  0.00  0.00    -0.495 OA
ATOM     36  C   UNL     1       7.295   0.201  23.542  0.00  0.00    +0.277 C 
ENDBRANCH  35   4
ENDBRANCH  28  30
ENDBRANCH   7  28
ENDBRANCH  16  24
ENDBRANCH  11  16
TORSDOF 9
ENDMDL
MODEL 3
REMARK VINA RESULT:       1.5     14.904     19.225
REMARK  Name = 38027809
REMARK  14 active torsions:
REMARK  status: ('A' for Active; 'I' for Inactive)
REMARK    1  A    between atoms: O_4  and  C_35
REMARK    2  A    between atoms: O_4  and  C_36
REMARK    3  A    between atoms: N_5  and  C_15
REMARK    4  A    between atoms: N_7  and  C_28
REMARK    5  A    between atoms: C_8  and  C_12
REMARK    6  A    between atoms: C_9  and  C_15
REMARK    7  A    between atoms: C_11  and  C_16
REMARK    8  A    between atoms: C_12  and  C_17
REMARK    9  A    between atoms: C_12  and  C_18
REMARK   10  A    between atoms: C_13  and  C_19
REMARK   11  A    between atoms: C_16  and  C_24
REMARK   12  A    between atoms: C_20  and  C_21
REMARK   13  A    between atoms: C_27  and  C_29
REMARK   14  A    between atoms: C_28  and  C_30
REMARK                            x       y       z     vdW  Elec       q    Type
REMARK                         _______ _______ _______ _____ _____    ______ ____
ROOT
ATOM      8  C   UNL     1      -3.761  -0.741  25.065  0.00  0.00    +0.000 C 
ATOM      9  C   UNL     1      -2.576  -0.032  24.362  0.00  0.00    +0.032 C 
ATOM     10  C   UNL     1      -5.074  -0.454  24.320  0.00  0.00    +0.012 C 
ATOM     11  C   UNL     1      -5.382   1.052  24.242  0.00  0.00    +0.023 C 
ATOM     13  C   UNL     1      -4.172   1.854  23.810  0.00  0.00    -0.073 C 
ATOM     14  C   UNL     1      -2.926   1.348  23.858  0.00  0.00    -0.022 C 
ATOM     19  C   UNL     1      -4.429   3.237  23.279  0.00  0.00    +0.039 C 
ENDROOT
BRANCH   8  12
ATOM     12  C   UNL     1      -3.541  -2.253  25.165  0.00  0.00    -0.013 C 
ATOM     17  C   UNL     1      -4.299  -2.975  24.054  0.00  0.00    +0.007 C 
ATOM     18  C   UNL     1      -2.053  -2.580  25.105  0.00  0.00    +0.007 C 
ENDBRANCH   8  12
BRANCH   9  15
ATOM     15  C   UNL     1      -1.357   0.057  25.288  0.00  0.00    +0.112 C 
BRANCH  15   5
ATOM      1  O   UNL     1      -0.605   1.388  22.820  0.00  0.00    -0.276 OA
ATOM      5  N   UNL     1      -0.145  -0.107  24.549  0.00  0.00    -0.315 N 
ATOM     21  C   UNL     1       0.138   0.576  23.367  0.00  0.00    +0.216 C 
ATOM     37  H   UNL     1       0.584  -0.676  24.968  0.00  0.00    +0.149 HD
BRANCH  21  20
ATOM      3  O   UNL     1       6.235   1.022  23.981  0.00  0.00    -0.276 OA
ATOM      6  N   UNL     1       4.335  -0.068  23.206  0.00  0.00    -0.302 N 
ATOM     20  C   UNL     1       1.486   0.238  22.811  0.00  0.00    +0.078 C 
ATOM     22  C   UNL     1       2.067  -0.974  23.544  0.00  0.00    +0.032 C 
ATOM     23  C   UNL     1       2.411   1.450  22.944  0.00  0.00    +0.032 C 
ATOM     25  C   UNL     1       3.495  -1.265  23.084  0.00  0.00    +0.108 C 
ATOM     26  C   UNL     1       3.831   1.110  22.497  0.00  0.00    +0.108 C 
ATOM     27  C   UNL     1       5.547   0.002  23.893  0.00  0.00    +0.212 C 
ATOM     29  C   UNL     1       6.019  -1.264  24.560  0.00  0.00    +0.109 C 
ENDBRANCH  21  20
ENDBRANCH  15   5
ENDBRANCH   9  15
BRANCH  11  16
ATOM     16  C   UNL     1      -5.939   1.573  25.573  0.00  0.00    +0.103 C 
BRANCH  16  24
ATOM      2  O   UNL     1      -5.983   3.986  25.730  0.00  0.00    -0.276 OA
ATOM      7  N   UNL     1      -4.124   2.824  26.497  0.00  0.00    -0.311 N 
ATOM     24  C   UNL     1      -5.383   2.933  25.928  0.00  0.00    +0.214 C 
ATOM     38  H   UNL     1      -3.744   1.902  26.691  0.00  0.00    +0.149 HD
BRANCH   7  28
ATOM     28  C   UNL     1      -3.352   3.965  26.932  0.00  0.00    +0.139 C 
BRANCH  28  30
ATOM     30  C   UNL     1      -2.214   4.263  25.999  0.00  0.00    -0.030 A 
ATOM     31  C   UNL     1      -2.207   5.451  25.266  0.00  0.00    +0.009 A 
ATOM     32  C   UNL     1      -1.164   3.356  25.866  0.00  0.00    +0.009 A 
ATOM     33  C   UNL     1      -1.149   5.729  24.400  0.00  0.00    +0.046 A 
ATOM     34  C   UNL     1      -0.106   3.634  25.001  0.00  0.00    +0.046 A 
ATOM     35  C   UNL     1      -0.099   4.821  24.267  0.00  0.00    +0.120 A 
BRANCH  35   4
ATOM      4  O   UNL     1       0.934   5.092  23.422  0.00  0.00    -0.495 OA
ATOM     36  C   UNL     1       0.599   5.581  22.124  0.00  0.00    +0.277 C 
ENDBRANCH  35   4
ENDBRANCH  28  30
ENDBRANCH   7  28
ENDBRANCH  16  24
ENDBRANCH  11  16
TORSDOF 9
ENDMDL
MODEL 4
REMARK VINA RESULT:       1.6     14.498     19.661
REMARK  Name = 38027809
REMARK  14 active torsions:
REMARK  status: ('A' for Active; 'I' for Inactive)
REMARK    1  A    between atoms: O_4  and  C_35
REMARK    2  A    between atoms: O_4  and  C_36
REMARK    3  A    between atoms: N_5  and  C_15
REMARK    4  A    between atoms: N_7  and  C_28
REMARK    5  A    between atoms: C_8  and  C_12
REMARK    6  A    between atoms: C_9  and  C_15
REMARK    7  A    between atoms: C_11  and  C_16
REMARK    8  A    between atoms: C_12  and  C_17
REMARK    9  A    between atoms: C_12  and  C_18
REMARK   10  A    between atoms: C_13  and  C_19
REMARK   11  A    between atoms: C_16  and  C_24
REMARK   12  A    between atoms: C_20  and  C_21
REMARK   13  A    between atoms: C_27  and  C_29
REMARK   14  A    between atoms: C_28  and  C_30
REMARK                            x       y       z     vdW  Elec       q    Type
REMARK                         _______ _______ _______ _____ _____    ______ ____
ROOT
ATOM      8  C   UNL     1      -2.931   2.290  24.036  0.00  0.00    +0.000 C 
ATOM      9  C   UNL     1      -1.647   2.854  24.695  0.00  0.00    +0.032 C 
ATOM     10  C   UNL     1      -3.920   3.426  23.732  0.00  0.00    +0.012 C 
ATOM     11  C   UNL     1      -4.322   4.203  24.999  0.00  0.00    +0.023 C 
ATOM     13  C   UNL     1      -3.118   4.563  25.845  0.00  0.00    -0.073 C 
ATOM     14  C   UNL     1      -1.926   3.959  25.686  0.00  0.00    -0.022 C 
ATOM     19  C   UNL     1      -3.301   5.667  26.849  0.00  0.00    +0.039 C 
ENDROOT
BRANCH   8  12
ATOM     12  C   UNL     1      -2.619   1.517  22.751  0.00  0.00    -0.013 C 
ATOM     17  C   UNL     1      -3.612   0.374  22.564  0.00  0.00    +0.007 C 
ATOM     18  C   UNL     1      -2.638   2.453  21.548  0.00  0.00    +0.007 C 
ENDBRANCH   8  12
BRANCH   9  15
ATOM     15  C   UNL     1      -0.845   1.743  25.382  0.00  0.00    +0.112 C 
BRANCH  15   5
ATOM      1  O   UNL     1      -0.683  -0.257  23.284  0.00  0.00    -0.276 OA
ATOM      5  N   UNL     1       0.302   1.390  24.606  0.00  0.00    -0.315 N 
ATOM     21  C   UNL     1       0.293   0.413  23.613  0.00  0.00    +0.216 C 
ATOM     37  H   UNL     1       1.136   1.957  24.723  0.00  0.00    +0.149 HD
BRANCH  21  20
ATOM      3  O   UNL     1       6.375   1.223  23.942  0.00  0.00    -0.276 OA
ATOM      6  N   UNL     1       4.504   0.116  23.122  0.00  0.00    -0.302 N 
ATOM     20  C   UNL     1       1.620   0.260  22.938  0.00  0.00    +0.078 C 
ATOM     22  C   UNL     1       2.328  -0.997  23.449  0.00  0.00    +0.032 C 
ATOM     23  C   UNL     1       2.471   1.507  23.196  0.00  0.00    +0.032 C 
ATOM     25  C   UNL     1       3.738  -1.111  22.873  0.00  0.00    +0.108 C 
ATOM     26  C   UNL     1       3.876   1.342  22.624  0.00  0.00    +0.108 C 
ATOM     27  C   UNL     1       5.751   0.177  23.742  0.00  0.00    +0.212 C 
ATOM     29  C   UNL     1       6.348  -1.133  24.188  0.00  0.00    +0.109 C 
ENDBRANCH  21  20
ENDBRANCH  15   5
ENDBRANCH   9  15
BRANCH  11  16
ATOM     16  C   UNL     1      -5.356   3.424  25.821  0.00  0.00    +0.103 C 
BRANCH  16  24
ATOM      2  O   UNL     1      -6.622   2.126  24.219  0.00  0.00    -0.276 OA
ATOM      7  N   UNL     1      -5.144   1.049  25.652  0.00  0.00    -0.311 N 
ATOM     24  C   UNL     1      -5.795   2.155  25.127  0.00  0.00    +0.214 C 
ATOM     38  H   UNL     1      -4.418   1.184  26.350  0.00  0.00    +0.149 HD
BRANCH   7  28
ATOM     28  C   UNL     1      -5.370  -0.298  25.181  0.00  0.00    +0.139 C 
BRANCH  28  30
ATOM     30  C   UNL     1      -4.100  -1.096  25.125  0.00  0.00    -0.030 A 
ATOM     31  C   UNL     1      -3.993  -2.174  24.246  0.00  0.00    +0.009 A 
ATOM     32  C   UNL     1      -3.026  -0.759  25.949  0.00  0.00    +0.009 A 
ATOM     33  C   UNL     1      -2.812  -2.915  24.192  0.00  0.00    +0.046 A 
ATOM     34  C   UNL     1      -1.846  -1.499  25.895  0.00  0.00    +0.046 A 
ATOM     35  C   UNL     1      -1.739  -2.578  25.017  0.00  0.00    +0.120 A 
BRANCH  35   4
ATOM      4  O   UNL     1      -0.586  -3.301  24.965  0.00  0.00    -0.495 OA
ATOM     36  C   UNL     1       0.548  -2.766  25.646  0.00  0.00    +0.277 C 
ENDBRANCH  35   4
ENDBRANCH  28  30
ENDBRANCH   7  28
ENDBRANCH  16  24
ENDBRANCH  11  16
TORSDOF 9
ENDMDL
MODEL 5
REMARK VINA RESULT:       2.2     14.416     19.370
REMARK  Name = 38027809
REMARK  14 active torsions:
REMARK  status: ('A' for Active; 'I' for Inactive)
REMARK    1  A    between atoms: O_4  and  C_35
REMARK    2  A    between atoms: O_4  and  C_36
REMARK    3  A    between atoms: N_5  and  C_15
REMARK    4  A    between atoms: N_7  and  C_28
REMARK    5  A    between atoms: C_8  and  C_12
REMARK    6  A    between atoms: C_9  and  C_15
REMARK    7  A    between atoms: C_11  and  C_16
REMARK    8  A    between atoms: C_12  and  C_17
REMARK    9  A    between atoms: C_12  and  C_18
REMARK   10  A    between atoms: C_13  and  C_19
REMARK   11  A    between atoms: C_16  and  C_24
REMARK   12  A    between atoms: C_20  and  C_21
REMARK   13  A    between atoms: C_27  and  C_29
REMARK   14  A    between atoms: C_28  and  C_30
REMARK                            x       y       z     vdW  Elec       q    Type
REMARK                         _______ _______ _______ _____ _____    ______ ____
ROOT
ATOM      8  C   UNL     1      -3.714   2.335  25.089  0.00  0.00    +0.000 C 
ATOM      9  C   UNL     1      -3.138   2.571  23.670  0.00  0.00    +0.032 C 
ATOM     10  C   UNL     1      -3.845   3.668  25.842  0.00  0.00    +0.012 C 
ATOM     11  C   UNL     1      -2.494   4.395  25.978  0.00  0.00    +0.023 C 
ATOM     13  C   UNL     1      -1.739   4.431  24.666  0.00  0.00    -0.073 C 
ATOM     14  C   UNL     1      -2.049   3.617  23.640  0.00  0.00    -0.022 C 
ATOM     19  C   UNL     1      -0.646   5.457  24.541  0.00  0.00    +0.039 C 
ENDROOT
BRANCH   8  12
ATOM     12  C   UNL     1      -5.074   1.631  25.041  0.00  0.00    -0.013 C 
ATOM     17  C   UNL     1      -5.771   1.730  26.394  0.00  0.00    +0.007 C 
ATOM     18  C   UNL     1      -5.943   2.228  23.940  0.00  0.00    +0.007 C 
ENDBRANCH   8  12
BRANCH   9  15
ATOM     15  C   UNL     1      -2.607   1.265  23.066  0.00  0.00    +0.112 C 
BRANCH  15   5
ATOM      1  O   UNL     1      -0.703  -0.905  22.765  0.00  0.00    -0.276 OA
ATOM      5  N   UNL     1      -1.211   1.369  22.779  0.00  0.00    -0.315 N 
ATOM     21  C   UNL     1      -0.364   0.270  22.650  0.00  0.00    +0.216 C 
ATOM     37  H   UNL     1      -0.847   2.292  22.561  0.00  0.00    +0.149 HD
BRANCH  21  20
ATOM      3  O   UNL     1       5.409   0.904  24.656  0.00  0.00    -0.276 OA
ATOM      6  N   UNL     1       3.866   0.546  22.957  0.00  0.00    -0.302 N 
ATOM     20  C   UNL     1       1.044   0.659  22.326  0.00  0.00    +0.078 C 
ATOM     22  C   UNL     1       1.881  -0.590  22.036  0.00  0.00    +0.032 C 
ATOM     23  C   UNL     1       1.637   1.452  23.494  0.00  0.00    +0.032 C 
ATOM     25  C   UNL     1       3.351  -0.234  21.825  0.00  0.00    +0.108 C 
ATOM     26  C   UNL     1       3.112   1.766  23.253  0.00  0.00    +0.108 C 
ATOM     27  C   UNL     1       4.998   0.231  23.707  0.00  0.00    +0.212 C 
ATOM     29  C   UNL     1       5.743  -1.018  23.312  0.00  0.00    +0.109 C 
ENDBRANCH  21  20
ENDBRANCH  15   5
ENDBRANCH   9  15
BRANCH  11  16
ATOM     16  C   UNL     1      -1.639   3.769  27.087  0.00  0.00    +0.103 C 
BRANCH  16  24
ATOM      2  O   UNL     1       0.406   3.015  26.037  0.00  0.00    -0.276 OA
ATOM      7  N   UNL     1      -1.180   1.455  26.705  0.00  0.00    -0.311 N 
ATOM     24  C   UNL     1      -0.676   2.736  26.547  0.00  0.00    +0.214 C 
ATOM     38  H   UNL     1      -2.052   1.322  27.209  0.00  0.00    +0.149 HD
BRANCH   7  28
ATOM     28  C   UNL     1      -0.473   0.270  26.276  0.00  0.00    +0.139 C 
BRANCH  28  30
ATOM     30  C   UNL     1      -1.405  -0.780  25.744  0.00  0.00    -0.030 A 
ATOM     31  C   UNL     1      -0.890  -1.919  25.123  0.00  0.00    +0.009 A 
ATOM     32  C   UNL     1      -2.785  -0.618  25.870  0.00  0.00    +0.009 A 
ATOM     33  C   UNL     1      -1.756  -2.895  24.630  0.00  0.00    +0.046 A 
ATOM     34  C   UNL     1      -3.650  -1.594  25.377  0.00  0.00    +0.046 A 
ATOM     35  C   UNL     1      -3.135  -2.733  24.756  0.00  0.00    +0.120 A 
BRANCH  35   4
ATOM      4  O   UNL     1      -3.981  -3.686  24.274  0.00  0.00    -0.495 OA
ATOM     36  C   UNL     1      -4.907  -3.283  23.266  0.00  0.00    +0.277 C 
ENDBRANCH  35   4
ENDBRANCH  28  30
ENDBRANCH   7  28
ENDBRANCH  16  24
ENDBRANCH  11  16
TORSDOF 9
ENDMDL
