MODEL 1
REMARK VINA RESULT:      -3.3      0.000      0.000
REMARK  Name = 11884128
REMARK  6 active torsions:
REMARK  status: ('A' for Active; 'I' for Inactive)
REMARK    1  A    between atoms: O_3  and  C_12
REMARK    2  A    between atoms: O_3  and  C_16
REMARK    3  A    between atoms: N_6  and  C_11
REMARK    4  A    between atoms: N_7  and  C_17
REMARK    5  A    between atoms: N_8  and  C_18
REMARK    6  A    between atoms: C_18  and  C_21
REMARK                            x       y       z     vdW  Elec       q    Type
REMARK                         _______ _______ _______ _____ _____    ______ ____
ROOT
ATOM      1  O   UNL     1      -2.623   0.811  25.625  0.00  0.00    -0.368 OA
ATOM      2  O   UNL     1      -4.508  -0.907  23.923  0.00  0.00    -0.368 OA
ATOM      9  C   UNL     1      -3.302  -0.190  23.586  0.00  0.00    +0.173 C 
ATOM     10  C   UNL     1      -3.311   1.091  24.395  0.00  0.00    +0.192 C 
ATOM     11  C   UNL     1      -2.093  -0.936  24.102  0.00  0.00    +0.131 C 
ATOM     12  C   UNL     1      -4.786   1.324  24.620  0.00  0.00    +0.235 C 
ATOM     13  C   UNL     1      -2.044  -0.501  25.556  0.00  0.00    +0.185 C 
ATOM     14  C   UNL     1      -5.310  -0.085  24.784  0.00  0.00    +0.207 C 
ENDROOT
BRANCH  11   6
ATOM      4  O   UNL     1       0.605  -1.195  25.028  0.00  0.00    -0.252 OA
ATOM      6  N   UNL     1      -0.897  -0.545  23.396  0.00  0.00    -0.292 N 
ATOM      7  N   UNL     1       1.348  -0.239  23.018  0.00  0.00    -0.269 N 
ATOM     15  C   UNL     1       0.390  -0.706  23.922  0.00  0.00    +0.304 C 
ATOM     25  H   UNL     1      -0.989  -0.195  22.447  0.00  0.00    +0.151 HD
ATOM     26  H   UNL     1       1.000   0.139  22.140  0.00  0.00    +0.156 HD
BRANCH   7  17
ATOM     17  C   UNL     1       2.754  -0.225  23.172  0.00  0.00    +0.035 A 
ATOM     19  C   UNL     1       3.462   0.917  22.833  0.00  0.00    +0.023 A 
ATOM     20  C   UNL     1       3.394  -1.353  23.660  0.00  0.00    +0.023 A 
ATOM     22  C   UNL     1       4.848   0.931  22.986  0.00  0.00    +0.002 A 
ATOM     23  C   UNL     1       4.781  -1.339  23.812  0.00  0.00    +0.002 A 
ATOM     24  C   UNL     1       5.507  -0.197  23.476  0.00  0.00    +0.000 A 
ENDBRANCH   7  17
ENDBRANCH  11   6
BRANCH  12   3
ATOM      3  O   UNL     1      -5.064   2.127  25.745  0.00  0.00    -0.442 OA
BRANCH   3  16
ATOM      5  O   UNL     1      -5.520   4.357  25.442  0.00  0.00    -0.226 OA
ATOM      8  N   UNL     1      -3.359   3.614  25.841  0.00  0.00    -0.281 N 
ATOM     16  C   UNL     1      -4.716   3.456  25.657  0.00  0.00    +0.401 C 
ATOM     27  H   UNL     1      -2.799   2.783  26.010  0.00  0.00    +0.152 HD
BRANCH   8  18
ATOM     18  C   UNL     1      -2.688   4.892  25.804  0.00  0.00    +0.104 C 
ATOM     21  C   UNL     1      -1.339   4.793  25.125  0.00  0.00    +0.024 C 
ENDBRANCH   8  18
ENDBRANCH   3  16
ENDBRANCH  12   3
TORSDOF 5
ENDMDL
MODEL 2
REMARK VINA RESULT:      -1.4      1.959      3.608
REMARK  Name = 11884128
REMARK  6 active torsions:
REMARK  status: ('A' for Active; 'I' for Inactive)
REMARK    1  A    between atoms: O_3  and  C_12
REMARK    2  A    between atoms: O_3  and  C_16
REMARK    3  A    between atoms: N_6  and  C_11
REMARK    4  A    between atoms: N_7  and  C_17
REMARK    5  A    between atoms: N_8  and  C_18
REMARK    6  A    between atoms: C_18  and  C_21
REMARK                            x       y       z     vdW  Elec       q    Type
REMARK                         _______ _______ _______ _____ _____    ______ ____
ROOT
ATOM      1  O   UNL     1      -3.110   1.074  23.276  0.00  0.00    -0.368 OA
ATOM      2  O   UNL     1      -2.135   3.519  24.851  0.00  0.00    -0.368 OA
ATOM      9  C   UNL     1      -1.450   2.326  24.416  0.00  0.00    +0.173 C 
ATOM     10  C   UNL     1      -2.436   1.182  24.540  0.00  0.00    +0.192 C 
ATOM     11  C   UNL     1      -1.166   2.400  22.934  0.00  0.00    +0.131 C 
ATOM     12  C   UNL     1      -3.363   1.667  25.629  0.00  0.00    +0.235 C 
ATOM     13  C   UNL     1      -2.489   1.959  22.331  0.00  0.00    +0.185 C 
ATOM     14  C   UNL     1      -3.429   3.152  25.353  0.00  0.00    +0.207 C 
ENDROOT
BRANCH  11   6
ATOM      4  O   UNL     1       1.321   2.038  24.308  0.00  0.00    -0.252 OA
ATOM      6  N   UNL     1      -0.096   1.508  22.560  0.00  0.00    -0.292 N 
ATOM      7  N   UNL     1       1.941   0.454  22.691  0.00  0.00    -0.269 N 
ATOM     15  C   UNL     1       1.093   1.390  23.289  0.00  0.00    +0.304 C 
ATOM     25  H   UNL     1      -0.237   0.889  21.767  0.00  0.00    +0.151 HD
ATOM     26  H   UNL     1       1.598   0.004  21.845  0.00  0.00    +0.156 HD
BRANCH   7  17
ATOM     17  C   UNL     1       3.227   0.050  23.118  0.00  0.00    +0.035 A 
ATOM     19  C   UNL     1       3.419  -1.253  23.552  0.00  0.00    +0.023 A 
ATOM     20  C   UNL     1       4.269   0.963  23.094  0.00  0.00    +0.023 A 
ATOM     22  C   UNL     1       4.688  -1.652  23.972  0.00  0.00    +0.002 A 
ATOM     23  C   UNL     1       5.537   0.563  23.515  0.00  0.00    +0.002 A 
ATOM     24  C   UNL     1       5.747  -0.744  23.953  0.00  0.00    +0.000 A 
ENDBRANCH   7  17
ENDBRANCH  11   6
BRANCH  12   3
ATOM      3  O   UNL     1      -4.636   1.064  25.595  0.00  0.00    -0.442 OA
BRANCH   3  16
ATOM      5  O   UNL     1      -5.500  -0.600  24.268  0.00  0.00    -0.226 OA
ATOM      8  N   UNL     1      -3.740  -1.012  25.723  0.00  0.00    -0.281 N 
ATOM     16  C   UNL     1      -4.697  -0.225  25.116  0.00  0.00    +0.401 C 
ATOM     27  H   UNL     1      -3.134  -0.580  26.414  0.00  0.00    +0.152 HD
BRANCH   8  18
ATOM     18  C   UNL     1      -3.554  -2.414  25.433  0.00  0.00    +0.104 C 
ATOM     21  C   UNL     1      -2.548  -2.622  24.320  0.00  0.00    +0.024 C 
ENDBRANCH   8  18
ENDBRANCH   3  16
ENDBRANCH  12   3
TORSDOF 5
ENDMDL
MODEL 3
REMARK VINA RESULT:      -1.2      1.619      2.570
REMARK  Name = 11884128
REMARK  6 active torsions:
REMARK  status: ('A' for Active; 'I' for Inactive)
REMARK    1  A    between atoms: O_3  and  C_12
REMARK    2  A    between atoms: O_3  and  C_16
REMARK    3  A    between atoms: N_6  and  C_11
REMARK    4  A    between atoms: N_7  and  C_17
REMARK    5  A    between atoms: N_8  and  C_18
REMARK    6  A    between atoms: C_18  and  C_21
REMARK                            x       y       z     vdW  Elec       q    Type
REMARK                         _______ _______ _______ _____ _____    ______ ____
ROOT
ATOM      1  O   UNL     1      -2.488   1.085  25.461  0.00  0.00    -0.368 OA
ATOM      2  O   UNL     1      -2.879   2.072  22.584  0.00  0.00    -0.368 OA
ATOM      9  C   UNL     1      -1.724   1.535  23.262  0.00  0.00    +0.173 C 
ATOM     10  C   UNL     1      -1.768   2.056  24.684  0.00  0.00    +0.192 C 
ATOM     11  C   UNL     1      -1.863   0.039  23.419  0.00  0.00    +0.131 C 
ATOM     12  C   UNL     1      -2.544   3.342  24.537  0.00  0.00    +0.235 C 
ATOM     13  C   UNL     1      -2.742  -0.075  24.653  0.00  0.00    +0.185 C 
ATOM     14  C   UNL     1      -3.548   2.988  23.464  0.00  0.00    +0.207 C 
ENDROOT
BRANCH  11   6
ATOM      4  O   UNL     1       0.709   1.196  22.920  0.00  0.00    -0.252 OA
ATOM      6  N   UNL     1      -0.580  -0.587  23.630  0.00  0.00    -0.292 N 
ATOM      7  N   UNL     1       1.708  -0.796  23.658  0.00  0.00    -0.269 N 
ATOM     15  C   UNL     1       0.636   0.051  23.359  0.00  0.00    +0.304 C 
ATOM     25  H   UNL     1      -0.556  -1.509  24.055  0.00  0.00    +0.151 HD
ATOM     26  H   UNL     1       1.472  -1.720  24.016  0.00  0.00    +0.156 HD
BRANCH   7  17
ATOM     17  C   UNL     1       3.090  -0.528  23.526  0.00  0.00    +0.035 A 
ATOM     19  C   UNL     1       4.008  -1.469  23.965  0.00  0.00    +0.023 A 
ATOM     20  C   UNL     1       3.498   0.668  22.958  0.00  0.00    +0.023 A 
ATOM     22  C   UNL     1       5.371  -1.205  23.833  0.00  0.00    +0.002 A 
ATOM     23  C   UNL     1       4.861   0.932  22.827  0.00  0.00    +0.002 A 
ATOM     24  C   UNL     1       5.797  -0.005  23.264  0.00  0.00    +0.000 A 
ENDBRANCH   7  17
ENDBRANCH  11   6
BRANCH  12   3
ATOM      3  O   UNL     1      -3.168   3.762  25.730  0.00  0.00    -0.442 OA
BRANCH   3  16
ATOM      5  O   UNL     1      -5.295   4.624  25.647  0.00  0.00    -0.226 OA
ATOM      8  N   UNL     1      -4.926   2.359  25.989  0.00  0.00    -0.281 N 
ATOM     16  C   UNL     1      -4.540   3.666  25.777  0.00  0.00    +0.401 C 
ATOM     27  H   UNL     1      -4.200   1.655  26.081  0.00  0.00    +0.152 HD
BRANCH   8  18
ATOM     18  C   UNL     1      -6.303   1.936  26.088  0.00  0.00    +0.104 C 
ATOM     21  C   UNL     1      -6.876   1.585  24.731  0.00  0.00    +0.024 C 
ENDBRANCH   8  18
ENDBRANCH   3  16
ENDBRANCH  12   3
TORSDOF 5
ENDMDL
MODEL 4
REMARK VINA RESULT:      -0.2      1.831      3.717
REMARK  Name = 11884128
REMARK  6 active torsions:
REMARK  status: ('A' for Active; 'I' for Inactive)
REMARK    1  A    between atoms: O_3  and  C_12
REMARK    2  A    between atoms: O_3  and  C_16
REMARK    3  A    between atoms: N_6  and  C_11
REMARK    4  A    between atoms: N_7  and  C_17
REMARK    5  A    between atoms: N_8  and  C_18
REMARK    6  A    between atoms: C_18  and  C_21
REMARK                            x       y       z     vdW  Elec       q    Type
REMARK                         _______ _______ _______ _____ _____    ______ ____
ROOT
ATOM      1  O   UNL     1      -3.029   0.914  23.215  0.00  0.00    -0.368 OA
ATOM      2  O   UNL     1      -4.181   2.873  25.274  0.00  0.00    -0.368 OA
ATOM      9  C   UNL     1      -2.847   2.357  25.089  0.00  0.00    +0.173 C 
ATOM     10  C   UNL     1      -2.991   0.913  24.652  0.00  0.00    +0.192 C 
ATOM     11  C   UNL     1      -2.189   3.029  23.905  0.00  0.00    +0.131 C 
ATOM     12  C   UNL     1      -4.324   0.524  25.247  0.00  0.00    +0.235 C 
ATOM     13  C   UNL     1      -2.748   2.237  22.735  0.00  0.00    +0.185 C 
ATOM     14  C   UNL     1      -5.121   1.801  25.106  0.00  0.00    +0.207 C 
ENDROOT
BRANCH  11   6
ATOM      4  O   UNL     1      -0.603   0.767  23.147  0.00  0.00    -0.252 OA
ATOM      6  N   UNL     1      -0.752   2.921  23.974  0.00  0.00    -0.292 N 
ATOM      7  N   UNL     1       1.323   1.959  23.761  0.00  0.00    -0.269 N 
ATOM     15  C   UNL     1      -0.051   1.774  23.582  0.00  0.00    +0.304 C 
ATOM     25  H   UNL     1      -0.220   3.737  24.261  0.00  0.00    +0.151 HD
ATOM     26  H   UNL     1       1.617   2.859  24.135  0.00  0.00    +0.156 HD
BRANCH   7  17
ATOM     17  C   UNL     1       2.365   1.044  23.485  0.00  0.00    +0.035 A 
ATOM     19  C   UNL     1       3.615   1.527  23.130  0.00  0.00    +0.023 A 
ATOM     20  C   UNL     1       2.117  -0.316  23.576  0.00  0.00    +0.023 A 
ATOM     22  C   UNL     1       4.643   0.625  22.858  0.00  0.00    +0.002 A 
ATOM     23  C   UNL     1       3.146  -1.218  23.304  0.00  0.00    +0.002 A 
ATOM     24  C   UNL     1       4.409  -0.747  22.946  0.00  0.00    +0.000 A 
ENDBRANCH   7  17
ENDBRANCH  11   6
BRANCH  12   3
ATOM      3  O   UNL     1      -4.939  -0.560  24.589  0.00  0.00    -0.442 OA
BRANCH   3  16
ATOM      5  O   UNL     1      -4.418  -2.465  23.415  0.00  0.00    -0.226 OA
ATOM      8  N   UNL     1      -2.973  -1.601  25.012  0.00  0.00    -0.281 N 
ATOM     16  C   UNL     1      -4.130  -1.624  24.261  0.00  0.00    +0.401 C 
ATOM     27  H   UNL     1      -2.853  -0.848  25.683  0.00  0.00    +0.152 HD
BRANCH   8  18
ATOM     18  C   UNL     1      -1.924  -2.588  24.899  0.00  0.00    +0.104 C 
ATOM     21  C   UNL     1      -0.570  -1.998  25.229  0.00  0.00    +0.024 C 
ENDBRANCH   8  18
ENDBRANCH   3  16
ENDBRANCH  12   3
TORSDOF 5
ENDMDL
MODEL 5
REMARK VINA RESULT:       0.4      1.872      2.772
REMARK  Name = 11884128
REMARK  6 active torsions:
REMARK  status: ('A' for Active; 'I' for Inactive)
REMARK    1  A    between atoms: O_3  and  C_12
REMARK    2  A    between atoms: O_3  and  C_16
REMARK    3  A    between atoms: N_6  and  C_11
REMARK    4  A    between atoms: N_7  and  C_17
REMARK    5  A    between atoms: N_8  and  C_18
REMARK    6  A    between atoms: C_18  and  C_21
REMARK                            x       y       z     vdW  Elec       q    Type
REMARK                         _______ _______ _______ _____ _____    ______ ____
ROOT
ATOM      1  O   UNL     1      -3.263   0.914  23.159  0.00  0.00    -0.368 OA
ATOM      2  O   UNL     1      -2.330   3.072  25.129  0.00  0.00    -0.368 OA
ATOM      9  C   UNL     1      -1.668   1.899  24.611  0.00  0.00    +0.173 C 
ATOM     10  C   UNL     1      -2.721   0.818  24.487  0.00  0.00    +0.192 C 
ATOM     11  C   UNL     1      -1.225   2.139  23.186  0.00  0.00    +0.131 C 
ATOM     12  C   UNL     1      -3.731   1.224  25.534  0.00  0.00    +0.235 C 
ATOM     13  C   UNL     1      -2.498   1.867  22.404  0.00  0.00    +0.185 C 
ATOM     14  C   UNL     1      -3.687   2.733  25.450  0.00  0.00    +0.207 C 
ENDROOT
BRANCH  11   6
ATOM      4  O   UNL     1       1.401   1.990  24.321  0.00  0.00    -0.252 OA
ATOM      6  N   UNL     1      -0.171   1.230  22.806  0.00  0.00    -0.292 N 
ATOM      7  N   UNL     1       1.902   0.240  22.839  0.00  0.00    -0.269 N 
ATOM     15  C   UNL     1       1.090   1.223  23.413  0.00  0.00    +0.304 C 
ATOM     25  H   UNL     1      -0.373   0.520  22.108  0.00  0.00    +0.151 HD
ATOM     26  H   UNL     1       1.488  -0.313  22.092  0.00  0.00    +0.156 HD
BRANCH   7  17
ATOM     17  C   UNL     1       3.237  -0.086  23.170  0.00  0.00    +0.035 A 
ATOM     19  C   UNL     1       3.526  -1.351  23.657  0.00  0.00    +0.023 A 
ATOM     20  C   UNL     1       4.230   0.866  23.000  0.00  0.00    +0.023 A 
ATOM     22  C   UNL     1       4.844  -1.672  23.984  0.00  0.00    +0.002 A 
ATOM     23  C   UNL     1       5.548   0.544  23.327  0.00  0.00    +0.002 A 
ATOM     24  C   UNL     1       5.854  -0.725  23.817  0.00  0.00    +0.000 A 
ENDBRANCH   7  17
ENDBRANCH  11   6
BRANCH  12   3
ATOM      3  O   UNL     1      -5.024   0.717  25.295  0.00  0.00    -0.442 OA
BRANCH   3  16
ATOM      5  O   UNL     1      -7.028   1.442  24.439  0.00  0.00    -0.226 OA
ATOM      8  N   UNL     1      -5.746   2.799  25.816  0.00  0.00    -0.281 N 
ATOM     16  C   UNL     1      -6.029   1.641  25.122  0.00  0.00    +0.401 C 
ATOM     27  H   UNL     1      -4.880   2.839  26.346  0.00  0.00    +0.152 HD
BRANCH   8  18
ATOM     18  C   UNL     1      -6.609   3.956  25.831  0.00  0.00    +0.104 C 
ATOM     21  C   UNL     1      -5.841   5.226  25.532  0.00  0.00    +0.024 C 
ENDBRANCH   8  18
ENDBRANCH   3  16
ENDBRANCH  12   3
TORSDOF 5
ENDMDL
