MODEL 1
REMARK VINA RESULT:      -3.1      0.000      0.000
REMARK  Name = 45361198
REMARK  9 active torsions:
REMARK  status: ('A' for Active; 'I' for Inactive)
REMARK    1  A    between atoms: O_3  and  C_26
REMARK    2  A    between atoms: O_4  and  C_31
REMARK    3  A    between atoms: O_4  and  C_32
REMARK    4  A    between atoms: N_5  and  C_18
REMARK    5  A    between atoms: N_6  and  C_17
REMARK    6  A    between atoms: C_13  and  C_16
REMARK    7  A    between atoms: C_16  and  C_19
REMARK    8  A    between atoms: C_17  and  C_20
REMARK    9  A    between atoms: C_19  and  C_21
REMARK                            x       y       z     vdW  Elec       q    Type
REMARK                         _______ _______ _______ _____ _____    ______ ____
ROOT
ATOM      1  O   UNL     1      13.156  -6.557  29.600  0.00  0.00    -0.274 OA
ATOM      5  N   UNL     1      16.389  -7.968  28.003  0.00  0.00    -0.296 NA
ATOM      6  N   UNL     1      13.823  -9.056  30.376  0.00  0.00    -0.286 NA
ATOM      7  N   UNL     1      15.309  -5.782  29.545  0.00  0.00    -0.312 N 
ATOM      9  C   UNL     1      15.891  -8.783  29.134  0.00  0.00    +0.084 C 
ATOM     10  C   UNL     1      14.940  -8.114  30.168  0.00  0.00    +0.161 C 
ATOM     11  C   UNL     1      15.078 -10.019  28.704  0.00  0.00    +0.036 C 
ATOM     12  C   UNL     1      14.287 -10.370  29.946  0.00  0.00    +0.087 C 
ATOM     13  C   UNL     1      17.247  -6.819  28.403  0.00  0.00    +0.074 C 
ATOM     14  C   UNL     1      14.361  -6.769  29.736  0.00  0.00    +0.232 C 
ATOM     15  C   UNL     1      16.737  -6.019  29.618  0.00  0.00    +0.123 C 
ATOM     18  C   UNL     1      17.089  -8.811  27.019  0.00  0.00    +0.105 C 
ATOM     33  H   UNL     1      14.983  -4.843  29.333  0.00  0.00    +0.149 HD
ENDROOT
BRANCH  13  16
ATOM     16  C   UNL     1      17.405  -5.829  27.230  0.00  0.00    +0.029 C 
BRANCH  16  19
ATOM     19  C   UNL     1      16.244  -5.915  26.256  0.00  0.00    +0.097 C 
BRANCH  19  21
ATOM      2  O   UNL     1      17.329  -6.375  24.201  0.00  0.00    -0.276 OA
ATOM      8  N   UNL     1      16.311  -4.296  24.392  0.00  0.00    -0.301 N 
ATOM     21  C   UNL     1      16.680  -5.558  24.857  0.00  0.00    +0.216 C 
ATOM     22  C   UNL     1      15.538  -3.303  25.150  0.00  0.00    +0.110 C 
ATOM     23  C   UNL     1      16.657  -3.893  23.026  0.00  0.00    +0.110 C 
ATOM     24  C   UNL     1      16.266  -1.963  25.184  0.00  0.00    +0.050 C 
ATOM     25  C   UNL     1      17.405  -2.565  23.023  0.00  0.00    +0.050 C 
ATOM     26  C   UNL     1      16.623  -1.488  23.775  0.00  0.00    +0.118 C 
BRANCH  26   3
ATOM      3  O   UNL     1      17.405  -0.304  23.874  0.00  0.00    -0.392 OA
ATOM     34  H   UNL     1      18.095  -0.351  23.190  0.00  0.00    +0.210 HD
ENDBRANCH  26   3
ENDBRANCH  19  21
ENDBRANCH  16  19
ENDBRANCH  13  16
BRANCH   6  17
ATOM     17  C   UNL     1      13.328  -9.071  31.747  0.00  0.00    +0.120 C 
BRANCH  17  20
ATOM     20  C   UNL     1      11.827  -9.179  31.800  0.00  0.00    -0.033 A 
ATOM     27  C   UNL     1      11.056  -8.051  32.084  0.00  0.00    +0.008 A 
ATOM     28  C   UNL     1      11.208 -10.405  31.563  0.00  0.00    +0.008 A 
ATOM     29  C   UNL     1       9.666  -8.152  32.133  0.00  0.00    +0.046 A 
ATOM     30  C   UNL     1       9.818 -10.505  31.612  0.00  0.00    +0.046 A 
ATOM     31  C   UNL     1       9.047  -9.378  31.897  0.00  0.00    +0.120 A 
BRANCH  31   4
ATOM      4  O   UNL     1       7.690  -9.476  31.943  0.00  0.00    -0.495 OA
ATOM     32  C   UNL     1       6.949  -8.675  31.024  0.00  0.00    +0.277 C 
ENDBRANCH  31   4
ENDBRANCH  17  20
ENDBRANCH   6  17
TORSDOF 7
ENDMDL
