MODEL 1
REMARK VINA RESULT:      -2.7      0.000      0.000
REMARK  Name = 71694098
REMARK  10 active torsions:
REMARK  status: ('A' for Active; 'I' for Inactive)
REMARK    1  A    between atoms: O_3  and  C_16
REMARK    2  A    between atoms: O_3  and  C_26
REMARK    3  A    between atoms: O_4  and  C_27
REMARK    4  A    between atoms: O_4  and  C_28
REMARK    5  A    between atoms: N_5  and  C_7
REMARK    6  A    between atoms: N_5  and  C_11
REMARK    7  A    between atoms: C_7  and  C_10
REMARK    8  A    between atoms: C_10  and  C_12
REMARK    9  A    between atoms: C_11  and  C_13
REMARK   10  A    between atoms: C_15  and  C_18
REMARK                            x       y       z     vdW  Elec       q    Type
REMARK                         _______ _______ _______ _____ _____    ______ ____
ROOT
ATOM      1  O   UNL     1      -6.229   3.685  25.780  0.00  0.00    -0.376 OA
ATOM      7  C   UNL     1      -4.664   2.533  24.893  0.00  0.00    +0.072 C 
ATOM      8  C   UNL     1      -6.198   2.514  24.923  0.00  0.00    +0.184 C 
ATOM      9  C   UNL     1      -4.801   3.571  26.015  0.00  0.00    +0.184 C 
ENDROOT
BRANCH   7   5
ATOM      5  N   UNL     1      -4.169   1.284  25.479  0.00  0.00    -0.302 NA
ATOM     29  H   UNL     1      -3.163   1.140  25.427  0.00  0.00    +0.123 HD
BRANCH   5  11
ATOM     11  C   UNL     1      -4.877   0.157  24.882  0.00  0.00    +0.120 C 
BRANCH  11  13
ATOM     13  C   UNL     1      -3.961  -1.015  24.641  0.00  0.00    +0.008 A 
ATOM     16  C   UNL     1      -2.671  -1.032  25.170  0.00  0.00    +0.124 A 
ATOM     17  C   UNL     1      -4.418  -2.091  23.879  0.00  0.00    +0.008 A 
ATOM     19  C   UNL     1      -1.836  -2.125  24.937  0.00  0.00    +0.046 A 
ATOM     20  C   UNL     1      -3.583  -3.183  23.646  0.00  0.00    +0.001 A 
ATOM     21  C   UNL     1      -2.292  -3.200  24.175  0.00  0.00    +0.004 A 
BRANCH  16   3
ATOM      3  O   UNL     1      -2.210   0.010  25.917  0.00  0.00    -0.495 OA
ATOM     26  C   UNL     1      -0.854  -0.057  26.355  0.00  0.00    +0.277 C 
ENDBRANCH  16   3
ENDBRANCH  11  13
ENDBRANCH   5  11
ENDBRANCH   7   5
BRANCH   7  10
ATOM     10  C   UNL     1      -3.952   2.918  23.622  0.00  0.00    +0.085 C 
BRANCH  10  12
ATOM      2  O   UNL     1      -0.431   2.925  24.417  0.00  0.00    -0.354 OA
ATOM      6  N   UNL     1      -1.719   3.431  24.536  0.00  0.00    -0.083 NA
ATOM     12  C   UNL     1      -2.468   2.657  23.745  0.00  0.00    +0.086 A 
ATOM     14  C   UNL     1      -1.716   1.655  23.110  0.00  0.00    +0.076 A 
ATOM     15  C   UNL     1      -0.441   1.867  23.566  0.00  0.00    +0.167 A 
BRANCH  15  18
ATOM     18  C   UNL     1       0.826   1.235  23.344  0.00  0.00    +0.020 A 
ATOM     22  C   UNL     1       1.997   1.992  23.363  0.00  0.00    +0.015 A 
ATOM     23  C   UNL     1       0.888  -0.139  23.108  0.00  0.00    +0.015 A 
ATOM     24  C   UNL     1       3.230   1.376  23.147  0.00  0.00    +0.046 A 
ATOM     25  C   UNL     1       2.121  -0.756  22.892  0.00  0.00    +0.046 A 
ATOM     27  C   UNL     1       3.292   0.002  22.911  0.00  0.00    +0.120 A 
BRANCH  27   4
ATOM      4  O   UNL     1       4.494  -0.599  22.704  0.00  0.00    -0.495 OA
ATOM     28  C   UNL     1       5.587  -0.161  23.510  0.00  0.00    +0.277 C 
ENDBRANCH  27   4
ENDBRANCH  15  18
ENDBRANCH  10  12
ENDBRANCH   7  10
TORSDOF 8
ENDMDL
MODEL 2
REMARK VINA RESULT:      -2.6      0.892      1.966
REMARK  Name = 71694098
REMARK  10 active torsions:
REMARK  status: ('A' for Active; 'I' for Inactive)
REMARK    1  A    between atoms: O_3  and  C_16
REMARK    2  A    between atoms: O_3  and  C_26
REMARK    3  A    between atoms: O_4  and  C_27
REMARK    4  A    between atoms: O_4  and  C_28
REMARK    5  A    between atoms: N_5  and  C_7
REMARK    6  A    between atoms: N_5  and  C_11
REMARK    7  A    between atoms: C_7  and  C_10
REMARK    8  A    between atoms: C_10  and  C_12
REMARK    9  A    between atoms: C_11  and  C_13
REMARK   10  A    between atoms: C_15  and  C_18
REMARK                            x       y       z     vdW  Elec       q    Type
REMARK                         _______ _______ _______ _____ _____    ______ ____
ROOT
ATOM      1  O   UNL     1      -6.302   3.807  25.716  0.00  0.00    -0.376 OA
ATOM      7  C   UNL     1      -4.702   2.553  25.059  0.00  0.00    +0.072 C 
ATOM      8  C   UNL     1      -6.229   2.463  25.174  0.00  0.00    +0.184 C 
ATOM      9  C   UNL     1      -4.861   3.829  25.895  0.00  0.00    +0.184 C 
ENDROOT
BRANCH   7   5
ATOM      5  N   UNL     1      -4.107   1.517  25.908  0.00  0.00    -0.302 NA
ATOM     29  H   UNL     1      -3.111   1.618  26.095  0.00  0.00    +0.123 HD
BRANCH   5  11
ATOM     11  C   UNL     1      -4.388   0.204  25.339  0.00  0.00    +0.120 C 
BRANCH  11  13
ATOM     13  C   UNL     1      -3.144  -0.637  25.229  0.00  0.00    +0.008 A 
ATOM     16  C   UNL     1      -3.082  -1.705  24.333  0.00  0.00    +0.124 A 
ATOM     17  C   UNL     1      -2.046  -0.339  26.036  0.00  0.00    +0.008 A 
ATOM     19  C   UNL     1      -1.922  -2.474  24.244  0.00  0.00    +0.046 A 
ATOM     20  C   UNL     1      -0.886  -1.108  25.947  0.00  0.00    +0.001 A 
ATOM     21  C   UNL     1      -0.824  -2.175  25.051  0.00  0.00    +0.004 A 
BRANCH  16   3
ATOM      3  O   UNL     1      -4.145  -2.009  23.537  0.00  0.00    -0.495 OA
ATOM     26  C   UNL     1      -4.610  -3.358  23.565  0.00  0.00    +0.277 C 
ENDBRANCH  16   3
ENDBRANCH  11  13
ENDBRANCH   5  11
ENDBRANCH   7   5
BRANCH   7  10
ATOM     10  C   UNL     1      -4.065   2.644  23.696  0.00  0.00    +0.085 C 
BRANCH  10  12
ATOM      2  O   UNL     1      -0.543   2.807  24.471  0.00  0.00    -0.354 OA
ATOM      6  N   UNL     1      -1.857   3.234  24.623  0.00  0.00    -0.083 NA
ATOM     12  C   UNL     1      -2.568   2.461  23.797  0.00  0.00    +0.086 A 
ATOM     14  C   UNL     1      -1.766   1.538  23.105  0.00  0.00    +0.076 A 
ATOM     15  C   UNL     1      -0.501   1.797  23.565  0.00  0.00    +0.167 A 
BRANCH  15  18
ATOM     18  C   UNL     1       0.797   1.249  23.302  0.00  0.00    +0.020 A 
ATOM     22  C   UNL     1       0.925  -0.080  22.900  0.00  0.00    +0.015 A 
ATOM     23  C   UNL     1       1.933   2.046  23.450  0.00  0.00    +0.015 A 
ATOM     24  C   UNL     1       2.189  -0.613  22.644  0.00  0.00    +0.046 A 
ATOM     25  C   UNL     1       3.197   1.514  23.195  0.00  0.00    +0.046 A 
ATOM     27  C   UNL     1       3.325   0.184  22.792  0.00  0.00    +0.120 A 
BRANCH  27   4
ATOM      4  O   UNL     1       4.557  -0.334  22.540  0.00  0.00    -0.495 OA
ATOM     28  C   UNL     1       5.562  -0.133  23.533  0.00  0.00    +0.277 C 
ENDBRANCH  27   4
ENDBRANCH  15  18
ENDBRANCH  10  12
ENDBRANCH   7  10
TORSDOF 8
ENDMDL
MODEL 3
REMARK VINA RESULT:      -1.2      1.951      3.941
REMARK  Name = 71694098
REMARK  10 active torsions:
REMARK  status: ('A' for Active; 'I' for Inactive)
REMARK    1  A    between atoms: O_3  and  C_16
REMARK    2  A    between atoms: O_3  and  C_26
REMARK    3  A    between atoms: O_4  and  C_27
REMARK    4  A    between atoms: O_4  and  C_28
REMARK    5  A    between atoms: N_5  and  C_7
REMARK    6  A    between atoms: N_5  and  C_11
REMARK    7  A    between atoms: C_7  and  C_10
REMARK    8  A    between atoms: C_10  and  C_12
REMARK    9  A    between atoms: C_11  and  C_13
REMARK   10  A    between atoms: C_15  and  C_18
REMARK                            x       y       z     vdW  Elec       q    Type
REMARK                         _______ _______ _______ _____ _____    ______ ____
ROOT
ATOM      1  O   UNL     1      -7.177   1.595  25.959  0.00  0.00    -0.376 OA
ATOM      7  C   UNL     1      -5.185   1.528  25.191  0.00  0.00    +0.072 C 
ATOM      8  C   UNL     1      -5.864   1.818  26.536  0.00  0.00    +0.184 C 
ATOM      9  C   UNL     1      -6.608   1.599  24.624  0.00  0.00    +0.184 C 
ENDROOT
BRANCH   7   5
ATOM      5  N   UNL     1      -4.459   2.729  24.766  0.00  0.00    -0.302 NA
ATOM     29  H   UNL     1      -3.849   2.613  23.959  0.00  0.00    +0.123 HD
BRANCH   5  11
ATOM     11  C   UNL     1      -3.712   3.268  25.896  0.00  0.00    +0.120 C 
BRANCH  11  13
ATOM     13  C   UNL     1      -2.513   4.062  25.448  0.00  0.00    +0.008 A 
ATOM     16  C   UNL     1      -1.220   3.590  25.676  0.00  0.00    +0.124 A 
ATOM     17  C   UNL     1      -2.707   5.281  24.799  0.00  0.00    +0.008 A 
ATOM     19  C   UNL     1      -0.121   4.338  25.254  0.00  0.00    +0.046 A 
ATOM     20  C   UNL     1      -1.607   6.029  24.377  0.00  0.00    +0.001 A 
ATOM     21  C   UNL     1      -0.314   5.557  24.605  0.00  0.00    +0.004 A 
BRANCH  16   3
ATOM      3  O   UNL     1      -1.013   2.401  26.308  0.00  0.00    -0.495 OA
ATOM     26  C   UNL     1       0.228   2.238  26.991  0.00  0.00    +0.277 C 
ENDBRANCH  16   3
ENDBRANCH  11  13
ENDBRANCH   5  11
ENDBRANCH   7   5
BRANCH   7  10
ATOM     10  C   UNL     1      -4.390   0.260  25.021  0.00  0.00    +0.085 C 
BRANCH  10  12
ATOM      2  O   UNL     1      -1.822   1.334  22.721  0.00  0.00    -0.354 OA
ATOM      6  N   UNL     1      -3.140   1.287  23.158  0.00  0.00    -0.083 NA
ATOM     12  C   UNL     1      -3.112   0.533  24.262  0.00  0.00    +0.086 A 
ATOM     14  C   UNL     1      -1.816   0.083  24.567  0.00  0.00    +0.076 A 
ATOM     15  C   UNL     1      -1.043   0.614  23.568  0.00  0.00    +0.167 A 
BRANCH  15  18
ATOM     18  C   UNL     1       0.353   0.571  23.245  0.00  0.00    +0.020 A 
ATOM     22  C   UNL     1       0.842  -0.416  22.389  0.00  0.00    +0.015 A 
ATOM     23  C   UNL     1       1.224   1.517  23.789  0.00  0.00    +0.015 A 
ATOM     24  C   UNL     1       2.200  -0.457  22.075  0.00  0.00    +0.046 A 
ATOM     25  C   UNL     1       2.582   1.476  23.475  0.00  0.00    +0.046 A 
ATOM     27  C   UNL     1       3.070   0.489  22.618  0.00  0.00    +0.120 A 
BRANCH  27   4
ATOM      4  O   UNL     1       4.395   0.451  22.309  0.00  0.00    -0.495 OA
ATOM     28  C   UNL     1       5.296   0.102  23.359  0.00  0.00    +0.277 C 
ENDBRANCH  27   4
ENDBRANCH  15  18
ENDBRANCH  10  12
ENDBRANCH   7  10
TORSDOF 8
ENDMDL
MODEL 4
REMARK VINA RESULT:      -0.9     15.619     17.494
REMARK  Name = 71694098
REMARK  10 active torsions:
REMARK  status: ('A' for Active; 'I' for Inactive)
REMARK    1  A    between atoms: O_3  and  C_16
REMARK    2  A    between atoms: O_3  and  C_26
REMARK    3  A    between atoms: O_4  and  C_27
REMARK    4  A    between atoms: O_4  and  C_28
REMARK    5  A    between atoms: N_5  and  C_7
REMARK    6  A    between atoms: N_5  and  C_11
REMARK    7  A    between atoms: C_7  and  C_10
REMARK    8  A    between atoms: C_10  and  C_12
REMARK    9  A    between atoms: C_11  and  C_13
REMARK   10  A    between atoms: C_15  and  C_18
REMARK                            x       y       z     vdW  Elec       q    Type
REMARK                         _______ _______ _______ _____ _____    ______ ____
ROOT
ATOM      1  O   UNL     1      -5.696  -9.017  12.601  0.00  0.00    -0.376 OA
ATOM      7  C   UNL     1      -6.020  -9.788  10.636  0.00  0.00    +0.072 C 
ATOM      8  C   UNL     1      -6.129  -8.432  11.346  0.00  0.00    +0.184 C 
ATOM      9  C   UNL     1      -5.855 -10.352  12.053  0.00  0.00    +0.184 C 
ENDROOT
BRANCH   7   5
ATOM      5  N   UNL     1      -7.348 -10.165  10.142  0.00  0.00    -0.302 NA
ATOM     29  H   UNL     1      -7.608 -11.140  10.276  0.00  0.00    +0.123 HD
BRANCH   5  11
ATOM     11  C   UNL     1      -7.464  -9.795   8.736  0.00  0.00    +0.120 C 
BRANCH  11  13
ATOM     13  C   UNL     1      -8.309  -8.562   8.549  0.00  0.00    +0.008 A 
ATOM     16  C   UNL     1      -9.701  -8.638   8.593  0.00  0.00    +0.124 A 
ATOM     17  C   UNL     1      -7.684  -7.334   8.330  0.00  0.00    +0.008 A 
ATOM     19  C   UNL     1     -10.468  -7.487   8.418  0.00  0.00    +0.046 A 
ATOM     20  C   UNL     1      -8.451  -6.183   8.155  0.00  0.00    +0.001 A 
ATOM     21  C   UNL     1      -9.843  -6.259   8.199  0.00  0.00    +0.004 A 
BRANCH  16   3
ATOM      3  O   UNL     1     -10.327  -9.829   8.808  0.00  0.00    -0.495 OA
ATOM     26  C   UNL     1     -10.580 -10.193  10.164  0.00  0.00    +0.277 C 
ENDBRANCH  16   3
ENDBRANCH  11  13
ENDBRANCH   5  11
ENDBRANCH   7   5
BRANCH   7  10
ATOM     10  C   UNL     1      -4.924 -10.010   9.626  0.00  0.00    +0.085 C 
BRANCH  10  12
ATOM      2  O   UNL     1      -1.819 -10.285  11.448  0.00  0.00    -0.354 OA
ATOM      6  N   UNL     1      -3.048 -10.781  11.030  0.00  0.00    -0.083 NA
ATOM     12  C   UNL     1      -3.568  -9.816  10.265  0.00  0.00    +0.086 A 
ATOM     14  C   UNL     1      -2.720  -8.701  10.163  0.00  0.00    +0.076 A 
ATOM     15  C   UNL     1      -1.635  -9.045  10.925  0.00  0.00    +0.167 A 
BRANCH  15  18
ATOM     18  C   UNL     1      -0.401  -8.402  11.269  0.00  0.00    +0.020 A 
ATOM     22  C   UNL     1      -0.394  -7.355  12.191  0.00  0.00    +0.015 A 
ATOM     23  C   UNL     1       0.793  -8.822  10.681  0.00  0.00    +0.015 A 
ATOM     24  C   UNL     1       0.807  -6.729  12.526  0.00  0.00    +0.046 A 
ATOM     25  C   UNL     1       1.993  -8.196  11.016  0.00  0.00    +0.046 A 
ATOM     27  C   UNL     1       2.001  -7.150  11.938  0.00  0.00    +0.120 A 
BRANCH  27   4
ATOM      4  O   UNL     1       3.172  -6.541  12.267  0.00  0.00    -0.495 OA
ATOM     28  C   UNL     1       4.358  -7.332  12.193  0.00  0.00    +0.277 C 
ENDBRANCH  27   4
ENDBRANCH  15  18
ENDBRANCH  10  12
ENDBRANCH   7  10
TORSDOF 8
ENDMDL
MODEL 5
REMARK VINA RESULT:      -0.1      1.836      4.347
REMARK  Name = 71694098
REMARK  10 active torsions:
REMARK  status: ('A' for Active; 'I' for Inactive)
REMARK    1  A    between atoms: O_3  and  C_16
REMARK    2  A    between atoms: O_3  and  C_26
REMARK    3  A    between atoms: O_4  and  C_27
REMARK    4  A    between atoms: O_4  and  C_28
REMARK    5  A    between atoms: N_5  and  C_7
REMARK    6  A    between atoms: N_5  and  C_11
REMARK    7  A    between atoms: C_7  and  C_10
REMARK    8  A    between atoms: C_10  and  C_12
REMARK    9  A    between atoms: C_11  and  C_13
REMARK   10  A    between atoms: C_15  and  C_18
REMARK                            x       y       z     vdW  Elec       q    Type
REMARK                         _______ _______ _______ _____ _____    ______ ____
ROOT
ATOM      1  O   UNL     1      -3.529  -2.361  25.379  0.00  0.00    -0.376 OA
ATOM      7  C   UNL     1      -3.474  -0.519  24.298  0.00  0.00    +0.072 C 
ATOM      8  C   UNL     1      -2.840  -1.099  25.570  0.00  0.00    +0.184 C 
ATOM      9  C   UNL     1      -4.363  -1.768  24.349  0.00  0.00    +0.184 C 
ENDROOT
BRANCH   7   5
ATOM      5  N   UNL     1      -4.288   0.642  24.670  0.00  0.00    -0.302 NA
ATOM     29  H   UNL     1      -5.292   0.478  24.721  0.00  0.00    +0.123 HD
BRANCH   5  11
ATOM     11  C   UNL     1      -3.998   1.746  23.763  0.00  0.00    +0.120 C 
BRANCH  11  13
ATOM     13  C   UNL     1      -3.079   2.760  24.392  0.00  0.00    +0.008 A 
ATOM     16  C   UNL     1      -3.494   3.515  25.489  0.00  0.00    +0.124 A 
ATOM     17  C   UNL     1      -1.799   2.940  23.866  0.00  0.00    +0.008 A 
ATOM     19  C   UNL     1      -2.631   4.450  26.060  0.00  0.00    +0.046 A 
ATOM     20  C   UNL     1      -0.935   3.875  24.437  0.00  0.00    +0.001 A 
ATOM     21  C   UNL     1      -1.351   4.629  25.534  0.00  0.00    +0.004 A 
BRANCH  16   3
ATOM      3  O   UNL     1      -4.740   3.352  26.016  0.00  0.00    -0.495 OA
ATOM     26  C   UNL     1      -5.755   4.249  25.571  0.00  0.00    +0.277 C 
ENDBRANCH  16   3
ENDBRANCH  11  13
ENDBRANCH   5  11
ENDBRANCH   7   5
BRANCH   7  10
ATOM     10  C   UNL     1      -2.614  -0.280  23.084  0.00  0.00    +0.085 C 
BRANCH  10  12
ATOM      2  O   UNL     1       0.579  -1.291  24.431  0.00  0.00    -0.354 OA
ATOM      6  N   UNL     1      -0.808  -1.341  24.388  0.00  0.00    -0.083 NA
ATOM     12  C   UNL     1      -1.155  -0.488  23.419  0.00  0.00    +0.086 A 
ATOM     14  C   UNL     1      -0.039   0.121  22.820  0.00  0.00    +0.076 A 
ATOM     15  C   UNL     1       1.026  -0.417  23.492  0.00  0.00    +0.167 A 
BRANCH  15  18
ATOM     18  C   UNL     1       2.449  -0.260  23.416  0.00  0.00    +0.020 A 
ATOM     22  C   UNL     1       2.994   0.926  22.923  0.00  0.00    +0.015 A 
ATOM     23  C   UNL     1       3.289  -1.293  23.833  0.00  0.00    +0.015 A 
ATOM     24  C   UNL     1       4.379   1.079  22.849  0.00  0.00    +0.046 A 
ATOM     25  C   UNL     1       4.673  -1.141  23.759  0.00  0.00    +0.046 A 
ATOM     27  C   UNL     1       5.218   0.045  23.267  0.00  0.00    +0.120 A 
BRANCH  27   4
ATOM      4  O   UNL     1       6.568   0.196  23.197  0.00  0.00    -0.495 OA
ATOM     28  C   UNL     1       7.320  -0.908  22.695  0.00  0.00    +0.277 C 
ENDBRANCH  27   4
ENDBRANCH  15  18
ENDBRANCH  10  12
ENDBRANCH   7  10
TORSDOF 8
ENDMDL
MODEL 6
REMARK VINA RESULT:       0.2      1.761      4.166
REMARK  Name = 71694098
REMARK  10 active torsions:
REMARK  status: ('A' for Active; 'I' for Inactive)
REMARK    1  A    between atoms: O_3  and  C_16
REMARK    2  A    between atoms: O_3  and  C_26
REMARK    3  A    between atoms: O_4  and  C_27
REMARK    4  A    between atoms: O_4  and  C_28
REMARK    5  A    between atoms: N_5  and  C_7
REMARK    6  A    between atoms: N_5  and  C_11
REMARK    7  A    between atoms: C_7  and  C_10
REMARK    8  A    between atoms: C_10  and  C_12
REMARK    9  A    between atoms: C_11  and  C_13
REMARK   10  A    between atoms: C_15  and  C_18
REMARK                            x       y       z     vdW  Elec       q    Type
REMARK                         _______ _______ _______ _____ _____    ______ ____
ROOT
ATOM      1  O   UNL     1      -3.368  -3.115  24.275  0.00  0.00    -0.376 OA
ATOM      7  C   UNL     1      -2.777  -1.063  24.343  0.00  0.00    +0.072 C 
ATOM      8  C   UNL     1      -2.142  -2.429  24.635  0.00  0.00    +0.184 C 
ATOM      9  C   UNL     1      -4.089  -1.855  24.267  0.00  0.00    +0.184 C 
ENDROOT
BRANCH   7   5
ATOM      5  N   UNL     1      -2.784  -0.277  25.581  0.00  0.00    -0.302 NA
ATOM     29  H   UNL     1      -3.648  -0.309  26.119  0.00  0.00    +0.123 HD
BRANCH   5  11
ATOM     11  C   UNL     1      -2.422   1.103  25.280  0.00  0.00    +0.120 C 
BRANCH  11  13
ATOM     13  C   UNL     1      -3.606   2.028  25.380  0.00  0.00    +0.008 A 
ATOM     16  C   UNL     1      -3.438   3.365  25.738  0.00  0.00    +0.124 A 
ATOM     17  C   UNL     1      -4.883   1.533  25.111  0.00  0.00    +0.008 A 
ATOM     19  C   UNL     1      -4.545   4.208  25.826  0.00  0.00    +0.046 A 
ATOM     20  C   UNL     1      -5.990   2.376  25.200  0.00  0.00    +0.001 A 
ATOM     21  C   UNL     1      -5.822   3.713  25.557  0.00  0.00    +0.004 A 
BRANCH  16   3
ATOM      3  O   UNL     1      -2.198   3.865  26.002  0.00  0.00    -0.495 OA
ATOM     26  C   UNL     1      -1.706   4.876  25.124  0.00  0.00    +0.277 C 
ENDBRANCH  16   3
ENDBRANCH  11  13
ENDBRANCH   5  11
ENDBRANCH   7   5
BRANCH   7  10
ATOM     10  C   UNL     1      -2.325  -0.277  23.141  0.00  0.00    +0.085 C 
BRANCH  10  12
ATOM      2  O   UNL     1       0.808   1.428  23.703  0.00  0.00    -0.354 OA
ATOM      6  N   UNL     1      -0.581   1.388  23.663  0.00  0.00    -0.083 NA
ATOM     12  C   UNL     1      -0.879   0.139  23.292  0.00  0.00    +0.086 A 
ATOM     14  C   UNL     1       0.268  -0.646  23.089  0.00  0.00    +0.076 A 
ATOM     15  C   UNL     1       1.302   0.211  23.360  0.00  0.00    +0.167 A 
BRANCH  15  18
ATOM     18  C   UNL     1       2.731   0.097  23.359  0.00  0.00    +0.020 A 
ATOM     22  C   UNL     1       3.514   1.149  22.886  0.00  0.00    +0.015 A 
ATOM     23  C   UNL     1       3.338  -1.068  23.831  0.00  0.00    +0.015 A 
ATOM     24  C   UNL     1       4.905   1.038  22.886  0.00  0.00    +0.046 A 
ATOM     25  C   UNL     1       4.728  -1.179  23.830  0.00  0.00    +0.046 A 
ATOM     27  C   UNL     1       5.512  -0.126  23.358  0.00  0.00    +0.120 A 
BRANCH  27   4
ATOM      4  O   UNL     1       6.868  -0.233  23.360  0.00  0.00    -0.495 OA
ATOM     28  C   UNL     1       7.453  -1.087  22.378  0.00  0.00    +0.277 C 
ENDBRANCH  27   4
ENDBRANCH  15  18
ENDBRANCH  10  12
ENDBRANCH   7  10
TORSDOF 8
ENDMDL
MODEL 7
REMARK VINA RESULT:       0.2      1.955      3.749
REMARK  Name = 71694098
REMARK  10 active torsions:
REMARK  status: ('A' for Active; 'I' for Inactive)
REMARK    1  A    between atoms: O_3  and  C_16
REMARK    2  A    between atoms: O_3  and  C_26
REMARK    3  A    between atoms: O_4  and  C_27
REMARK    4  A    between atoms: O_4  and  C_28
REMARK    5  A    between atoms: N_5  and  C_7
REMARK    6  A    between atoms: N_5  and  C_11
REMARK    7  A    between atoms: C_7  and  C_10
REMARK    8  A    between atoms: C_10  and  C_12
REMARK    9  A    between atoms: C_11  and  C_13
REMARK   10  A    between atoms: C_15  and  C_18
REMARK                            x       y       z     vdW  Elec       q    Type
REMARK                         _______ _______ _______ _____ _____    ______ ____
ROOT
ATOM      1  O   UNL     1      -7.156   1.679  25.942  0.00  0.00    -0.376 OA
ATOM      7  C   UNL     1      -5.185   1.596  25.120  0.00  0.00    +0.072 C 
ATOM      8  C   UNL     1      -5.822   1.798  26.502  0.00  0.00    +0.184 C 
ATOM      9  C   UNL     1      -6.617   1.773  24.597  0.00  0.00    +0.184 C 
ENDROOT
BRANCH   7   5
ATOM      5  N   UNL     1      -4.418   2.798  24.779  0.00  0.00    -0.302 NA
ATOM     29  H   UNL     1      -3.708   2.679  24.060  0.00  0.00    +0.123 HD
BRANCH   5  11
ATOM     11  C   UNL     1      -3.828   3.356  25.991  0.00  0.00    +0.120 C 
BRANCH  11  13
ATOM     13  C   UNL     1      -2.325   3.398  25.913  0.00  0.00    +0.008 A 
ATOM     16  C   UNL     1      -1.679   4.329  25.099  0.00  0.00    +0.124 A 
ATOM     17  C   UNL     1      -1.577   2.494  26.667  0.00  0.00    +0.008 A 
ATOM     19  C   UNL     1      -0.286   4.355  25.038  0.00  0.00    +0.046 A 
ATOM     20  C   UNL     1      -0.184   2.520  26.607  0.00  0.00    +0.001 A 
ATOM     21  C   UNL     1       0.462   3.450  25.792  0.00  0.00    +0.004 A 
BRANCH  16   3
ATOM      3  O   UNL     1      -2.394   5.221  24.357  0.00  0.00    -0.495 OA
ATOM     26  C   UNL     1      -2.056   6.599  24.499  0.00  0.00    +0.277 C 
ENDBRANCH  16   3
ENDBRANCH  11  13
ENDBRANCH   5  11
ENDBRANCH   7   5
BRANCH   7  10
ATOM     10  C   UNL     1      -4.449   0.316  24.824  0.00  0.00    +0.085 C 
BRANCH  10  12
ATOM      2  O   UNL     1      -1.785   1.505  22.698  0.00  0.00    -0.354 OA
ATOM      6  N   UNL     1      -3.112   1.478  23.107  0.00  0.00    -0.083 NA
ATOM     12  C   UNL     1      -3.144   0.605  24.119  0.00  0.00    +0.086 A 
ATOM     14  C   UNL     1      -1.879   0.057  24.391  0.00  0.00    +0.076 A 
ATOM     15  C   UNL     1      -1.060   0.655  23.470  0.00  0.00    +0.167 A 
BRANCH  15  18
ATOM     18  C   UNL     1       0.339   0.577  23.164  0.00  0.00    +0.020 A 
ATOM     22  C   UNL     1       1.234   1.463  23.762  0.00  0.00    +0.015 A 
ATOM     23  C   UNL     1       0.804  -0.387  22.268  0.00  0.00    +0.015 A 
ATOM     24  C   UNL     1       2.595   1.386  23.466  0.00  0.00    +0.046 A 
ATOM     25  C   UNL     1       2.164  -0.463  21.971  0.00  0.00    +0.046 A 
ATOM     27  C   UNL     1       3.060   0.423  22.570  0.00  0.00    +0.120 A 
BRANCH  27   4
ATOM      4  O   UNL     1       4.387   0.346  22.282  0.00  0.00    -0.495 OA
ATOM     28  C   UNL     1       5.272   0.068  23.367  0.00  0.00    +0.277 C 
ENDBRANCH  27   4
ENDBRANCH  15  18
ENDBRANCH  10  12
ENDBRANCH   7  10
TORSDOF 8
ENDMDL
MODEL 8
REMARK VINA RESULT:       0.6     15.219     17.114
REMARK  Name = 71694098
REMARK  10 active torsions:
REMARK  status: ('A' for Active; 'I' for Inactive)
REMARK    1  A    between atoms: O_3  and  C_16
REMARK    2  A    between atoms: O_3  and  C_26
REMARK    3  A    between atoms: O_4  and  C_27
REMARK    4  A    between atoms: O_4  and  C_28
REMARK    5  A    between atoms: N_5  and  C_7
REMARK    6  A    between atoms: N_5  and  C_11
REMARK    7  A    between atoms: C_7  and  C_10
REMARK    8  A    between atoms: C_10  and  C_12
REMARK    9  A    between atoms: C_11  and  C_13
REMARK   10  A    between atoms: C_15  and  C_18
REMARK                            x       y       z     vdW  Elec       q    Type
REMARK                         _______ _______ _______ _____ _____    ______ ____
ROOT
ATOM      1  O   UNL     1      -5.098  -9.429  13.450  0.00  0.00    -0.376 OA
ATOM      7  C   UNL     1      -5.478 -10.248  11.514  0.00  0.00    +0.072 C 
ATOM      8  C   UNL     1      -5.676  -8.904  12.227  0.00  0.00    +0.184 C 
ATOM      9  C   UNL     1      -5.159 -10.779  12.918  0.00  0.00    +0.184 C 
ENDROOT
BRANCH   7   5
ATOM      5  N   UNL     1      -6.792 -10.763  11.115  0.00  0.00    -0.302 NA
ATOM     29  H   UNL     1      -6.860 -11.103  10.158  0.00  0.00    +0.123 HD
BRANCH   5  11
ATOM     11  C   UNL     1      -7.807  -9.747  11.369  0.00  0.00    +0.120 C 
BRANCH  11  13
ATOM     13  C   UNL     1      -8.811  -9.666  10.250  0.00  0.00    +0.008 A 
ATOM     16  C   UNL     1      -8.778  -8.611   9.338  0.00  0.00    +0.124 A 
ATOM     17  C   UNL     1      -9.780 -10.662  10.129  0.00  0.00    +0.008 A 
ATOM     19  C   UNL     1      -9.716  -8.551   8.307  0.00  0.00    +0.046 A 
ATOM     20  C   UNL     1     -10.717 -10.603   9.098  0.00  0.00    +0.001 A 
ATOM     21  C   UNL     1     -10.685  -9.547   8.187  0.00  0.00    +0.004 A 
BRANCH  16   3
ATOM      3  O   UNL     1      -7.838  -7.630   9.440  0.00  0.00    -0.495 OA
ATOM     26  C   UNL     1      -7.377  -7.046   8.223  0.00  0.00    +0.277 C 
ENDBRANCH  16   3
ENDBRANCH  11  13
ENDBRANCH   5  11
ENDBRANCH   7   5
BRANCH   7  10
ATOM     10  C   UNL     1      -4.438 -10.367  10.431  0.00  0.00    +0.085 C 
BRANCH  10  12
ATOM      2  O   UNL     1      -1.276 -10.180  12.164  0.00  0.00    -0.354 OA
ATOM      6  N   UNL     1      -2.501 -10.781  11.902  0.00  0.00    -0.083 NA
ATOM     12  C   UNL     1      -3.070 -10.012  10.968  0.00  0.00    +0.086 A 
ATOM     14  C   UNL     1      -2.258  -8.925  10.604  0.00  0.00    +0.076 A 
ATOM     15  C   UNL     1      -1.142  -9.076  11.385  0.00  0.00    +0.167 A 
BRANCH  15  18
ATOM     18  C   UNL     1       0.082  -8.347  11.544  0.00  0.00    +0.020 A 
ATOM     22  C   UNL     1       0.145  -7.274  12.432  0.00  0.00    +0.015 A 
ATOM     23  C   UNL     1       1.210  -8.711  10.808  0.00  0.00    +0.015 A 
ATOM     24  C   UNL     1       1.336  -6.566  12.587  0.00  0.00    +0.046 A 
ATOM     25  C   UNL     1       2.402  -8.002  10.962  0.00  0.00    +0.046 A 
ATOM     27  C   UNL     1       2.465  -6.929  11.851  0.00  0.00    +0.120 A 
BRANCH  27   4
ATOM      4  O   UNL     1       3.627  -6.240  12.004  0.00  0.00    -0.495 OA
ATOM     28  C   UNL     1       4.813  -7.004  12.220  0.00  0.00    +0.277 C 
ENDBRANCH  27   4
ENDBRANCH  15  18
ENDBRANCH  10  12
ENDBRANCH   7  10
TORSDOF 8
ENDMDL
MODEL 9
REMARK VINA RESULT:       1.0      2.156      7.313
REMARK  Name = 71694098
REMARK  10 active torsions:
REMARK  status: ('A' for Active; 'I' for Inactive)
REMARK    1  A    between atoms: O_3  and  C_16
REMARK    2  A    between atoms: O_3  and  C_26
REMARK    3  A    between atoms: O_4  and  C_27
REMARK    4  A    between atoms: O_4  and  C_28
REMARK    5  A    between atoms: N_5  and  C_7
REMARK    6  A    between atoms: N_5  and  C_11
REMARK    7  A    between atoms: C_7  and  C_10
REMARK    8  A    between atoms: C_10  and  C_12
REMARK    9  A    between atoms: C_11  and  C_13
REMARK   10  A    between atoms: C_15  and  C_18
REMARK                            x       y       z     vdW  Elec       q    Type
REMARK                         _______ _______ _______ _____ _____    ______ ____
ROOT
ATOM      1  O   UNL     1       4.759   0.085  22.919  0.00  0.00    -0.376 OA
ATOM      7  C   UNL     1       2.669   0.508  22.788  0.00  0.00    +0.072 C 
ATOM      8  C   UNL     1       3.930   0.795  21.963  0.00  0.00    +0.184 C 
ATOM      9  C   UNL     1       3.657   0.041  23.864  0.00  0.00    +0.184 C 
ENDROOT
BRANCH   7   5
ATOM      5  N   UNL     1       2.090   1.785  23.216  0.00  0.00    -0.302 NA
ATOM     29  H   UNL     1       2.731   2.575  23.238  0.00  0.00    +0.123 HD
BRANCH   5  11
ATOM     11  C   UNL     1       1.448   1.613  24.514  0.00  0.00    +0.120 C 
BRANCH  11  13
ATOM     13  C   UNL     1       0.407   2.672  24.769  0.00  0.00    +0.008 A 
ATOM     16  C   UNL     1      -0.289   2.711  25.977  0.00  0.00    +0.124 A 
ATOM     17  C   UNL     1       0.144   3.620  23.780  0.00  0.00    +0.008 A 
ATOM     19  C   UNL     1      -1.250   3.698  26.196  0.00  0.00    +0.046 A 
ATOM     20  C   UNL     1      -0.817   4.608  23.999  0.00  0.00    +0.001 A 
ATOM     21  C   UNL     1      -1.513   4.647  25.207  0.00  0.00    +0.004 A 
BRANCH  16   3
ATOM      3  O   UNL     1      -0.044   1.793  26.953  0.00  0.00    -0.495 OA
ATOM     26  C   UNL     1       0.670   2.246  28.103  0.00  0.00    +0.277 C 
ENDBRANCH  16   3
ENDBRANCH  11  13
ENDBRANCH   5  11
ENDBRANCH   7   5
BRANCH   7  10
ATOM     10  C   UNL     1       1.644  -0.464  22.262  0.00  0.00    +0.085 C 
BRANCH  10  12
ATOM      2  O   UNL     1      -1.070  -0.836  24.613  0.00  0.00    -0.354 OA
ATOM      6  N   UNL     1       0.182  -1.177  24.116  0.00  0.00    -0.083 NA
ATOM     12  C   UNL     1       0.367  -0.374  23.064  0.00  0.00    +0.086 A 
ATOM     14  C   UNL     1      -0.723   0.487  22.852  0.00  0.00    +0.076 A 
ATOM     15  C   UNL     1      -1.599   0.156  23.852  0.00  0.00    +0.167 A 
BRANCH  15  18
ATOM     18  C   UNL     1      -2.898   0.618  24.247  0.00  0.00    +0.020 A 
ATOM     22  C   UNL     1      -3.724  -0.199  25.019  0.00  0.00    +0.015 A 
ATOM     23  C   UNL     1      -3.336   1.884  23.857  0.00  0.00    +0.015 A 
ATOM     24  C   UNL     1      -4.987   0.250  25.404  0.00  0.00    +0.046 A 
ATOM     25  C   UNL     1      -4.600   2.333  24.241  0.00  0.00    +0.046 A 
ATOM     27  C   UNL     1      -5.425   1.516  25.014  0.00  0.00    +0.120 A 
BRANCH  27   4
ATOM      4  O   UNL     1      -6.656   1.956  25.391  0.00  0.00    -0.495 OA
ATOM     28  C   UNL     1      -6.937   1.978  26.790  0.00  0.00    +0.277 C 
ENDBRANCH  27   4
ENDBRANCH  15  18
ENDBRANCH  10  12
ENDBRANCH   7  10
TORSDOF 8
ENDMDL
