MODEL 1
REMARK VINA RESULT:      -3.7      0.000      0.000
REMARK  Name = 75536985
REMARK  3 active torsions:
REMARK  status: ('A' for Active; 'I' for Inactive)
REMARK    1  A    between atoms: N_5  and  C_13
REMARK    2  A    between atoms: C_13  and  C_15
REMARK    3  A    between atoms: C_14  and  C_16
REMARK                            x       y       z     vdW  Elec       q    Type
REMARK                         _______ _______ _______ _____ _____    ______ ____
ROOT
ATOM      2  O   UNL     1      -0.895  -1.849  23.880  0.00  0.00    -0.252 OA
ATOM      3  O   UNL     1      -4.282   3.679  26.413  0.00  0.00    -0.276 OA
ATOM      4  N   UNL     1      -1.307   0.372  24.525  0.00  0.00    -0.278 N 
ATOM      5  N   UNL     1       0.499  -0.052  23.257  0.00  0.00    -0.279 N 
ATOM      6  N   UNL     1      -2.787   2.693  24.935  0.00  0.00    -0.298 N 
ATOM      7  C   UNL     1      -0.622   1.649  24.427  0.00  0.00    +0.112 C 
ATOM      8  C   UNL     1       0.475   1.395  23.396  0.00  0.00    +0.133 C 
ATOM      9  C   UNL     1      -1.606   2.755  24.053  0.00  0.00    +0.131 C 
ATOM     10  C   UNL     1      -2.523   0.266  25.310  0.00  0.00    +0.128 C 
ATOM     11  C   UNL     1      -3.481   1.396  24.942  0.00  0.00    +0.127 C 
ATOM     12  C   UNL     1      -0.603  -0.660  23.889  0.00  0.00    +0.306 C 
ATOM     14  C   UNL     1      -3.276   3.748  25.703  0.00  0.00    +0.213 C 
ATOM     16  C   UNL     1      -2.504   5.041  25.640  0.00  0.00    +0.109 C 
ENDROOT
BRANCH   5  13
ATOM     13  C   UNL     1       1.482  -0.727  22.439  0.00  0.00    +0.144 C 
BRANCH  13  15
ATOM      1  F   UNL     1       6.739   0.337  24.155  0.00  0.00    -0.205 F 
ATOM     15  C   UNL     1       2.884  -0.443  22.897  0.00  0.00    -0.030 A 
ATOM     17  C   UNL     1       3.478   0.784  22.604  0.00  0.00    +0.008 A 
ATOM     18  C   UNL     1       3.592  -1.407  23.615  0.00  0.00    +0.008 A 
ATOM     19  C   UNL     1       4.780   1.048  23.028  0.00  0.00    +0.038 A 
ATOM     20  C   UNL     1       4.895  -1.143  24.039  0.00  0.00    +0.038 A 
ATOM     21  C   UNL     1       5.488   0.084  23.746  0.00  0.00    +0.123 A 
ENDBRANCH  13  15
ENDBRANCH   5  13
TORSDOF 2
ENDMDL
MODEL 2
REMARK VINA RESULT:      -3.7      0.009      1.055
REMARK  Name = 75536985
REMARK  3 active torsions:
REMARK  status: ('A' for Active; 'I' for Inactive)
REMARK    1  A    between atoms: N_5  and  C_13
REMARK    2  A    between atoms: C_13  and  C_15
REMARK    3  A    between atoms: C_14  and  C_16
REMARK                            x       y       z     vdW  Elec       q    Type
REMARK                         _______ _______ _______ _____ _____    ______ ____
ROOT
ATOM      2  O   UNL     1      -0.899  -1.846  23.880  0.00  0.00    -0.252 OA
ATOM      3  O   UNL     1      -4.274   3.693  26.407  0.00  0.00    -0.276 OA
ATOM      4  N   UNL     1      -1.306   0.377  24.524  0.00  0.00    -0.278 N 
ATOM      5  N   UNL     1       0.501  -0.053  23.260  0.00  0.00    -0.279 N 
ATOM      6  N   UNL     1      -2.779   2.703  24.932  0.00  0.00    -0.298 N 
ATOM      7  C   UNL     1      -0.616   1.652  24.427  0.00  0.00    +0.112 C 
ATOM      8  C   UNL     1       0.481   1.394  23.398  0.00  0.00    +0.133 C 
ATOM      9  C   UNL     1      -1.596   2.761  24.051  0.00  0.00    +0.131 C 
ATOM     10  C   UNL     1      -2.524   0.275  25.308  0.00  0.00    +0.128 C 
ATOM     11  C   UNL     1      -3.477   1.408  24.937  0.00  0.00    +0.127 C 
ATOM     12  C   UNL     1      -0.604  -0.657  23.890  0.00  0.00    +0.306 C 
ATOM     14  C   UNL     1      -3.266   3.759  25.698  0.00  0.00    +0.213 C 
ATOM     16  C   UNL     1      -2.490   5.050  25.637  0.00  0.00    +0.109 C 
ENDROOT
BRANCH   5  13
ATOM     13  C   UNL     1       1.484  -0.731  22.443  0.00  0.00    +0.144 C 
BRANCH  13  15
ATOM      1  F   UNL     1       6.742   0.341  24.148  0.00  0.00    -0.205 F 
ATOM     15  C   UNL     1       2.886  -0.445  22.899  0.00  0.00    -0.030 A 
ATOM     17  C   UNL     1       3.596  -1.408  23.615  0.00  0.00    +0.008 A 
ATOM     18  C   UNL     1       3.478   0.784  22.604  0.00  0.00    +0.008 A 
ATOM     19  C   UNL     1       4.898  -1.142  24.038  0.00  0.00    +0.038 A 
ATOM     20  C   UNL     1       4.781   1.049  23.027  0.00  0.00    +0.038 A 
ATOM     21  C   UNL     1       5.490   0.087  23.743  0.00  0.00    +0.123 A 
ENDBRANCH  13  15
ENDBRANCH   5  13
TORSDOF 2
ENDMDL
MODEL 3
REMARK VINA RESULT:      -1.0      1.413      2.206
REMARK  Name = 75536985
REMARK  3 active torsions:
REMARK  status: ('A' for Active; 'I' for Inactive)
REMARK    1  A    between atoms: N_5  and  C_13
REMARK    2  A    between atoms: C_13  and  C_15
REMARK    3  A    between atoms: C_14  and  C_16
REMARK                            x       y       z     vdW  Elec       q    Type
REMARK                         _______ _______ _______ _____ _____    ______ ____
ROOT
ATOM      2  O   UNL     1       1.875   1.855  23.969  0.00  0.00    -0.252 OA
ATOM      3  O   UNL     1      -4.256   4.252  26.232  0.00  0.00    -0.276 OA
ATOM      4  N   UNL     1      -0.454   2.100  24.168  0.00  0.00    -0.278 N 
ATOM      5  N   UNL     1       0.340   0.333  23.028  0.00  0.00    -0.279 N 
ATOM      6  N   UNL     1      -2.887   2.551  25.440  0.00  0.00    -0.298 N 
ATOM      7  C   UNL     1      -1.637   1.448  23.635  0.00  0.00    +0.112 C 
ATOM      8  C   UNL     1      -1.101   0.143  23.051  0.00  0.00    +0.133 C 
ATOM      9  C   UNL     1      -2.687   1.273  24.729  0.00  0.00    +0.131 C 
ATOM     10  C   UNL     1      -0.591   3.316  24.948  0.00  0.00    +0.128 C 
ATOM     11  C   UNL     1      -1.665   3.131  26.017  0.00  0.00    +0.127 C 
ATOM     12  C   UNL     1       0.731   1.480  23.748  0.00  0.00    +0.306 C 
ATOM     14  C   UNL     1      -4.111   3.196  25.612  0.00  0.00    +0.213 C 
ATOM     16  C   UNL     1      -5.314   2.536  24.986  0.00  0.00    +0.109 C 
ENDROOT
BRANCH   5  13
ATOM     13  C   UNL     1       1.232  -0.642  22.442  0.00  0.00    +0.144 C 
BRANCH  13  15
ATOM      1  F   UNL     1       6.603   0.304  23.841  0.00  0.00    -0.205 F 
ATOM     15  C   UNL     1       2.664  -0.390  22.816  0.00  0.00    -0.030 A 
ATOM     17  C   UNL     1       3.334  -1.283  23.650  0.00  0.00    +0.008 A 
ATOM     18  C   UNL     1       3.324   0.738  22.327  0.00  0.00    +0.008 A 
ATOM     19  C   UNL     1       4.665  -1.049  23.998  0.00  0.00    +0.038 A 
ATOM     20  C   UNL     1       4.655   0.973  22.675  0.00  0.00    +0.038 A 
ATOM     21  C   UNL     1       5.325   0.079  23.509  0.00  0.00    +0.123 A 
ENDBRANCH  13  15
ENDBRANCH   5  13
TORSDOF 2
ENDMDL
MODEL 4
REMARK VINA RESULT:      -0.3      3.671      7.566
REMARK  Name = 75536985
REMARK  3 active torsions:
REMARK  status: ('A' for Active; 'I' for Inactive)
REMARK    1  A    between atoms: N_5  and  C_13
REMARK    2  A    between atoms: C_13  and  C_15
REMARK    3  A    between atoms: C_14  and  C_16
REMARK                            x       y       z     vdW  Elec       q    Type
REMARK                         _______ _______ _______ _____ _____    ______ ____
ROOT
ATOM      2  O   UNL     1      -1.898   2.548  24.283  0.00  0.00    -0.252 OA
ATOM      3  O   UNL     1       4.780   0.761  23.468  0.00  0.00    -0.276 OA
ATOM      4  N   UNL     1       0.014   1.189  24.133  0.00  0.00    -0.278 N 
ATOM      5  N   UNL     1      -2.004   0.200  24.098  0.00  0.00    -0.279 N 
ATOM      6  N   UNL     1       2.507   0.359  23.218  0.00  0.00    -0.298 N 
ATOM      7  C   UNL     1       0.304  -0.234  24.131  0.00  0.00    +0.112 C 
ATOM      8  C   UNL     1      -1.057  -0.883  23.892  0.00  0.00    +0.133 C 
ATOM      9  C   UNL     1       1.361  -0.560  23.079  0.00  0.00    +0.131 C 
ATOM     10  C   UNL     1       1.103   2.147  24.184  0.00  0.00    +0.128 C 
ATOM     11  C   UNL     1       2.161   1.787  23.144  0.00  0.00    +0.127 C 
ATOM     12  C   UNL     1      -1.363   1.451  24.187  0.00  0.00    +0.306 C 
ATOM     14  C   UNL     1       3.836  -0.027  23.379  0.00  0.00    +0.213 C 
ATOM     16  C   UNL     1       4.103  -1.510  23.448  0.00  0.00    +0.109 C 
ENDROOT
BRANCH   5  13
ATOM     13  C   UNL     1      -3.433  -0.017  24.068  0.00  0.00    +0.144 C 
BRANCH  13  15
ATOM      1  F   UNL     1      -6.295   4.551  25.696  0.00  0.00    -0.205 F 
ATOM     15  C   UNL     1      -4.196   1.202  24.502  0.00  0.00    -0.030 A 
ATOM     17  C   UNL     1      -4.092   2.385  23.773  0.00  0.00    +0.008 A 
ATOM     18  C   UNL     1      -5.010   1.149  25.635  0.00  0.00    +0.008 A 
ATOM     19  C   UNL     1      -4.800   3.517  24.176  0.00  0.00    +0.038 A 
ATOM     20  C   UNL     1      -5.718   2.281  26.038  0.00  0.00    +0.038 A 
ATOM     21  C   UNL     1      -5.614   3.464  25.309  0.00  0.00    +0.123 A 
ENDBRANCH  13  15
ENDBRANCH   5  13
TORSDOF 2
ENDMDL
