MODEL 1
REMARK VINA RESULT:       0.5      0.000      0.000
REMARK  Name = 26763461
REMARK  5 active torsions:
REMARK  status: ('A' for Active; 'I' for Inactive)
REMARK    1  A    between atoms: N_4  and  C_11
REMARK    2  A    between atoms: N_5  and  C_12
REMARK    3  A    between atoms: N_8  and  C_25
REMARK    4  A    between atoms: C_15  and  C_18
REMARK    5  A    between atoms: C_18  and  C_22
REMARK                            x       y       z     vdW  Elec       q    Type
REMARK                         _______ _______ _______ _____ _____    ______ ____
ROOT
ATOM      1  O   UNL     1      -3.949  -0.725  23.180  0.00  0.00    -0.370 OA
ATOM      2  O   UNL     1      -3.320  -2.054  25.936  0.00  0.00    -0.370 OA
ATOM      9  C   UNL     1      -3.282  -0.694  25.465  0.00  0.00    +0.175 C 
ATOM     10  C   UNL     1      -2.791  -0.732  24.031  0.00  0.00    +0.171 C 
ATOM     11  C   UNL     1      -4.692  -0.136  25.372  0.00  0.00    +0.166 C 
ATOM     12  C   UNL     1      -2.068  -2.055  23.923  0.00  0.00    +0.131 C 
ATOM     13  C   UNL     1      -5.128  -0.607  23.988  0.00  0.00    +0.190 C 
ATOM     14  C   UNL     1      -2.829  -2.924  24.906  0.00  0.00    +0.185 C 
ENDROOT
BRANCH  12   5
ATOM      3  O   UNL     1      -0.034  -0.605  22.519  0.00  0.00    -0.252 OA
ATOM      5  N   UNL     1      -0.682  -1.925  24.303  0.00  0.00    -0.292 N 
ATOM      8  N   UNL     1       1.509  -1.247  24.168  0.00  0.00    -0.269 N 
ATOM     24  C   UNL     1       0.252  -1.195  23.558  0.00  0.00    +0.304 C 
ATOM     31  H   UNL     1      -0.384  -2.328  25.186  0.00  0.00    +0.151 HD
ATOM     32  H   UNL     1       1.576  -1.784  25.030  0.00  0.00    +0.156 HD
BRANCH   8  25
ATOM     25  C   UNL     1       2.711  -0.642  23.731  0.00  0.00    +0.035 A 
ATOM     26  C   UNL     1       3.931  -1.281  23.950  0.00  0.00    +0.023 A 
ATOM     27  C   UNL     1       2.676   0.592  23.082  0.00  0.00    +0.023 A 
ATOM     28  C   UNL     1       5.117  -0.686  23.520  0.00  0.00    +0.002 A 
ATOM     29  C   UNL     1       3.861   1.187  22.652  0.00  0.00    +0.002 A 
ATOM     30  C   UNL     1       5.082   0.548  22.871  0.00  0.00    +0.000 A 
ENDBRANCH   8  25
ENDBRANCH  12   5
BRANCH  11   4
ATOM      4  N   UNL     1      -4.707   1.366  25.588  0.00  0.00    -0.244 N 
ATOM      6  N   UNL     1      -5.862   2.016  25.805  0.00  0.00    -0.065 NA
ATOM      7  N   UNL     1      -5.568   3.304  25.951  0.00  0.00    -0.134 NA
ATOM     19  C   UNL     1      -3.644   2.216  25.588  0.00  0.00    +0.134 A 
ATOM     22  C   UNL     1      -4.213   3.443  25.822  0.00  0.00    +0.083 A 
BRANCH  22  18
ATOM     18  C   UNL     1      -3.552   4.789  25.934  0.00  0.00    +0.062 C 
BRANCH  18  15
ATOM     15  C   UNL     1      -2.048   4.699  25.686  0.00  0.00    -0.005 C 
ATOM     16  C   UNL     1      -1.512   3.321  26.098  0.00  0.00    +0.004 C 
ATOM     17  C   UNL     1      -1.723   4.994  24.215  0.00  0.00    +0.004 C 
ATOM     20  C   UNL     1      -0.019   3.188  25.809  0.00  0.00    +0.000 C 
ATOM     21  C   UNL     1      -0.229   4.857  23.929  0.00  0.00    +0.000 C 
ATOM     23  C   UNL     1       0.301   3.490  24.348  0.00  0.00    +0.000 C 
ENDBRANCH  18  15
ENDBRANCH  22  18
ENDBRANCH  11   4
TORSDOF 5
ENDMDL
MODEL 2
REMARK VINA RESULT:       1.4      2.336      4.880
REMARK  Name = 26763461
REMARK  5 active torsions:
REMARK  status: ('A' for Active; 'I' for Inactive)
REMARK    1  A    between atoms: N_4  and  C_11
REMARK    2  A    between atoms: N_5  and  C_12
REMARK    3  A    between atoms: N_8  and  C_25
REMARK    4  A    between atoms: C_15  and  C_18
REMARK    5  A    between atoms: C_18  and  C_22
REMARK                            x       y       z     vdW  Elec       q    Type
REMARK                         _______ _______ _______ _____ _____    ______ ____
ROOT
ATOM      1  O   UNL     1      -2.802   3.809  26.697  0.00  0.00    -0.370 OA
ATOM      2  O   UNL     1      -2.819   5.064  23.837  0.00  0.00    -0.370 OA
ATOM      9  C   UNL     1      -3.007   3.724  24.327  0.00  0.00    +0.175 C 
ATOM     10  C   UNL     1      -2.059   3.539  25.497  0.00  0.00    +0.171 C 
ATOM     11  C   UNL     1      -4.393   3.579  24.932  0.00  0.00    +0.166 C 
ATOM     12  C   UNL     1      -1.001   4.598  25.285  0.00  0.00    +0.131 C 
ATOM     13  C   UNL     1      -4.170   4.073  26.358  0.00  0.00    +0.190 C 
ATOM     14  C   UNL     1      -1.777   5.700  24.590  0.00  0.00    +0.185 C 
ENDROOT
BRANCH  12   5
ATOM      3  O   UNL     1       0.021   1.922  25.208  0.00  0.00    -0.252 OA
ATOM      5  N   UNL     1       0.070   4.106  24.453  0.00  0.00    -0.292 N 
ATOM      8  N   UNL     1       1.555   2.595  23.565  0.00  0.00    -0.269 N 
ATOM     24  C   UNL     1       0.511   2.777  24.475  0.00  0.00    +0.304 C 
ATOM     31  H   UNL     1       0.480   4.737  23.770  0.00  0.00    +0.151 HD
ATOM     32  H   UNL     1       1.845   3.412  23.033  0.00  0.00    +0.156 HD
BRANCH   8  25
ATOM     25  C   UNL     1       2.269   1.405  23.291  0.00  0.00    +0.035 A 
ATOM     26  C   UNL     1       3.658   1.440  23.166  0.00  0.00    +0.023 A 
ATOM     27  C   UNL     1       1.585   0.199  23.144  0.00  0.00    +0.023 A 
ATOM     28  C   UNL     1       4.363   0.267  22.895  0.00  0.00    +0.002 A 
ATOM     29  C   UNL     1       2.290  -0.974  22.873  0.00  0.00    +0.002 A 
ATOM     30  C   UNL     1       3.679  -0.939  22.749  0.00  0.00    +0.000 A 
ENDBRANCH   8  25
ENDBRANCH  12   5
BRANCH  11   4
ATOM      4  N   UNL     1      -4.906   2.157  24.804  0.00  0.00    -0.244 N 
ATOM      6  N   UNL     1      -6.218   1.889  24.908  0.00  0.00    -0.065 NA
ATOM      7  N   UNL     1      -6.365   0.577  24.762  0.00  0.00    -0.134 NA
ATOM     19  C   UNL     1      -4.178   1.027  24.589  0.00  0.00    +0.134 A 
ATOM     22  C   UNL     1      -5.125   0.034  24.565  0.00  0.00    +0.083 A 
BRANCH  22  18
ATOM     18  C   UNL     1      -4.943  -1.445  24.364  0.00  0.00    +0.062 C 
BRANCH  18  15
ATOM     15  C   UNL     1      -3.610  -1.929  24.930  0.00  0.00    -0.005 C 
ATOM     16  C   UNL     1      -2.618  -2.231  23.799  0.00  0.00    +0.004 C 
ATOM     17  C   UNL     1      -3.028  -0.897  25.906  0.00  0.00    +0.004 C 
ATOM     20  C   UNL     1      -1.259  -2.666  24.341  0.00  0.00    +0.000 C 
ATOM     21  C   UNL     1      -1.668  -1.334  26.445  0.00  0.00    +0.000 C 
ATOM     23  C   UNL     1      -0.688  -1.641  25.317  0.00  0.00    +0.000 C 
ENDBRANCH  18  15
ENDBRANCH  22  18
ENDBRANCH  11   4
TORSDOF 5
ENDMDL
MODEL 3
REMARK VINA RESULT:       4.1      1.264      1.501
REMARK  Name = 26763461
REMARK  5 active torsions:
REMARK  status: ('A' for Active; 'I' for Inactive)
REMARK    1  A    between atoms: N_4  and  C_11
REMARK    2  A    between atoms: N_5  and  C_12
REMARK    3  A    between atoms: N_8  and  C_25
REMARK    4  A    between atoms: C_15  and  C_18
REMARK    5  A    between atoms: C_18  and  C_22
REMARK                            x       y       z     vdW  Elec       q    Type
REMARK                         _______ _______ _______ _____ _____    ______ ____
ROOT
ATOM      1  O   UNL     1      -3.828  -1.874  23.730  0.00  0.00    -0.370 OA
ATOM      2  O   UNL     1      -1.561  -1.570  25.856  0.00  0.00    -0.370 OA
ATOM      9  C   UNL     1      -2.411  -0.627  25.180  0.00  0.00    +0.175 C 
ATOM     10  C   UNL     1      -2.599  -1.131  23.762  0.00  0.00    +0.171 C 
ATOM     11  C   UNL     1      -3.805  -0.656  25.784  0.00  0.00    +0.166 C 
ATOM     12  C   UNL     1      -1.422  -2.053  23.539  0.00  0.00    +0.131 C 
ATOM     13  C   UNL     1      -4.459  -1.801  25.016  0.00  0.00    +0.190 C 
ATOM     14  C   UNL     1      -1.163  -2.593  24.932  0.00  0.00    +0.185 C 
ENDROOT
BRANCH  12   5
ATOM      3  O   UNL     1       1.204  -1.991  24.684  0.00  0.00    -0.252 OA
ATOM      5  N   UNL     1      -0.279  -1.328  23.038  0.00  0.00    -0.292 N 
ATOM      8  N   UNL     1       1.885  -0.560  22.952  0.00  0.00    -0.269 N 
ATOM     24  C   UNL     1       0.976  -1.351  23.660  0.00  0.00    +0.304 C 
ATOM     31  H   UNL     1      -0.370  -0.830  22.158  0.00  0.00    +0.151 HD
ATOM     32  H   UNL     1       1.532  -0.093  22.120  0.00  0.00    +0.156 HD
BRANCH   8  25
ATOM     25  C   UNL     1       3.246  -0.323  23.253  0.00  0.00    +0.035 A 
ATOM     26  C   UNL     1       4.015  -1.327  23.841  0.00  0.00    +0.023 A 
ATOM     27  C   UNL     1       3.820   0.915  22.963  0.00  0.00    +0.023 A 
ATOM     28  C   UNL     1       5.358  -1.094  24.138  0.00  0.00    +0.002 A 
ATOM     29  C   UNL     1       5.162   1.148  23.261  0.00  0.00    +0.002 A 
ATOM     30  C   UNL     1       5.931   0.143  23.848  0.00  0.00    +0.000 A 
ENDBRANCH   8  25
ENDBRANCH  12   5
BRANCH  11   4
ATOM      4  N   UNL     1      -4.491   0.691  25.658  0.00  0.00    -0.244 N 
ATOM      6  N   UNL     1      -5.812   0.811  25.863  0.00  0.00    -0.065 NA
ATOM      7  N   UNL     1      -6.126   2.089  25.681  0.00  0.00    -0.134 NA
ATOM     19  C   UNL     1      -3.922   1.887  25.340  0.00  0.00    +0.134 A 
ATOM     22  C   UNL     1      -4.979   2.762  25.361  0.00  0.00    +0.083 A 
BRANCH  22  18
ATOM     18  C   UNL     1      -4.991   4.241  25.089  0.00  0.00    +0.062 C 
BRANCH  18  15
ATOM     15  C   UNL     1      -3.635   4.731  24.585  0.00  0.00    -0.005 C 
ATOM     16  C   UNL     1      -2.782   5.255  25.749  0.00  0.00    +0.004 C 
ATOM     17  C   UNL     1      -2.901   3.614  23.830  0.00  0.00    +0.004 C 
ATOM     20  C   UNL     1      -1.400   5.702  25.279  0.00  0.00    +0.000 C 
ATOM     21  C   UNL     1      -1.518   4.064  23.364  0.00  0.00    +0.000 C 
ATOM     23  C   UNL     1      -0.677   4.592  24.521  0.00  0.00    +0.000 C 
ENDBRANCH  18  15
ENDBRANCH  22  18
ENDBRANCH  11   4
TORSDOF 5
ENDMDL
