MODEL 1
REMARK VINA RESULT:      -4.8      0.000      0.000
REMARK  Name = 75536799
REMARK  7 active torsions:
REMARK  status: ('A' for Active; 'I' for Inactive)
REMARK    1  A    between atoms: O_2  and  C_9
REMARK    2  A    between atoms: N_4  and  C_8
REMARK    3  A    between atoms: N_4  and  C_13
REMARK    4  A    between atoms: N_5  and  C_12
REMARK    5  A    between atoms: C_10  and  C_12
REMARK    6  A    between atoms: C_13  and  C_14
REMARK    7  A    between atoms: C_15  and  C_18
REMARK                            x       y       z     vdW  Elec       q    Type
REMARK                         _______ _______ _______ _____ _____    ______ ____
ROOT
ATOM      1  O   UNL     1      -3.097   4.183  23.710  0.00  0.00    -0.371 OA
ATOM      8  C   UNL     1      -4.498   3.129  25.313  0.00  0.00    +0.111 C 
ATOM      9  C   UNL     1      -3.153   3.429  25.951  0.00  0.00    +0.164 C 
ATOM     10  C   UNL     1      -2.626   4.517  25.026  0.00  0.00    +0.165 C 
ATOM     11  C   UNL     1      -4.154   3.216  23.835  0.00  0.00    +0.181 C 
ENDROOT
BRANCH   9   2
ATOM      2  O   UNL     1      -3.272   3.883  27.285  0.00  0.00    -0.388 OA
ATOM     26  H   UNL     1      -3.040   3.150  27.881  0.00  0.00    +0.210 HD
ENDBRANCH   9   2
BRANCH   8   4
ATOM      4  N   UNL     1      -5.047   1.837  25.691  0.00  0.00    -0.305 NA
ATOM     25  H   UNL     1      -5.989   1.970  26.059  0.00  0.00    +0.123 HD
BRANCH   4  13
ATOM     13  C   UNL     1      -5.111   0.939  24.544  0.00  0.00    +0.118 C 
BRANCH  13  14
ATOM      6  N   UNL     1      -2.144  -1.133  25.659  0.00  0.00    -0.263 NA
ATOM     14  C   UNL     1      -4.163  -0.222  24.689  0.00  0.00    -0.015 A 
ATOM     16  C   UNL     1      -4.394  -1.422  24.023  0.00  0.00    +0.008 A 
ATOM     17  C   UNL     1      -3.035  -0.130  25.488  0.00  0.00    +0.115 A 
ATOM     19  C   UNL     1      -3.500  -2.476  24.174  0.00  0.00    +0.020 A 
ATOM     22  C   UNL     1      -2.402  -2.283  24.996  0.00  0.00    +0.111 A 
ENDBRANCH  13  14
ENDBRANCH   4  13
ENDBRANCH   8   4
BRANCH  10  12
ATOM     12  C   UNL     1      -1.111   4.619  25.020  0.00  0.00    +0.138 C 
BRANCH  12   5
ATOM      3  O   UNL     1       0.407   2.441  26.112  0.00  0.00    -0.270 OA
ATOM      5  N   UNL     1      -0.519   3.537  24.289  0.00  0.00    -0.309 N 
ATOM     15  C   UNL     1       0.204   2.519  24.903  0.00  0.00    +0.244 C 
ATOM     27  H   UNL     1      -0.592   3.577  23.277  0.00  0.00    +0.149 HD
BRANCH  15  18
ATOM      7  N   UNL     1       1.853  -0.463  22.312  0.00  0.00    -0.263 NA
ATOM     18  C   UNL     1       0.776   1.485  24.003  0.00  0.00    +0.040 A 
ATOM     20  C   UNL     1      -0.012   0.425  23.567  0.00  0.00    +0.033 A 
ATOM     21  C   UNL     1       2.102   1.571  23.593  0.00  0.00    +0.033 A 
ATOM     23  C   UNL     1       0.569  -0.514  22.730  0.00  0.00    +0.111 A 
ATOM     24  C   UNL     1       2.589   0.581  22.755  0.00  0.00    +0.111 A 
ENDBRANCH  15  18
ENDBRANCH  12   5
ENDBRANCH  10  12
TORSDOF 7
ENDMDL
MODEL 2
REMARK VINA RESULT:      -4.7      1.522      4.695
REMARK  Name = 75536799
REMARK  7 active torsions:
REMARK  status: ('A' for Active; 'I' for Inactive)
REMARK    1  A    between atoms: O_2  and  C_9
REMARK    2  A    between atoms: N_4  and  C_8
REMARK    3  A    between atoms: N_4  and  C_13
REMARK    4  A    between atoms: N_5  and  C_12
REMARK    5  A    between atoms: C_10  and  C_12
REMARK    6  A    between atoms: C_13  and  C_14
REMARK    7  A    between atoms: C_15  and  C_18
REMARK                            x       y       z     vdW  Elec       q    Type
REMARK                         _______ _______ _______ _____ _____    ______ ____
ROOT
ATOM      1  O   UNL     1      -4.265   3.655  26.721  0.00  0.00    -0.371 OA
ATOM      8  C   UNL     1      -2.452   4.393  25.374  0.00  0.00    +0.111 C 
ATOM      9  C   UNL     1      -3.501   3.750  24.484  0.00  0.00    +0.164 C 
ATOM     10  C   UNL     1      -4.734   3.836  25.374  0.00  0.00    +0.165 C 
ATOM     11  C   UNL     1      -2.839   3.844  26.737  0.00  0.00    +0.181 C 
ENDROOT
BRANCH   9   2
ATOM      2  O   UNL     1      -3.681   4.443  23.265  0.00  0.00    -0.388 OA
ATOM     26  H   UNL     1      -3.890   5.371  23.468  0.00  0.00    +0.210 HD
ENDBRANCH   9   2
BRANCH   8   4
ATOM      4  N   UNL     1      -1.087   4.063  24.998  0.00  0.00    -0.305 NA
ATOM     25  H   UNL     1      -0.501   4.890  25.113  0.00  0.00    +0.123 HD
BRANCH   4  13
ATOM     13  C   UNL     1      -0.558   2.990  25.832  0.00  0.00    +0.118 C 
BRANCH  13  14
ATOM      6  N   UNL     1       0.954   0.818  23.124  0.00  0.00    -0.263 NA
ATOM     14  C   UNL     1      -0.205   1.772  25.019  0.00  0.00    -0.015 A 
ATOM     16  C   UNL     1      -0.680   0.513  25.373  0.00  0.00    +0.008 A 
ATOM     17  C   UNL     1       0.601   1.870  23.897  0.00  0.00    +0.115 A 
ATOM     19  C   UNL     1      -0.339  -0.593  24.603  0.00  0.00    +0.020 A 
ATOM     22  C   UNL     1       0.474  -0.389  23.499  0.00  0.00    +0.111 A 
ENDBRANCH  13  14
ENDBRANCH   4  13
ENDBRANCH   8   4
BRANCH  10  12
ATOM     12  C   UNL     1      -5.783   2.788  25.050  0.00  0.00    +0.138 C 
BRANCH  12   5
ATOM      3  O   UNL     1      -3.969   1.357  23.346  0.00  0.00    -0.270 OA
ATOM      5  N   UNL     1      -5.279   1.462  25.258  0.00  0.00    -0.309 N 
ATOM     15  C   UNL     1      -4.398   0.844  24.376  0.00  0.00    +0.244 C 
ATOM     27  H   UNL     1      -5.647   0.955  26.057  0.00  0.00    +0.149 HD
BRANCH  15  18
ATOM      7  N   UNL     1      -3.215  -3.148  25.371  0.00  0.00    -0.263 NA
ATOM     18  C   UNL     1      -3.989  -0.542  24.722  0.00  0.00    +0.040 A 
ATOM     20  C   UNL     1      -3.594  -0.851  26.019  0.00  0.00    +0.033 A 
ATOM     21  C   UNL     1      -3.997  -1.536  23.749  0.00  0.00    +0.033 A 
ATOM     23  C   UNL     1      -3.220  -2.157  26.289  0.00  0.00    +0.111 A 
ATOM     24  C   UNL     1      -3.605  -2.812  24.121  0.00  0.00    +0.111 A 
ENDBRANCH  15  18
ENDBRANCH  12   5
ENDBRANCH  10  12
TORSDOF 7
ENDMDL
MODEL 3
REMARK VINA RESULT:      -4.5      1.770      4.533
REMARK  Name = 75536799
REMARK  7 active torsions:
REMARK  status: ('A' for Active; 'I' for Inactive)
REMARK    1  A    between atoms: O_2  and  C_9
REMARK    2  A    between atoms: N_4  and  C_8
REMARK    3  A    between atoms: N_4  and  C_13
REMARK    4  A    between atoms: N_5  and  C_12
REMARK    5  A    between atoms: C_10  and  C_12
REMARK    6  A    between atoms: C_13  and  C_14
REMARK    7  A    between atoms: C_15  and  C_18
REMARK                            x       y       z     vdW  Elec       q    Type
REMARK                         _______ _______ _______ _____ _____    ______ ____
ROOT
ATOM      1  O   UNL     1       0.380   3.335  23.518  0.00  0.00    -0.371 OA
ATOM      8  C   UNL     1      -0.806   3.926  25.490  0.00  0.00    +0.111 C 
ATOM      9  C   UNL     1      -0.508   2.438  25.519  0.00  0.00    +0.164 C 
ATOM     10  C   UNL     1       0.648   2.351  24.531  0.00  0.00    +0.165 C 
ATOM     11  C   UNL     1      -0.621   4.240  24.015  0.00  0.00    +0.181 C 
ENDROOT
BRANCH   9   2
ATOM      2  O   UNL     1      -0.138   1.981  26.805  0.00  0.00    -0.388 OA
ATOM     26  H   UNL     1      -0.736   1.257  27.058  0.00  0.00    +0.210 HD
ENDBRANCH   9   2
BRANCH   8   4
ATOM      4  N   UNL     1      -2.132   4.265  25.980  0.00  0.00    -0.305 NA
ATOM     25  H   UNL     1      -2.097   5.177  26.435  0.00  0.00    +0.123 HD
BRANCH   4  13
ATOM     13  C   UNL     1      -3.096   4.322  24.886  0.00  0.00    +0.118 C 
BRANCH  13  14
ATOM      6  N   UNL     1      -6.044   2.655  26.579  0.00  0.00    -0.263 NA
ATOM     14  C   UNL     1      -4.265   3.403  25.122  0.00  0.00    -0.015 A 
ATOM     16  C   UNL     1      -4.654   2.477  24.159  0.00  0.00    +0.008 A 
ATOM     17  C   UNL     1      -4.987   3.451  26.304  0.00  0.00    +0.115 A 
ATOM     19  C   UNL     1      -5.737   1.640  24.406  0.00  0.00    +0.020 A 
ATOM     22  C   UNL     1      -6.392   1.768  25.620  0.00  0.00    +0.111 A 
ENDBRANCH  13  14
ENDBRANCH   4  13
ENDBRANCH   8   4
BRANCH  10  12
ATOM     12  C   UNL     1       0.790   0.981  23.893  0.00  0.00    +0.138 C 
BRANCH  12   5
ATOM      3  O   UNL     1       0.133  -1.468  25.239  0.00  0.00    -0.270 OA
ATOM      5  N   UNL     1      -0.466   0.292  23.850  0.00  0.00    -0.309 N 
ATOM     15  C   UNL     1      -0.697  -0.896  24.538  0.00  0.00    +0.244 C 
ATOM     27  H   UNL     1      -1.176   0.676  23.234  0.00  0.00    +0.149 HD
BRANCH  15  18
ATOM      7  N   UNL     1      -4.578  -2.636  24.049  0.00  0.00    -0.263 NA
ATOM     18  C   UNL     1      -2.044  -1.499  24.370  0.00  0.00    +0.040 A 
ATOM     20  C   UNL     1      -2.225  -2.866  24.551  0.00  0.00    +0.033 A 
ATOM     21  C   UNL     1      -3.130  -0.700  24.029  0.00  0.00    +0.033 A 
ATOM     23  C   UNL     1      -3.500  -3.380  24.380  0.00  0.00    +0.111 A 
ATOM     24  C   UNL     1      -4.365  -1.311  23.882  0.00  0.00    +0.111 A 
ENDBRANCH  15  18
ENDBRANCH  12   5
ENDBRANCH  10  12
TORSDOF 7
ENDMDL
MODEL 4
REMARK VINA RESULT:      -4.2      2.178      3.136
REMARK  Name = 75536799
REMARK  7 active torsions:
REMARK  status: ('A' for Active; 'I' for Inactive)
REMARK    1  A    between atoms: O_2  and  C_9
REMARK    2  A    between atoms: N_4  and  C_8
REMARK    3  A    between atoms: N_4  and  C_13
REMARK    4  A    between atoms: N_5  and  C_12
REMARK    5  A    between atoms: C_10  and  C_12
REMARK    6  A    between atoms: C_13  and  C_14
REMARK    7  A    between atoms: C_15  and  C_18
REMARK                            x       y       z     vdW  Elec       q    Type
REMARK                         _______ _______ _______ _____ _____    ______ ____
ROOT
ATOM      1  O   UNL     1      -2.138   2.017  22.541  0.00  0.00    -0.371 OA
ATOM      8  C   UNL     1      -2.844   2.506  24.756  0.00  0.00    +0.111 C 
ATOM      9  C   UNL     1      -1.821   1.385  24.798  0.00  0.00    +0.164 C 
ATOM     10  C   UNL     1      -1.123   1.574  23.457  0.00  0.00    +0.165 C 
ATOM     11  C   UNL     1      -3.276   2.462  23.299  0.00  0.00    +0.181 C 
ENDROOT
BRANCH   9   2
ATOM      2  O   UNL     1      -0.921   1.509  25.882  0.00  0.00    -0.388 OA
ATOM     26  H   UNL     1      -1.226   0.932  26.602  0.00  0.00    +0.210 HD
ENDBRANCH   9   2
BRANCH   8   4
ATOM      4  N   UNL     1      -3.950   2.320  25.680  0.00  0.00    -0.305 NA
ATOM     25  H   UNL     1      -4.393   3.221  25.857  0.00  0.00    +0.123 HD
BRANCH   4  13
ATOM     13  C   UNL     1      -4.945   1.406  25.130  0.00  0.00    +0.118 C 
BRANCH  13  14
ATOM      6  N   UNL     1      -3.325  -1.877  26.097  0.00  0.00    -0.263 NA
ATOM     14  C   UNL     1      -4.419  -0.002  25.033  0.00  0.00    -0.015 A 
ATOM     16  C   UNL     1      -4.521  -0.723  23.848  0.00  0.00    +0.008 A 
ATOM     17  C   UNL     1      -3.819  -0.618  26.118  0.00  0.00    +0.115 A 
ATOM     19  C   UNL     1      -4.024  -2.021  23.787  0.00  0.00    +0.020 A 
ATOM     22  C   UNL     1      -3.441  -2.547  24.928  0.00  0.00    +0.111 A 
ENDBRANCH  13  14
ENDBRANCH   4  13
ENDBRANCH   8   4
BRANCH  10  12
ATOM     12  C   UNL     1      -0.475   0.305  22.933  0.00  0.00    +0.138 C 
BRANCH  12   5
ATOM      3  O   UNL     1       1.736  -0.384  21.237  0.00  0.00    -0.270 OA
ATOM      5  N   UNL     1       0.905   0.229  23.315  0.00  0.00    -0.309 N 
ATOM     15  C   UNL     1       1.915  -0.115  22.422  0.00  0.00    +0.244 C 
ATOM     27  H   UNL     1       1.115   0.373  24.297  0.00  0.00    +0.149 HD
BRANCH  15  18
ATOM      7  N   UNL     1       5.881  -0.290  24.024  0.00  0.00    -0.263 NA
ATOM     18  C   UNL     1       3.291  -0.175  22.979  0.00  0.00    +0.040 A 
ATOM     20  C   UNL     1       4.115   0.944  22.929  0.00  0.00    +0.033 A 
ATOM     21  C   UNL     1       3.761  -1.352  23.552  0.00  0.00    +0.033 A 
ATOM     23  C   UNL     1       5.389   0.835  23.460  0.00  0.00    +0.111 A 
ATOM     24  C   UNL     1       5.052  -1.358  24.056  0.00  0.00    +0.111 A 
ENDBRANCH  15  18
ENDBRANCH  12   5
ENDBRANCH  10  12
TORSDOF 7
ENDMDL
MODEL 5
REMARK VINA RESULT:      -3.4     15.628     18.988
REMARK  Name = 75536799
REMARK  7 active torsions:
REMARK  status: ('A' for Active; 'I' for Inactive)
REMARK    1  A    between atoms: O_2  and  C_9
REMARK    2  A    between atoms: N_4  and  C_8
REMARK    3  A    between atoms: N_4  and  C_13
REMARK    4  A    between atoms: N_5  and  C_12
REMARK    5  A    between atoms: C_10  and  C_12
REMARK    6  A    between atoms: C_13  and  C_14
REMARK    7  A    between atoms: C_15  and  C_18
REMARK                            x       y       z     vdW  Elec       q    Type
REMARK                         _______ _______ _______ _____ _____    ______ ____
ROOT
ATOM      1  O   UNL     1      13.404  -4.827  31.802  0.00  0.00    -0.371 OA
ATOM      8  C   UNL     1      14.708  -6.000  30.200  0.00  0.00    +0.111 C 
ATOM      9  C   UNL     1      13.921  -7.001  31.026  0.00  0.00    +0.164 C 
ATOM     10  C   UNL     1      12.810  -6.117  31.578  0.00  0.00    +0.165 C 
ATOM     11  C   UNL     1      14.650  -4.768  31.087  0.00  0.00    +0.181 C 
ENDROOT
BRANCH   9   2
ATOM      2  O   UNL     1      13.409  -8.066  30.249  0.00  0.00    -0.388 OA
ATOM     26  H   UNL     1      12.444  -7.968  30.192  0.00  0.00    +0.210 HD
ENDBRANCH   9   2
BRANCH   8   4
ATOM      4  N   UNL     1      16.067  -6.426  29.908  0.00  0.00    -0.305 NA
ATOM     25  H   UNL     1      16.173  -7.406  30.170  0.00  0.00    +0.123 HD
BRANCH   4  13
ATOM     13  C   UNL     1      16.368  -6.282  28.488  0.00  0.00    +0.118 C 
BRANCH  13  14
ATOM      6  N   UNL     1      16.069  -9.962  27.650  0.00  0.00    -0.263 NA
ATOM     14  C   UNL     1      16.074  -7.546  27.724  0.00  0.00    -0.015 A 
ATOM     16  C   UNL     1      15.560  -7.497  26.432  0.00  0.00    +0.008 A 
ATOM     17  C   UNL     1      16.308  -8.791  28.282  0.00  0.00    +0.115 A 
ATOM     19  C   UNL     1      15.301  -8.680  25.749  0.00  0.00    +0.020 A 
ATOM     22  C   UNL     1      15.570  -9.875  26.396  0.00  0.00    +0.111 A 
ENDBRANCH  13  14
ENDBRANCH   4  13
ENDBRANCH   8   4
BRANCH  10  12
ATOM     12  C   UNL     1      12.214  -6.640  32.873  0.00  0.00    +0.138 C 
BRANCH  12   5
ATOM      3  O   UNL     1      10.953  -9.080  32.038  0.00  0.00    -0.270 OA
ATOM      5  N   UNL     1      10.805  -6.874  32.740  0.00  0.00    -0.309 N 
ATOM     15  C   UNL     1      10.280  -8.095  32.327  0.00  0.00    +0.244 C 
ATOM     27  H   UNL     1      10.194  -6.079  32.900  0.00  0.00    +0.149 HD
BRANCH  15  18
ATOM      7  N   UNL     1       6.016  -8.308  32.012  0.00  0.00    -0.263 NA
ATOM     18  C   UNL     1       8.800  -8.168  32.216  0.00  0.00    +0.040 A 
ATOM     20  C   UNL     1       8.004  -7.236  32.873  0.00  0.00    +0.033 A 
ATOM     21  C   UNL     1       8.205  -9.169  31.457  0.00  0.00    +0.033 A 
ATOM     23  C   UNL     1       6.629  -7.349  32.740  0.00  0.00    +0.111 A 
ATOM     24  C   UNL     1       6.821  -9.196  31.387  0.00  0.00    +0.111 A 
ENDBRANCH  15  18
ENDBRANCH  12   5
ENDBRANCH  10  12
TORSDOF 7
ENDMDL
MODEL 6
REMARK VINA RESULT:      -3.3      1.771      5.030
REMARK  Name = 75536799
REMARK  7 active torsions:
REMARK  status: ('A' for Active; 'I' for Inactive)
REMARK    1  A    between atoms: O_2  and  C_9
REMARK    2  A    between atoms: N_4  and  C_8
REMARK    3  A    between atoms: N_4  and  C_13
REMARK    4  A    between atoms: N_5  and  C_12
REMARK    5  A    between atoms: C_10  and  C_12
REMARK    6  A    between atoms: C_13  and  C_14
REMARK    7  A    between atoms: C_15  and  C_18
REMARK                            x       y       z     vdW  Elec       q    Type
REMARK                         _______ _______ _______ _____ _____    ______ ____
ROOT
ATOM      1  O   UNL     1       0.114   3.728  25.925  0.00  0.00    -0.371 OA
ATOM      8  C   UNL     1       0.356   1.660  24.779  0.00  0.00    +0.111 C 
ATOM      9  C   UNL     1      -0.728   2.479  24.101  0.00  0.00    +0.164 C 
ATOM     10  C   UNL     1      -0.383   3.881  24.585  0.00  0.00    +0.165 C 
ATOM     11  C   UNL     1       0.443   2.343  26.134  0.00  0.00    +0.181 C 
ENDROOT
BRANCH   9   2
ATOM      2  O   UNL     1      -0.682   2.382  22.690  0.00  0.00    -0.388 OA
ATOM     26  H   UNL     1      -1.135   3.155  22.315  0.00  0.00    +0.210 HD
ENDBRANCH   9   2
BRANCH   8   4
ATOM      4  N   UNL     1       0.041   0.244  24.878  0.00  0.00    -0.305 NA
ATOM     25  H   UNL     1       0.846  -0.250  25.262  0.00  0.00    +0.123 HD
BRANCH   4  13
ATOM     13  C   UNL     1      -1.108   0.022  25.748  0.00  0.00    +0.118 C 
BRANCH  13  14
ATOM      6  N   UNL     1      -2.713  -3.044  24.213  0.00  0.00    -0.263 NA
ATOM     14  C   UNL     1      -2.134  -0.873  25.104  0.00  0.00    -0.015 A 
ATOM     16  C   UNL     1      -3.407  -0.400  24.803  0.00  0.00    +0.008 A 
ATOM     17  C   UNL     1      -1.840  -2.190  24.792  0.00  0.00    +0.115 A 
ATOM     19  C   UNL     1      -4.333  -1.249  24.207  0.00  0.00    +0.020 A 
ATOM     22  C   UNL     1      -3.941  -2.549  23.935  0.00  0.00    +0.111 A 
ENDBRANCH  13  14
ENDBRANCH   4  13
ENDBRANCH   8   4
BRANCH  10  12
ATOM     12  C   UNL     1      -1.570   4.827  24.582  0.00  0.00    +0.138 C 
BRANCH  12   5
ATOM      3  O   UNL     1      -3.046   3.993  26.899  0.00  0.00    -0.270 OA
ATOM      5  N   UNL     1      -2.810   4.107  24.594  0.00  0.00    -0.309 N 
ATOM     15  C   UNL     1      -3.459   3.743  25.770  0.00  0.00    +0.244 C 
ATOM     27  H   UNL     1      -3.172   3.810  23.694  0.00  0.00    +0.149 HD
BRANCH  15  18
ATOM      7  N   UNL     1      -7.097   1.533  25.315  0.00  0.00    -0.263 NA
ATOM     18  C   UNL     1      -4.722   2.977  25.612  0.00  0.00    +0.040 A 
ATOM     20  C   UNL     1      -5.507   2.689  26.723  0.00  0.00    +0.033 A 
ATOM     21  C   UNL     1      -5.124   2.545  24.353  0.00  0.00    +0.033 A 
ATOM     23  C   UNL     1      -6.675   1.970  26.522  0.00  0.00    +0.111 A 
ATOM     24  C   UNL     1      -6.309   1.833  24.258  0.00  0.00    +0.111 A 
ENDBRANCH  15  18
ENDBRANCH  12   5
ENDBRANCH  10  12
TORSDOF 7
ENDMDL
MODEL 7
REMARK VINA RESULT:      -3.2      2.285      4.630
REMARK  Name = 75536799
REMARK  7 active torsions:
REMARK  status: ('A' for Active; 'I' for Inactive)
REMARK    1  A    between atoms: O_2  and  C_9
REMARK    2  A    between atoms: N_4  and  C_8
REMARK    3  A    between atoms: N_4  and  C_13
REMARK    4  A    between atoms: N_5  and  C_12
REMARK    5  A    between atoms: C_10  and  C_12
REMARK    6  A    between atoms: C_13  and  C_14
REMARK    7  A    between atoms: C_15  and  C_18
REMARK                            x       y       z     vdW  Elec       q    Type
REMARK                         _______ _______ _______ _____ _____    ______ ____
ROOT
ATOM      1  O   UNL     1      -0.745   0.232  25.708  0.00  0.00    -0.371 OA
ATOM      8  C   UNL     1      -1.397   2.396  24.977  0.00  0.00    +0.111 C 
ATOM      9  C   UNL     1      -1.116   1.528  23.764  0.00  0.00    +0.164 C 
ATOM     10  C   UNL     1      -1.246   0.134  24.365  0.00  0.00    +0.165 C 
ATOM     11  C   UNL     1      -0.683   1.623  26.072  0.00  0.00    +0.181 C 
ENDROOT
BRANCH   9   2
ATOM      2  O   UNL     1      -2.041   1.739  22.715  0.00  0.00    -0.388 OA
ATOM     26  H   UNL     1      -2.786   2.258  23.063  0.00  0.00    +0.210 HD
ENDBRANCH   9   2
BRANCH   8   4
ATOM      4  N   UNL     1      -0.915   3.761  24.840  0.00  0.00    -0.305 NA
ATOM     25  H   UNL     1      -0.517   3.883  23.909  0.00  0.00    +0.123 HD
BRANCH   4  13
ATOM     13  C   UNL     1      -1.999   4.720  25.019  0.00  0.00    +0.118 C 
BRANCH  13  14
ATOM      6  N   UNL     1      -5.129   3.330  26.632  0.00  0.00    -0.263 NA
ATOM     14  C   UNL     1      -3.330   4.036  25.180  0.00  0.00    -0.015 A 
ATOM     16  C   UNL     1      -3.989   3.487  24.084  0.00  0.00    +0.008 A 
ATOM     17  C   UNL     1      -3.937   3.932  26.420  0.00  0.00    +0.115 A 
ATOM     19  C   UNL     1      -5.217   2.860  24.262  0.00  0.00    +0.020 A 
ATOM     22  C   UNL     1      -5.740   2.809  25.544  0.00  0.00    +0.111 A 
ENDBRANCH  13  14
ENDBRANCH   4  13
ENDBRANCH   8   4
BRANCH  10  12
ATOM     12  C   UNL     1      -0.470  -0.924  23.602  0.00  0.00    +0.138 C 
BRANCH  12   5
ATOM      3  O   UNL     1       1.459  -0.188  21.607  0.00  0.00    -0.270 OA
ATOM      5  N   UNL     1       0.944  -0.773  23.792  0.00  0.00    -0.309 N 
ATOM     15  C   UNL     1       1.807  -0.411  22.763  0.00  0.00    +0.244 C 
ATOM     27  H   UNL     1       1.307  -1.008  24.710  0.00  0.00    +0.149 HD
BRANCH  15  18
ATOM      7  N   UNL     1       5.959  -0.155  23.779  0.00  0.00    -0.263 NA
ATOM     18  C   UNL     1       3.248  -0.322  23.118  0.00  0.00    +0.040 A 
ATOM     20  C   UNL     1       3.963   0.840  22.847  0.00  0.00    +0.033 A 
ATOM     21  C   UNL     1       3.887  -1.400  23.718  0.00  0.00    +0.033 A 
ATOM     23  C   UNL     1       5.303   0.872  23.195  0.00  0.00    +0.111 A 
ATOM     24  C   UNL     1       5.232  -1.268  24.027  0.00  0.00    +0.111 A 
ENDBRANCH  15  18
ENDBRANCH  12   5
ENDBRANCH  10  12
TORSDOF 7
ENDMDL
MODEL 8
REMARK VINA RESULT:      -3.1      2.593      4.778
REMARK  Name = 75536799
REMARK  7 active torsions:
REMARK  status: ('A' for Active; 'I' for Inactive)
REMARK    1  A    between atoms: O_2  and  C_9
REMARK    2  A    between atoms: N_4  and  C_8
REMARK    3  A    between atoms: N_4  and  C_13
REMARK    4  A    between atoms: N_5  and  C_12
REMARK    5  A    between atoms: C_10  and  C_12
REMARK    6  A    between atoms: C_13  and  C_14
REMARK    7  A    between atoms: C_15  and  C_18
REMARK                            x       y       z     vdW  Elec       q    Type
REMARK                         _______ _______ _______ _____ _____    ______ ____
ROOT
ATOM      1  O   UNL     1      -0.878  -0.194  25.553  0.00  0.00    -0.371 OA
ATOM      8  C   UNL     1      -3.091  -1.035  25.750  0.00  0.00    +0.111 C 
ATOM      9  C   UNL     1      -2.552  -1.377  24.373  0.00  0.00    +0.164 C 
ATOM     10  C   UNL     1      -1.051  -1.263  24.609  0.00  0.00    +0.165 C 
ATOM     11  C   UNL     1      -2.147   0.078  26.173  0.00  0.00    +0.181 C 
ENDROOT
BRANCH   9   2
ATOM      2  O   UNL     1      -2.921  -2.675  23.949  0.00  0.00    -0.388 OA
ATOM     26  H   UNL     1      -3.009  -3.241  24.734  0.00  0.00    +0.210 HD
ENDBRANCH   9   2
BRANCH   8   4
ATOM      4  N   UNL     1      -4.485  -0.624  25.744  0.00  0.00    -0.305 NA
ATOM     25  H   UNL     1      -4.660  -0.026  26.551  0.00  0.00    +0.123 HD
BRANCH   4  13
ATOM     13  C   UNL     1      -4.807   0.118  24.530  0.00  0.00    +0.118 C 
BRANCH  13  14
ATOM      6  N   UNL     1      -5.597   3.554  25.909  0.00  0.00    -0.263 NA
ATOM     14  C   UNL     1      -4.754   1.606  24.752  0.00  0.00    -0.015 A 
ATOM     16  C   UNL     1      -3.859   2.403  24.045  0.00  0.00    +0.008 A 
ATOM     17  C   UNL     1      -5.593   2.224  25.664  0.00  0.00    +0.115 A 
ATOM     19  C   UNL     1      -3.833   3.775  24.270  0.00  0.00    +0.020 A 
ATOM     22  C   UNL     1      -4.714   4.297  25.204  0.00  0.00    +0.111 A 
ENDBRANCH  13  14
ENDBRANCH   4  13
ENDBRANCH   8   4
BRANCH  10  12
ATOM     12  C   UNL     1      -0.265  -0.964  23.345  0.00  0.00    +0.138 C 
BRANCH  12   5
ATOM      3  O   UNL     1       1.776  -0.198  21.477  0.00  0.00    -0.270 OA
ATOM      5  N   UNL     1       1.127  -0.770  23.629  0.00  0.00    -0.309 N 
ATOM     15  C   UNL     1       2.049  -0.397  22.657  0.00  0.00    +0.244 C 
ATOM     27  H   UNL     1       1.433  -0.984  24.573  0.00  0.00    +0.149 HD
BRANCH  15  18
ATOM      7  N   UNL     1       6.112  -0.011  23.952  0.00  0.00    -0.263 NA
ATOM     18  C   UNL     1       3.459  -0.263  23.108  0.00  0.00    +0.040 A 
ATOM     20  C   UNL     1       4.145   0.930  22.907  0.00  0.00    +0.033 A 
ATOM     21  C   UNL     1       4.098  -1.329  23.730  0.00  0.00    +0.033 A 
ATOM     23  C   UNL     1       5.458   1.004  23.344  0.00  0.00    +0.111 A 
ATOM     24  C   UNL     1       5.413  -1.154  24.130  0.00  0.00    +0.111 A 
ENDBRANCH  15  18
ENDBRANCH  12   5
ENDBRANCH  10  12
TORSDOF 7
ENDMDL
MODEL 9
REMARK VINA RESULT:      -2.9      1.273      1.599
REMARK  Name = 75536799
REMARK  7 active torsions:
REMARK  status: ('A' for Active; 'I' for Inactive)
REMARK    1  A    between atoms: O_2  and  C_9
REMARK    2  A    between atoms: N_4  and  C_8
REMARK    3  A    between atoms: N_4  and  C_13
REMARK    4  A    between atoms: N_5  and  C_12
REMARK    5  A    between atoms: C_10  and  C_12
REMARK    6  A    between atoms: C_13  and  C_14
REMARK    7  A    between atoms: C_15  and  C_18
REMARK                            x       y       z     vdW  Elec       q    Type
REMARK                         _______ _______ _______ _____ _____    ______ ____
ROOT
ATOM      1  O   UNL     1      -3.441   4.942  24.170  0.00  0.00    -0.371 OA
ATOM      8  C   UNL     1      -4.587   3.495  25.666  0.00  0.00    +0.111 C 
ATOM      9  C   UNL     1      -3.107   3.480  26.000  0.00  0.00    +0.164 C 
ATOM     10  C   UNL     1      -2.648   4.783  25.359  0.00  0.00    +0.165 C 
ATOM     11  C   UNL     1      -4.570   4.054  24.253  0.00  0.00    +0.181 C 
ENDROOT
BRANCH   9   2
ATOM      2  O   UNL     1      -2.862   3.464  27.393  0.00  0.00    -0.388 OA
ATOM     26  H   UNL     1      -3.696   3.260  27.849  0.00  0.00    +0.210 HD
ENDBRANCH   9   2
BRANCH   8   4
ATOM      4  N   UNL     1      -5.216   2.187  25.750  0.00  0.00    -0.305 NA
ATOM     25  H   UNL     1      -6.219   2.308  25.894  0.00  0.00    +0.123 HD
BRANCH   4  13
ATOM     13  C   UNL     1      -5.005   1.424  24.525  0.00  0.00    +0.118 C 
BRANCH  13  14
ATOM      6  N   UNL     1      -3.444  -1.480  26.386  0.00  0.00    -0.263 NA
ATOM     14  C   UNL     1      -4.433   0.060  24.806  0.00  0.00    -0.015 A 
ATOM     16  C   UNL     1      -4.353  -0.903  23.805  0.00  0.00    +0.008 A 
ATOM     17  C   UNL     1      -3.970  -0.275  26.068  0.00  0.00    +0.115 A 
ATOM     19  C   UNL     1      -3.818  -2.154  24.094  0.00  0.00    +0.020 A 
ATOM     22  C   UNL     1      -3.382  -2.390  25.388  0.00  0.00    +0.111 A 
ENDBRANCH  13  14
ENDBRANCH   4  13
ENDBRANCH   8   4
BRANCH  10  12
ATOM     12  C   UNL     1      -1.174   4.789  24.998  0.00  0.00    +0.138 C 
BRANCH  12   5
ATOM      3  O   UNL     1      -1.757   2.819  22.992  0.00  0.00    -0.270 OA
ATOM      5  N   UNL     1      -0.648   3.457  24.928  0.00  0.00    -0.309 N 
ATOM     15  C   UNL     1      -0.987   2.565  23.915  0.00  0.00    +0.244 C 
ATOM     27  H   UNL     1      -0.058   3.160  25.698  0.00  0.00    +0.149 HD
BRANCH  15  18
ATOM      7  N   UNL     1       0.768  -1.332  24.157  0.00  0.00    -0.263 NA
ATOM     18  C   UNL     1      -0.377   1.213  24.000  0.00  0.00    +0.040 A 
ATOM     20  C   UNL     1       0.639   0.849  23.123  0.00  0.00    +0.033 A 
ATOM     21  C   UNL     1      -0.821   0.306  24.955  0.00  0.00    +0.033 A 
ATOM     23  C   UNL     1       1.173  -0.424  23.242  0.00  0.00    +0.111 A 
ATOM     24  C   UNL     1      -0.222  -0.944  24.992  0.00  0.00    +0.111 A 
ENDBRANCH  15  18
ENDBRANCH  12   5
ENDBRANCH  10  12
TORSDOF 7
ENDMDL
MODEL 10
REMARK VINA RESULT:      -2.4     16.873     19.840
REMARK  Name = 75536799
REMARK  7 active torsions:
REMARK  status: ('A' for Active; 'I' for Inactive)
REMARK    1  A    between atoms: O_2  and  C_9
REMARK    2  A    between atoms: N_4  and  C_8
REMARK    3  A    between atoms: N_4  and  C_13
REMARK    4  A    between atoms: N_5  and  C_12
REMARK    5  A    between atoms: C_10  and  C_12
REMARK    6  A    between atoms: C_13  and  C_14
REMARK    7  A    between atoms: C_15  and  C_18
REMARK                            x       y       z     vdW  Elec       q    Type
REMARK                         _______ _______ _______ _____ _____    ______ ____
ROOT
ATOM      1  O   UNL     1      15.819  -6.013  31.254  0.00  0.00    -0.371 OA
ATOM      8  C   UNL     1      15.286  -6.829  29.087  0.00  0.00    +0.111 C 
ATOM      9  C   UNL     1      14.294  -7.395  30.088  0.00  0.00    +0.164 C 
ATOM     10  C   UNL     1      14.436  -6.403  31.235  0.00  0.00    +0.165 C 
ATOM     11  C   UNL     1      16.418  -6.392  30.002  0.00  0.00    +0.181 C 
ENDROOT
BRANCH   9   2
ATOM      2  O   UNL     1      12.973  -7.433  29.584  0.00  0.00    -0.388 OA
ATOM     26  H   UNL     1      13.015  -7.498  28.615  0.00  0.00    +0.210 HD
ENDBRANCH   9   2
BRANCH   8   4
ATOM      4  N   UNL     1      15.709  -7.788  28.080  0.00  0.00    -0.305 NA
ATOM     25  H   UNL     1      15.104  -7.703  27.264  0.00  0.00    +0.123 HD
BRANCH   4  13
ATOM     13  C   UNL     1      17.088  -7.545  27.672  0.00  0.00    +0.118 C 
BRANCH  13  14
ATOM      6  N   UNL     1      17.405  -6.732  23.988  0.00  0.00    -0.263 NA
ATOM     14  C   UNL     1      17.162  -6.754  26.393  0.00  0.00    -0.015 A 
ATOM     16  C   UNL     1      17.066  -5.366  26.404  0.00  0.00    +0.008 A 
ATOM     17  C   UNL     1      17.329  -7.383  25.171  0.00  0.00    +0.115 A 
ATOM     19  C   UNL     1      17.140  -4.661  25.208  0.00  0.00    +0.020 A 
ATOM     22  C   UNL     1      17.308  -5.385  24.038  0.00  0.00    +0.111 A 
ENDBRANCH  13  14
ENDBRANCH   4  13
ENDBRANCH   8   4
BRANCH  10  12
ATOM     12  C   UNL     1      14.046  -6.983  32.582  0.00  0.00    +0.138 C 
BRANCH  12   5
ATOM      3  O   UNL     1      11.350  -6.010  32.737  0.00  0.00    -0.270 OA
ATOM      5  N   UNL     1      12.848  -7.764  32.488  0.00  0.00    -0.309 N 
ATOM     15  C   UNL     1      11.576  -7.206  32.574  0.00  0.00    +0.244 C 
ATOM     27  H   UNL     1      12.964  -8.770  32.420  0.00  0.00    +0.149 HD
BRANCH  15  18
ATOM      7  N   UNL     1       8.291  -9.937  32.306  0.00  0.00    -0.263 NA
ATOM     18  C   UNL     1      10.436  -8.154  32.483  0.00  0.00    +0.040 A 
ATOM     20  C   UNL     1      10.638  -9.444  32.004  0.00  0.00    +0.033 A 
ATOM     21  C   UNL     1       9.163  -7.756  32.873  0.00  0.00    +0.033 A 
ATOM     23  C   UNL     1       9.542 -10.289  31.936  0.00  0.00    +0.111 A 
ATOM     24  C   UNL     1       8.133  -8.676  32.767  0.00  0.00    +0.111 A 
ENDBRANCH  15  18
ENDBRANCH  12   5
ENDBRANCH  10  12
TORSDOF 7
ENDMDL
