MODEL 1
REMARK VINA RESULT:      -1.3      0.000      0.000
REMARK  Name = 44716869
REMARK  13 active torsions:
REMARK  status: ('A' for Active; 'I' for Inactive)
REMARK    1  A    between atoms: O_2  and  C_15
REMARK    2  A    between atoms: O_2  and  C_24
REMARK    3  A    between atoms: O_3  and  C_16
REMARK    4  A    between atoms: O_4  and  C_20
REMARK    5  A    between atoms: N_7  and  C_25
REMARK    6  A    between atoms: N_8  and  C_26
REMARK    7  A    between atoms: C_9  and  C_19
REMARK    8  A    between atoms: C_11  and  C_20
REMARK    9  A    between atoms: C_11  and  C_21
REMARK   10  A    between atoms: C_12  and  C_22
REMARK   11  A    between atoms: C_22  and  C_23
REMARK   12  A    between atoms: C_25  and  C_27
REMARK   13  A    between atoms: C_26  and  C_28
REMARK                            x       y       z     vdW  Elec       q    Type
REMARK                         _______ _______ _______ _____ _____    ______ ____
ROOT
ATOM      9  C   UNL     1      -3.132   2.592  24.521  0.00  0.00    -0.023 C 
ATOM     10  C   UNL     1      -2.036   3.183  25.491  0.00  0.00    +0.007 C 
ATOM     11  C   UNL     1      -0.577   3.325  24.908  0.00  0.00    +0.031 C 
ATOM     12  C   UNL     1      -4.399   2.250  25.410  0.00  0.00    +0.032 C 
ATOM     13  C   UNL     1      -2.579   1.282  23.897  0.00  0.00    +0.011 C 
ATOM     14  C   UNL     1      -2.564   4.440  26.218  0.00  0.00    +0.007 C 
ATOM     15  C   UNL     1      -0.169   1.978  24.240  0.00  0.00    +0.186 C 
ATOM     16  C   UNL     1      -4.917   3.454  26.231  0.00  0.00    +0.119 C 
ATOM     17  C   UNL     1      -1.204   1.439  23.258  0.00  0.00    +0.046 C 
ATOM     18  C   UNL     1      -3.810   4.120  27.044  0.00  0.00    +0.032 C 
ATOM     19  C   UNL     1      -3.518   3.548  23.367  0.00  0.00    +0.012 C 
ATOM     21  C   UNL     1       0.415   3.584  26.079  0.00  0.00    +0.017 C 
ENDROOT
BRANCH  16   3
ATOM      3  O   UNL     1      -5.538   4.417  25.385  0.00  0.00    -0.391 OA
ATOM     32  H   UNL     1      -5.479   5.281  25.826  0.00  0.00    +0.210 HD
ENDBRANCH  16   3
BRANCH  15   2
ATOM      2  O   UNL     1       1.064   2.089  23.530  0.00  0.00    -0.446 OA
BRANCH   2  24
ATOM      6  O   UNL     1       1.107  -0.150  23.025  0.00  0.00    -0.226 OA
ATOM      8  N   UNL     1       3.054   1.105  23.170  0.00  0.00    -0.281 N 
ATOM     24  C   UNL     1       1.690   0.911  23.222  0.00  0.00    +0.401 C 
ATOM     35  H   UNL     1       3.411   2.038  23.348  0.00  0.00    +0.152 HD
BRANCH   8  26
ATOM     26  C   UNL     1       4.001   0.057  22.868  0.00  0.00    +0.104 C 
ATOM     28  C   UNL     1       5.294   0.239  23.636  0.00  0.00    +0.024 C 
ENDBRANCH   8  26
ENDBRANCH   2  24
ENDBRANCH  15   2
BRANCH  11  20
ATOM     20  C   UNL     1      -0.399   4.511  23.939  0.00  0.00    +0.166 C 
BRANCH  20   4
ATOM      4  O   UNL     1      -0.564   5.703  24.676  0.00  0.00    -0.394 OA
ATOM     33  H   UNL     1      -1.310   5.566  25.284  0.00  0.00    +0.209 HD
ENDBRANCH  20   4
ENDBRANCH  11  20
BRANCH  12  22
ATOM     22  C   UNL     1      -5.564   1.597  24.650  0.00  0.00    +0.102 C 
BRANCH  22  23
ATOM      5  O   UNL     1      -6.144  -0.631  23.905  0.00  0.00    -0.276 OA
ATOM      7  N   UNL     1      -4.385  -0.340  25.396  0.00  0.00    -0.311 N 
ATOM     23  C   UNL     1      -5.425   0.095  24.586  0.00  0.00    +0.214 C 
ATOM     34  H   UNL     1      -3.837   0.344  25.910  0.00  0.00    +0.149 HD
BRANCH   7  25
ATOM     25  C   UNL     1      -4.021  -1.732  25.536  0.00  0.00    +0.146 C 
BRANCH  25  27
ATOM      1  S   UNL     1      -1.398  -1.056  26.148  0.00  0.00    -0.100 S 
ATOM     27  C   UNL     1      -2.560  -1.958  25.272  0.00  0.00    +0.007 A 
ATOM     29  C   UNL     1      -1.975  -2.831  24.382  0.00  0.00    +0.013 A 
ATOM     30  C   UNL     1      -0.552  -2.759  24.419  0.00  0.00    +0.008 A 
ATOM     31  C   UNL     1      -0.105  -1.832  25.336  0.00  0.00    +0.045 A 
ENDBRANCH  25  27
ENDBRANCH   7  25
ENDBRANCH  22  23
ENDBRANCH  12  22
TORSDOF 10
ENDMDL
MODEL 2
REMARK VINA RESULT:       1.1      2.216      6.233
REMARK  Name = 44716869
REMARK  13 active torsions:
REMARK  status: ('A' for Active; 'I' for Inactive)
REMARK    1  A    between atoms: O_2  and  C_15
REMARK    2  A    between atoms: O_2  and  C_24
REMARK    3  A    between atoms: O_3  and  C_16
REMARK    4  A    between atoms: O_4  and  C_20
REMARK    5  A    between atoms: N_7  and  C_25
REMARK    6  A    between atoms: N_8  and  C_26
REMARK    7  A    between atoms: C_9  and  C_19
REMARK    8  A    between atoms: C_11  and  C_20
REMARK    9  A    between atoms: C_11  and  C_21
REMARK   10  A    between atoms: C_12  and  C_22
REMARK   11  A    between atoms: C_22  and  C_23
REMARK   12  A    between atoms: C_25  and  C_27
REMARK   13  A    between atoms: C_26  and  C_28
REMARK                            x       y       z     vdW  Elec       q    Type
REMARK                         _______ _______ _______ _____ _____    ______ ____
ROOT
ATOM      9  C   UNL     1      -2.624  -0.067  24.155  0.00  0.00    -0.023 C 
ATOM     10  C   UNL     1      -3.665   0.085  25.332  0.00  0.00    +0.007 C 
ATOM     11  C   UNL     1      -4.619   1.339  25.275  0.00  0.00    +0.031 C 
ATOM     12  C   UNL     1      -1.592  -1.187  24.594  0.00  0.00    +0.032 C 
ATOM     13  C   UNL     1      -1.873   1.281  23.988  0.00  0.00    +0.011 C 
ATOM     14  C   UNL     1      -4.380  -1.256  25.612  0.00  0.00    +0.007 C 
ATOM     15  C   UNL     1      -3.759   2.615  25.023  0.00  0.00    +0.186 C 
ATOM     16  C   UNL     1      -2.263  -2.528  24.972  0.00  0.00    +0.119 C 
ATOM     17  C   UNL     1      -2.797   2.486  23.848  0.00  0.00    +0.046 C 
ATOM     18  C   UNL     1      -3.381  -2.348  25.996  0.00  0.00    +0.032 C 
ATOM     19  C   UNL     1      -3.274  -0.427  22.797  0.00  0.00    +0.012 C 
ATOM     21  C   UNL     1      -5.314   1.513  26.657  0.00  0.00    +0.017 C 
ENDROOT
BRANCH  16   3
ATOM      3  O   UNL     1      -2.771  -3.187  23.817  0.00  0.00    -0.391 OA
ATOM     32  H   UNL     1      -2.477  -4.113  23.849  0.00  0.00    +0.210 HD
ENDBRANCH  16   3
BRANCH  15   2
ATOM      2  O   UNL     1      -4.571   3.762  24.777  0.00  0.00    -0.446 OA
BRANCH   2  24
ATOM      6  O   UNL     1      -4.332   5.773  23.694  0.00  0.00    -0.226 OA
ATOM      8  N   UNL     1      -2.695   4.954  25.120  0.00  0.00    -0.281 N 
ATOM     24  C   UNL     1      -3.904   4.914  24.458  0.00  0.00    +0.401 C 
ATOM     35  H   UNL     1      -2.460   4.179  25.732  0.00  0.00    +0.152 HD
BRANCH   8  26
ATOM     26  C   UNL     1      -1.750   6.039  24.999  0.00  0.00    +0.104 C 
ATOM     28  C   UNL     1      -0.380   5.541  24.587  0.00  0.00    +0.024 C 
ENDBRANCH   8  26
ENDBRANCH   2  24
ENDBRANCH  15   2
BRANCH  11  20
ATOM     20  C   UNL     1      -5.760   1.217  24.245  0.00  0.00    +0.166 C 
BRANCH  20   4
ATOM      4  O   UNL     1      -6.871   1.933  24.741  0.00  0.00    -0.394 OA
ATOM     33  H   UNL     1      -6.571   2.428  25.522  0.00  0.00    +0.209 HD
ENDBRANCH  20   4
ENDBRANCH  11  20
BRANCH  12  22
ATOM     22  C   UNL     1      -0.450  -1.439  23.597  0.00  0.00    +0.102 C 
BRANCH  22  23
ATOM      5  O   UNL     1       0.546   0.618  24.391  0.00  0.00    -0.276 OA
ATOM      7  N   UNL     1       1.435  -0.442  22.524  0.00  0.00    -0.311 N 
ATOM     23  C   UNL     1       0.543  -0.302  23.577  0.00  0.00    +0.214 C 
ATOM     34  H   UNL     1       1.359  -1.250  21.912  0.00  0.00    +0.149 HD
BRANCH   7  25
ATOM     25  C   UNL     1       2.496   0.502  22.256  0.00  0.00    +0.146 C 
BRANCH  25  27
ATOM      1  S   UNL     1       3.934  -1.415  23.659  0.00  0.00    -0.100 S 
ATOM     27  C   UNL     1       3.758   0.151  22.991  0.00  0.00    +0.007 A 
ATOM     29  C   UNL     1       4.862   0.941  23.225  0.00  0.00    +0.013 A 
ATOM     30  C   UNL     1       5.867   0.251  23.964  0.00  0.00    +0.008 A 
ATOM     31  C   UNL     1       5.491  -1.040  24.266  0.00  0.00    +0.045 A 
ENDBRANCH  25  27
ENDBRANCH   7  25
ENDBRANCH  22  23
ENDBRANCH  12  22
TORSDOF 10
ENDMDL
MODEL 3
REMARK VINA RESULT:       1.2      2.266      5.970
REMARK  Name = 44716869
REMARK  13 active torsions:
REMARK  status: ('A' for Active; 'I' for Inactive)
REMARK    1  A    between atoms: O_2  and  C_15
REMARK    2  A    between atoms: O_2  and  C_24
REMARK    3  A    between atoms: O_3  and  C_16
REMARK    4  A    between atoms: O_4  and  C_20
REMARK    5  A    between atoms: N_7  and  C_25
REMARK    6  A    between atoms: N_8  and  C_26
REMARK    7  A    between atoms: C_9  and  C_19
REMARK    8  A    between atoms: C_11  and  C_20
REMARK    9  A    between atoms: C_11  and  C_21
REMARK   10  A    between atoms: C_12  and  C_22
REMARK   11  A    between atoms: C_22  and  C_23
REMARK   12  A    between atoms: C_25  and  C_27
REMARK   13  A    between atoms: C_26  and  C_28
REMARK                            x       y       z     vdW  Elec       q    Type
REMARK                         _______ _______ _______ _____ _____    ______ ____
ROOT
ATOM      9  C   UNL     1      -2.400   0.167  24.897  0.00  0.00    -0.023 C 
ATOM     10  C   UNL     1      -3.977   0.140  24.951  0.00  0.00    +0.007 C 
ATOM     11  C   UNL     1      -4.715   1.522  24.775  0.00  0.00    +0.031 C 
ATOM     12  C   UNL     1      -1.895  -1.244  25.411  0.00  0.00    +0.032 C 
ATOM     13  C   UNL     1      -1.895   1.272  25.863  0.00  0.00    +0.011 C 
ATOM     14  C   UNL     1      -4.538  -1.006  24.080  0.00  0.00    +0.007 C 
ATOM     15  C   UNL     1      -4.068   2.564  25.736  0.00  0.00    +0.186 C 
ATOM     16  C   UNL     1      -2.497  -2.435  24.628  0.00  0.00    +0.119 C 
ATOM     17  C   UNL     1      -2.547   2.631  25.638  0.00  0.00    +0.046 C 
ATOM     18  C   UNL     1      -4.020  -2.365  24.550  0.00  0.00    +0.032 C 
ATOM     19  C   UNL     1      -1.834   0.468  23.487  0.00  0.00    +0.012 C 
ATOM     21  C   UNL     1      -6.205   1.361  25.199  0.00  0.00    +0.017 C 
ENDROOT
BRANCH  16   3
ATOM      3  O   UNL     1      -1.951  -2.510  23.315  0.00  0.00    -0.391 OA
ATOM     32  H   UNL     1      -1.967  -3.442  23.040  0.00  0.00    +0.210 HD
ENDBRANCH  16   3
BRANCH  15   2
ATOM      2  O   UNL     1      -4.562   3.883  25.500  0.00  0.00    -0.446 OA
BRANCH   2  24
ATOM      6  O   UNL     1      -4.015   5.268  23.752  0.00  0.00    -0.226 OA
ATOM      8  N   UNL     1      -2.535   4.857  25.492  0.00  0.00    -0.281 N 
ATOM     24  C   UNL     1      -3.728   4.723  24.813  0.00  0.00    +0.401 C 
ATOM     35  H   UNL     1      -2.425   4.356  26.367  0.00  0.00    +0.152 HD
BRANCH   8  26
ATOM     26  C   UNL     1      -1.439   5.678  25.032  0.00  0.00    +0.104 C 
ATOM     28  C   UNL     1      -0.296   4.835  24.504  0.00  0.00    +0.024 C 
ENDBRANCH   8  26
ENDBRANCH   2  24
ENDBRANCH  15   2
BRANCH  11  20
ATOM     20  C   UNL     1      -4.747   2.039  23.323  0.00  0.00    +0.166 C 
BRANCH  20   4
ATOM      4  O   UNL     1      -3.524   2.695  23.068  0.00  0.00    -0.394 OA
ATOM     33  H   UNL     1      -2.851   2.283  23.637  0.00  0.00    +0.209 HD
ENDBRANCH  20   4
ENDBRANCH  11  20
BRANCH  12  22
ATOM     22  C   UNL     1      -0.367  -1.394  25.493  0.00  0.00    +0.102 C 
BRANCH  22  23
ATOM      5  O   UNL     1       0.391   0.819  24.876  0.00  0.00    -0.276 OA
ATOM      7  N   UNL     1       0.930  -0.996  23.528  0.00  0.00    -0.311 N 
ATOM     23  C   UNL     1       0.345  -0.382  24.627  0.00  0.00    +0.214 C 
ATOM     34  H   UNL     1       0.848  -2.003  23.420  0.00  0.00    +0.149 HD
BRANCH   7  25
ATOM     25  C   UNL     1       1.676  -0.273  22.524  0.00  0.00    +0.146 C 
BRANCH  25  27
ATOM      1  S   UNL     1       3.953  -1.361  23.684  0.00  0.00    -0.100 S 
ATOM     27  C   UNL     1       3.111  -0.079  22.924  0.00  0.00    +0.007 A 
ATOM     29  C   UNL     1       3.902   1.038  22.765  0.00  0.00    +0.013 A 
ATOM     30  C   UNL     1       5.218   0.838  23.275  0.00  0.00    +0.008 A 
ATOM     31  C   UNL     1       5.382  -0.424  23.804  0.00  0.00    +0.045 A 
ENDBRANCH  25  27
ENDBRANCH   7  25
ENDBRANCH  22  23
ENDBRANCH  12  22
TORSDOF 10
ENDMDL
MODEL 4
REMARK VINA RESULT:       1.9      2.021      4.429
REMARK  Name = 44716869
REMARK  13 active torsions:
REMARK  status: ('A' for Active; 'I' for Inactive)
REMARK    1  A    between atoms: O_2  and  C_15
REMARK    2  A    between atoms: O_2  and  C_24
REMARK    3  A    between atoms: O_3  and  C_16
REMARK    4  A    between atoms: O_4  and  C_20
REMARK    5  A    between atoms: N_7  and  C_25
REMARK    6  A    between atoms: N_8  and  C_26
REMARK    7  A    between atoms: C_9  and  C_19
REMARK    8  A    between atoms: C_11  and  C_20
REMARK    9  A    between atoms: C_11  and  C_21
REMARK   10  A    between atoms: C_12  and  C_22
REMARK   11  A    between atoms: C_22  and  C_23
REMARK   12  A    between atoms: C_25  and  C_27
REMARK   13  A    between atoms: C_26  and  C_28
REMARK                            x       y       z     vdW  Elec       q    Type
REMARK                         _______ _______ _______ _____ _____    ______ ____
ROOT
ATOM      9  C   UNL     1      -3.046   0.935  24.205  0.00  0.00    -0.023 C 
ATOM     10  C   UNL     1      -2.897  -0.633  24.110  0.00  0.00    +0.007 C 
ATOM     11  C   UNL     1      -1.439  -1.215  24.262  0.00  0.00    +0.031 C 
ATOM     12  C   UNL     1      -4.509   1.290  23.708  0.00  0.00    +0.032 C 
ATOM     13  C   UNL     1      -2.011   1.586  23.248  0.00  0.00    +0.011 C 
ATOM     14  C   UNL     1      -3.966  -1.342  24.970  0.00  0.00    +0.007 C 
ATOM     15  C   UNL     1      -0.482  -0.430  23.315  0.00  0.00    +0.186 C 
ATOM     16  C   UNL     1      -5.619   0.538  24.478  0.00  0.00    +0.119 C 
ATOM     17  C   UNL     1      -0.586   1.085  23.453  0.00  0.00    +0.046 C 
ATOM     18  C   UNL     1      -5.378  -0.969  24.517  0.00  0.00    +0.032 C 
ATOM     19  C   UNL     1      -2.803   1.495  25.628  0.00  0.00    +0.012 C 
ATOM     21  C   UNL     1      -1.434  -2.702  23.800  0.00  0.00    +0.017 C 
ENDROOT
BRANCH  16   3
ATOM      3  O   UNL     1      -5.748   1.039  25.805  0.00  0.00    -0.391 OA
ATOM     32  H   UNL     1      -6.166   0.346  26.344  0.00  0.00    +0.210 HD
ENDBRANCH  16   3
BRANCH  15   2
ATOM      2  O   UNL     1       0.885  -0.778  23.535  0.00  0.00    -0.446 OA
BRANCH   2  24
ATOM      6  O   UNL     1       1.623  -0.299  21.414  0.00  0.00    -0.226 OA
ATOM      8  N   UNL     1       2.882   0.226  23.290  0.00  0.00    -0.281 N 
ATOM     24  C   UNL     1       1.785  -0.283  22.630  0.00  0.00    +0.401 C 
ATOM     35  H   UNL     1       2.891   0.184  24.305  0.00  0.00    +0.152 HD
BRANCH   8  26
ATOM     26  C   UNL     1       4.014   0.825  22.622  0.00  0.00    +0.104 C 
ATOM     28  C   UNL     1       5.325   0.307  23.177  0.00  0.00    +0.024 C 
ENDBRANCH   8  26
ENDBRANCH   2  24
ENDBRANCH  15   2
BRANCH  11  20
ATOM     20  C   UNL     1      -0.913  -1.226  25.712  0.00  0.00    +0.166 C 
BRANCH  20   4
ATOM      4  O   UNL     1       0.202  -2.089  25.763  0.00  0.00    -0.394 OA
ATOM     33  H   UNL     1       0.881  -1.653  26.305  0.00  0.00    +0.209 HD
ENDBRANCH  20   4
ENDBRANCH  11  20
BRANCH  12  22
ATOM     22  C   UNL     1      -4.830   2.793  23.667  0.00  0.00    +0.102 C 
BRANCH  22  23
ATOM      5  O   UNL     1      -4.531   3.668  25.902  0.00  0.00    -0.276 OA
ATOM      7  N   UNL     1      -2.926   4.097  24.278  0.00  0.00    -0.311 N 
ATOM     23  C   UNL     1      -4.110   3.554  24.755  0.00  0.00    +0.214 C 
ATOM     34  H   UNL     1      -2.657   3.932  23.312  0.00  0.00    +0.149 HD
BRANCH   7  25
ATOM     25  C   UNL     1      -2.030   4.881  25.097  0.00  0.00    +0.146 C 
BRANCH  25  27
ATOM      1  S   UNL     1       0.424   3.584  25.017  0.00  0.00    -0.100 S 
ATOM     27  C   UNL     1      -1.028   4.021  25.812  0.00  0.00    +0.007 A 
ATOM     29  C   UNL     1      -1.099   3.498  27.084  0.00  0.00    +0.013 A 
ATOM     30  C   UNL     1       0.055   2.727  27.411  0.00  0.00    +0.008 A 
ATOM     31  C   UNL     1       0.963   2.690  26.376  0.00  0.00    +0.045 A 
ENDBRANCH  25  27
ENDBRANCH   7  25
ENDBRANCH  22  23
ENDBRANCH  12  22
TORSDOF 10
ENDMDL
MODEL 5
REMARK VINA RESULT:       2.3      2.028      4.909
REMARK  Name = 44716869
REMARK  13 active torsions:
REMARK  status: ('A' for Active; 'I' for Inactive)
REMARK    1  A    between atoms: O_2  and  C_15
REMARK    2  A    between atoms: O_2  and  C_24
REMARK    3  A    between atoms: O_3  and  C_16
REMARK    4  A    between atoms: O_4  and  C_20
REMARK    5  A    between atoms: N_7  and  C_25
REMARK    6  A    between atoms: N_8  and  C_26
REMARK    7  A    between atoms: C_9  and  C_19
REMARK    8  A    between atoms: C_11  and  C_20
REMARK    9  A    between atoms: C_11  and  C_21
REMARK   10  A    between atoms: C_12  and  C_22
REMARK   11  A    between atoms: C_22  and  C_23
REMARK   12  A    between atoms: C_25  and  C_27
REMARK   13  A    between atoms: C_26  and  C_28
REMARK                            x       y       z     vdW  Elec       q    Type
REMARK                         _______ _______ _______ _____ _____    ______ ____
ROOT
ATOM      9  C   UNL     1      -2.226  -0.292  24.614  0.00  0.00    -0.023 C 
ATOM     10  C   UNL     1      -1.213  -1.136  23.747  0.00  0.00    +0.007 C 
ATOM     11  C   UNL     1       0.289  -0.653  23.743  0.00  0.00    +0.031 C 
ATOM     12  C   UNL     1      -3.684  -0.761  24.208  0.00  0.00    +0.032 C 
ATOM     13  C   UNL     1      -2.053   1.207  24.251  0.00  0.00    +0.011 C 
ATOM     14  C   UNL     1      -1.402  -2.649  23.994  0.00  0.00    +0.007 C 
ATOM     15  C   UNL     1       0.325   0.877  23.448  0.00  0.00    +0.186 C 
ATOM     16  C   UNL     1      -3.902  -2.286  24.352  0.00  0.00    +0.119 C 
ATOM     17  C   UNL     1      -0.611   1.697  24.329  0.00  0.00    +0.046 C 
ATOM     18  C   UNL     1      -2.821  -3.095  23.640  0.00  0.00    +0.032 C 
ATOM     19  C   UNL     1      -2.010  -0.444  26.140  0.00  0.00    +0.012 C 
ATOM     21  C   UNL     1       1.050  -1.368  22.589  0.00  0.00    +0.017 C 
ENDROOT
BRANCH  16   3
ATOM      3  O   UNL     1      -3.962  -2.664  25.724  0.00  0.00    -0.391 OA
ATOM     32  H   UNL     1      -4.817  -2.367  26.077  0.00  0.00    +0.210 HD
ENDBRANCH  16   3
BRANCH  15   2
ATOM      2  O   UNL     1       1.635   1.418  23.611  0.00  0.00    -0.446 OA
BRANCH   2  24
ATOM      6  O   UNL     1       2.471   0.338  21.765  0.00  0.00    -0.226 OA
ATOM      8  N   UNL     1       3.811   0.847  23.590  0.00  0.00    -0.281 N 
ATOM     24  C   UNL     1       2.628   0.821  22.882  0.00  0.00    +0.401 C 
ATOM     35  H   UNL     1       3.809   1.284  24.506  0.00  0.00    +0.152 HD
BRANCH   8  26
ATOM     26  C   UNL     1       5.052   0.298  23.098  0.00  0.00    +0.104 C 
ATOM     28  C   UNL     1       5.653  -0.687  24.080  0.00  0.00    +0.024 C 
ENDBRANCH   8  26
ENDBRANCH   2  24
ENDBRANCH  15   2
BRANCH  11  20
ATOM     20  C   UNL     1       1.064  -0.996  25.031  0.00  0.00    +0.166 C 
BRANCH  20   4
ATOM      4  O   UNL     1       0.525  -2.190  25.557  0.00  0.00    -0.394 OA
ATOM     33  H   UNL     1       0.344  -2.781  24.806  0.00  0.00    +0.209 HD
ENDBRANCH  20   4
ENDBRANCH  11  20
BRANCH  12  22
ATOM     22  C   UNL     1      -4.825  -0.003  24.906  0.00  0.00    +0.102 C 
BRANCH  22  23
ATOM      5  O   UNL     1      -4.579   1.915  23.452  0.00  0.00    -0.276 OA
ATOM      7  N   UNL     1      -5.088   2.234  25.697  0.00  0.00    -0.311 N 
ATOM     23  C   UNL     1      -4.810   1.470  24.572  0.00  0.00    +0.214 C 
ATOM     34  H   UNL     1      -5.282   1.767  26.579  0.00  0.00    +0.149 HD
BRANCH   7  25
ATOM     25  C   UNL     1      -5.138   3.678  25.678  0.00  0.00    +0.146 C 
BRANCH  25  27
ATOM      1  S   UNL     1      -2.500   4.134  26.417  0.00  0.00    -0.100 S 
ATOM     27  C   UNL     1      -3.809   4.280  25.323  0.00  0.00    +0.007 A 
ATOM     29  C   UNL     1      -3.458   4.974  24.186  0.00  0.00    +0.013 A 
ATOM     30  C   UNL     1      -2.095   5.392  24.213  0.00  0.00    +0.008 A 
ATOM     31  C   UNL     1      -1.458   5.001  25.371  0.00  0.00    +0.045 A 
ENDBRANCH  25  27
ENDBRANCH   7  25
ENDBRANCH  22  23
ENDBRANCH  12  22
TORSDOF 10
ENDMDL
