MODEL 1
REMARK VINA RESULT:       0.8      0.000      0.000
REMARK  Name = 75536891
REMARK  7 active torsions:
REMARK  status: ('A' for Active; 'I' for Inactive)
REMARK    1  A    between atoms: S_1  and  C_22
REMARK    2  A    between atoms: S_1  and  C_27
REMARK    3  A    between atoms: O_3  and  C_10
REMARK    4  A    between atoms: O_3  and  C_17
REMARK    5  A    between atoms: N_8  and  C_25
REMARK    6  A    between atoms: C_15  and  C_16
REMARK    7  A    between atoms: C_21  and  C_26
REMARK                            x       y       z     vdW  Elec       q    Type
REMARK                         _______ _______ _______ _____ _____    ______ ____
ROOT
ATOM      2  O   UNL     1      -4.969   5.331  25.269  0.00  0.00    -0.375 OA
ATOM      4  O   UNL     1      -6.361   0.733  24.801  0.00  0.00    -0.268 OA
ATOM      7  N   UNL     1      -4.796   2.231  25.693  0.00  0.00    -0.291 N 
ATOM     10  C   UNL     1      -3.065   4.061  26.111  0.00  0.00    +0.216 C 
ATOM     11  C   UNL     1      -3.391   2.574  25.944  0.00  0.00    +0.155 C 
ATOM     12  C   UNL     1      -5.827   3.191  26.092  0.00  0.00    +0.136 C 
ATOM     13  C   UNL     1      -3.632   4.930  24.991  0.00  0.00    +0.206 C 
ATOM     14  C   UNL     1      -5.949   4.318  25.074  0.00  0.00    +0.179 C 
ATOM     15  C   UNL     1      -5.199   1.045  25.059  0.00  0.00    +0.265 C 
ENDROOT
BRANCH  15  16
ATOM      8  N   UNL     1      -3.254   0.263  23.659  0.00  0.00    -0.262 N 
ATOM      9  N   UNL     1      -2.413  -0.771  23.493  0.00  0.00    -0.176 NA
ATOM     16  C   UNL     1      -4.163   0.080  24.660  0.00  0.00    +0.123 A 
ATOM     18  C   UNL     1      -3.898  -1.161  25.184  0.00  0.00    +0.057 A 
ATOM     21  C   UNL     1      -2.811  -1.638  24.428  0.00  0.00    +0.061 A 
ATOM     25  C   UNL     1      -3.127   1.421  22.803  0.00  0.00    +0.173 C 
ATOM     26  C   UNL     1      -2.118  -2.929  24.569  0.00  0.00    +0.067 C 
ENDBRANCH  15  16
BRANCH  10   3
ATOM      3  O   UNL     1      -1.641   4.173  26.111  0.00  0.00    -0.485 OA
BRANCH   3  17
ATOM     17  C   UNL     1      -0.951   3.212  25.425  0.00  0.00    +0.121 A 
ATOM     19  C   UNL     1      -0.363   3.517  24.197  0.00  0.00    +0.047 A 
ATOM     20  C   UNL     1      -0.837   1.926  25.952  0.00  0.00    +0.047 A 
ATOM     22  C   UNL     1       0.455   1.250  24.026  0.00  0.00    +0.088 A 
ATOM     23  C   UNL     1       0.340   2.536  23.498  0.00  0.00    +0.030 A 
ATOM     24  C   UNL     1      -0.134   0.945  25.254  0.00  0.00    +0.030 A 
BRANCH  22   1
ATOM      1  S   UNL     1       1.331   0.022  23.148  0.00  0.00    -0.006 S 
ATOM      5  O   UNL     1       1.498  -1.144  24.007  0.00  0.00    -0.170 OA
ATOM      6  O   UNL     1       0.708  -0.127  21.841  0.00  0.00    -0.170 OA
ATOM     27  C   UNL     1       2.949   0.721  22.906  0.00  0.00    +0.200 C 
ENDBRANCH  22   1
ENDBRANCH   3  17
ENDBRANCH  10   3
TORSDOF 4
ENDMDL
MODEL 2
REMARK VINA RESULT:       1.1      2.463      4.458
REMARK  Name = 75536891
REMARK  7 active torsions:
REMARK  status: ('A' for Active; 'I' for Inactive)
REMARK    1  A    between atoms: S_1  and  C_22
REMARK    2  A    between atoms: S_1  and  C_27
REMARK    3  A    between atoms: O_3  and  C_10
REMARK    4  A    between atoms: O_3  and  C_17
REMARK    5  A    between atoms: N_8  and  C_25
REMARK    6  A    between atoms: C_15  and  C_16
REMARK    7  A    between atoms: C_21  and  C_26
REMARK                            x       y       z     vdW  Elec       q    Type
REMARK                         _______ _______ _______ _____ _____    ______ ____
ROOT
ATOM      2  O   UNL     1       0.635   4.302  23.685  0.00  0.00    -0.375 OA
ATOM      4  O   UNL     1      -4.070   5.293  24.112  0.00  0.00    -0.268 OA
ATOM      7  N   UNL     1      -2.176   4.299  25.069  0.00  0.00    -0.291 N 
ATOM     10  C   UNL     1      -0.072   2.949  25.587  0.00  0.00    +0.216 C 
ATOM     11  C   UNL     1      -1.579   3.152  25.764  0.00  0.00    +0.155 C 
ATOM     12  C   UNL     1      -1.304   5.411  24.687  0.00  0.00    +0.136 C 
ATOM     13  C   UNL     1       0.371   2.975  24.126  0.00  0.00    +0.206 C 
ATOM     14  C   UNL     1      -0.524   5.084  23.419  0.00  0.00    +0.179 C 
ATOM     15  C   UNL     1      -3.535   4.367  24.721  0.00  0.00    +0.265 C 
ENDROOT
BRANCH  15  16
ATOM      8  N   UNL     1      -4.437   2.023  24.512  0.00  0.00    -0.262 N 
ATOM      9  N   UNL     1      -5.330   1.176  25.051  0.00  0.00    -0.176 NA
ATOM     16  C   UNL     1      -4.412   3.250  25.106  0.00  0.00    +0.123 A 
ATOM     18  C   UNL     1      -5.354   3.203  26.104  0.00  0.00    +0.057 A 
ATOM     21  C   UNL     1      -5.887   1.903  26.024  0.00  0.00    +0.061 A 
ATOM     25  C   UNL     1      -3.623   1.579  23.403  0.00  0.00    +0.173 C 
ATOM     26  C   UNL     1      -6.939   1.312  26.867  0.00  0.00    +0.067 C 
ENDBRANCH  15  16
BRANCH  10   3
ATOM      3  O   UNL     1       0.241   1.673  26.146  0.00  0.00    -0.485 OA
BRANCH   3  17
ATOM     17  C   UNL     1      -0.526   0.619  25.733  0.00  0.00    +0.121 A 
ATOM     19  C   UNL     1      -0.199  -0.065  24.562  0.00  0.00    +0.047 A 
ATOM     20  C   UNL     1      -1.636   0.229  26.482  0.00  0.00    +0.047 A 
ATOM     22  C   UNL     1      -2.092  -1.530  24.890  0.00  0.00    +0.088 A 
ATOM     23  C   UNL     1      -0.982  -1.139  24.141  0.00  0.00    +0.030 A 
ATOM     24  C   UNL     1      -2.419  -0.846  26.061  0.00  0.00    +0.030 A 
BRANCH  22   1
ATOM      1  S   UNL     1      -3.074  -2.872  24.359  0.00  0.00    -0.006 S 
ATOM      5  O   UNL     1      -2.333  -3.634  23.362  0.00  0.00    -0.170 OA
ATOM      6  O   UNL     1      -3.594  -3.544  25.542  0.00  0.00    -0.170 OA
ATOM     27  C   UNL     1      -4.444  -2.112  23.517  0.00  0.00    +0.200 C 
ENDBRANCH  22   1
ENDBRANCH   3  17
ENDBRANCH  10   3
TORSDOF 4
ENDMDL
MODEL 3
REMARK VINA RESULT:       1.1      2.323      5.604
REMARK  Name = 75536891
REMARK  7 active torsions:
REMARK  status: ('A' for Active; 'I' for Inactive)
REMARK    1  A    between atoms: S_1  and  C_22
REMARK    2  A    between atoms: S_1  and  C_27
REMARK    3  A    between atoms: O_3  and  C_10
REMARK    4  A    between atoms: O_3  and  C_17
REMARK    5  A    between atoms: N_8  and  C_25
REMARK    6  A    between atoms: C_15  and  C_16
REMARK    7  A    between atoms: C_21  and  C_26
REMARK                            x       y       z     vdW  Elec       q    Type
REMARK                         _______ _______ _______ _____ _____    ______ ____
ROOT
ATOM      2  O   UNL     1      -4.613  -2.901  23.635  0.00  0.00    -0.375 OA
ATOM      4  O   UNL     1      -0.131  -2.237  25.300  0.00  0.00    -0.268 OA
ATOM      7  N   UNL     1      -2.364  -1.527  25.331  0.00  0.00    -0.291 N 
ATOM     10  C   UNL     1      -4.732  -0.749  24.778  0.00  0.00    +0.216 C 
ATOM     11  C   UNL     1      -3.328  -0.420  25.292  0.00  0.00    +0.155 C 
ATOM     12  C   UNL     1      -2.880  -2.897  25.364  0.00  0.00    +0.136 C 
ATOM     13  C   UNL     1      -4.726  -1.495  23.445  0.00  0.00    +0.206 C 
ATOM     14  C   UNL     1      -3.308  -3.355  23.975  0.00  0.00    +0.179 C 
ATOM     15  C   UNL     1      -0.973  -1.339  25.302  0.00  0.00    +0.265 C 
ENDROOT
BRANCH  15  16
ATOM      8  N   UNL     1       0.253   0.594  24.244  0.00  0.00    -0.262 N 
ATOM      9  N   UNL     1       0.611   1.870  24.460  0.00  0.00    -0.176 NA
ATOM     16  C   UNL     1      -0.455   0.038  25.269  0.00  0.00    +0.123 A 
ATOM     18  C   UNL     1      -0.567   1.019  26.223  0.00  0.00    +0.057 A 
ATOM     21  C   UNL     1       0.107   2.125  25.672  0.00  0.00    +0.061 A 
ATOM     25  C   UNL     1       0.631  -0.045  23.004  0.00  0.00    +0.173 C 
ATOM     26  C   UNL     1       0.294   3.455  26.275  0.00  0.00    +0.067 C 
ENDBRANCH  15  16
BRANCH  10   3
ATOM      3  O   UNL     1      -5.412   0.496  24.612  0.00  0.00    -0.485 OA
BRANCH   3  17
ATOM     17  C   UNL     1      -4.632   1.617  24.564  0.00  0.00    +0.121 A 
ATOM     19  C   UNL     1      -4.857   2.664  25.458  0.00  0.00    +0.047 A 
ATOM     20  C   UNL     1      -3.610   1.715  23.619  0.00  0.00    +0.047 A 
ATOM     22  C   UNL     1      -3.039   3.905  24.463  0.00  0.00    +0.088 A 
ATOM     23  C   UNL     1      -4.061   3.807  25.408  0.00  0.00    +0.030 A 
ATOM     24  C   UNL     1      -2.813   2.858  23.569  0.00  0.00    +0.030 A 
BRANCH  22   1
ATOM      1  S   UNL     1      -2.044   5.339  24.398  0.00  0.00    -0.006 S 
ATOM      5  O   UNL     1      -2.710   6.337  23.571  0.00  0.00    -0.170 OA
ATOM      6  O   UNL     1      -1.650   5.674  25.759  0.00  0.00    -0.170 OA
ATOM     27  C   UNL     1      -0.587   4.826  23.516  0.00  0.00    +0.200 C 
ENDBRANCH  22   1
ENDBRANCH   3  17
ENDBRANCH  10   3
TORSDOF 4
ENDMDL
MODEL 4
REMARK VINA RESULT:       1.7      2.510      4.699
REMARK  Name = 75536891
REMARK  7 active torsions:
REMARK  status: ('A' for Active; 'I' for Inactive)
REMARK    1  A    between atoms: S_1  and  C_22
REMARK    2  A    between atoms: S_1  and  C_27
REMARK    3  A    between atoms: O_3  and  C_10
REMARK    4  A    between atoms: O_3  and  C_17
REMARK    5  A    between atoms: N_8  and  C_25
REMARK    6  A    between atoms: C_15  and  C_16
REMARK    7  A    between atoms: C_21  and  C_26
REMARK                            x       y       z     vdW  Elec       q    Type
REMARK                         _______ _______ _______ _____ _____    ______ ____
ROOT
ATOM      2  O   UNL     1      -3.925   4.959  26.416  0.00  0.00    -0.375 OA
ATOM      4  O   UNL     1       0.739   3.944  25.701  0.00  0.00    -0.268 OA
ATOM      7  N   UNL     1      -1.431   3.939  24.817  0.00  0.00    -0.291 N 
ATOM     10  C   UNL     1      -3.925   3.653  24.356  0.00  0.00    +0.216 C 
ATOM     11  C   UNL     1      -2.481   3.228  24.077  0.00  0.00    +0.155 C 
ATOM     12  C   UNL     1      -1.738   5.264  25.360  0.00  0.00    +0.136 C 
ATOM     13  C   UNL     1      -4.263   3.699  25.844  0.00  0.00    +0.206 C 
ATOM     14  C   UNL     1      -2.536   5.154  26.653  0.00  0.00    +0.179 C 
ATOM     15  C   UNL     1      -0.158   3.398  25.060  0.00  0.00    +0.265 C 
ENDROOT
BRANCH  15  16
ATOM      8  N   UNL     1      -0.362   0.887  24.966  0.00  0.00    -0.262 N 
ATOM      9  N   UNL     1       0.080  -0.190  24.295  0.00  0.00    -0.176 NA
ATOM     16  C   UNL     1       0.151   2.067  24.513  0.00  0.00    +0.123 A 
ATOM     18  C   UNL     1       0.987   1.739  23.474  0.00  0.00    +0.057 A 
ATOM     21  C   UNL     1       0.903   0.337  23.384  0.00  0.00    +0.061 A 
ATOM     25  C   UNL     1      -1.295   0.707  26.055  0.00  0.00    +0.173 C 
ATOM     26  C   UNL     1       1.601  -0.544  22.434  0.00  0.00    +0.067 C 
ENDBRANCH  15  16
BRANCH  10   3
ATOM      3  O   UNL     1      -4.767   2.692  23.717  0.00  0.00    -0.485 OA
BRANCH   3  17
ATOM     17  C   UNL     1      -4.447   1.376  23.906  0.00  0.00    +0.121 A 
ATOM     19  C   UNL     1      -4.982   0.675  24.986  0.00  0.00    +0.047 A 
ATOM     20  C   UNL     1      -3.584   0.736  23.016  0.00  0.00    +0.047 A 
ATOM     22  C   UNL     1      -3.791  -1.308  24.288  0.00  0.00    +0.088 A 
ATOM     23  C   UNL     1      -4.653  -0.667  25.177  0.00  0.00    +0.030 A 
ATOM     24  C   UNL     1      -3.256  -0.606  23.207  0.00  0.00    +0.030 A 
BRANCH  22   1
ATOM      1  S   UNL     1      -3.377  -2.987  24.531  0.00  0.00    -0.006 S 
ATOM      5  O   UNL     1      -3.367  -3.268  25.961  0.00  0.00    -0.170 OA
ATOM      6  O   UNL     1      -4.208  -3.787  23.642  0.00  0.00    -0.170 OA
ATOM     27  C   UNL     1      -1.695  -3.113  23.966  0.00  0.00    +0.200 C 
ENDBRANCH  22   1
ENDBRANCH   3  17
ENDBRANCH  10   3
TORSDOF 4
ENDMDL
MODEL 5
REMARK VINA RESULT:       1.7      2.191      3.575
REMARK  Name = 75536891
REMARK  7 active torsions:
REMARK  status: ('A' for Active; 'I' for Inactive)
REMARK    1  A    between atoms: S_1  and  C_22
REMARK    2  A    between atoms: S_1  and  C_27
REMARK    3  A    between atoms: O_3  and  C_10
REMARK    4  A    between atoms: O_3  and  C_17
REMARK    5  A    between atoms: N_8  and  C_25
REMARK    6  A    between atoms: C_15  and  C_16
REMARK    7  A    between atoms: C_21  and  C_26
REMARK                            x       y       z     vdW  Elec       q    Type
REMARK                         _______ _______ _______ _____ _____    ______ ____
ROOT
ATOM      2  O   UNL     1      -0.901   6.077  24.727  0.00  0.00    -0.375 OA
ATOM      4  O   UNL     1      -5.294   4.206  25.438  0.00  0.00    -0.268 OA
ATOM      7  N   UNL     1      -2.979   3.936  25.684  0.00  0.00    -0.291 N 
ATOM     10  C   UNL     1      -0.450   3.770  25.376  0.00  0.00    +0.216 C 
ATOM     11  C   UNL     1      -1.799   3.070  25.566  0.00  0.00    +0.155 C 
ATOM     12  C   UNL     1      -2.783   5.326  26.100  0.00  0.00    +0.136 C 
ATOM     13  C   UNL     1      -0.462   4.807  24.256  0.00  0.00    +0.206 C 
ATOM     14  C   UNL     1      -2.305   6.184  24.936  0.00  0.00    +0.179 C 
ATOM     15  C   UNL     1      -4.282   3.507  25.384  0.00  0.00    +0.265 C 
ENDROOT
BRANCH  15  16
ATOM      8  N   UNL     1      -5.407   1.253  25.481  0.00  0.00    -0.262 N 
ATOM      9  N   UNL     1      -5.382   0.030  24.927  0.00  0.00    -0.176 NA
ATOM     16  C   UNL     1      -4.479   2.110  24.966  0.00  0.00    +0.123 A 
ATOM     18  C   UNL     1      -3.799   1.397  24.010  0.00  0.00    +0.057 A 
ATOM     21  C   UNL     1      -4.398   0.123  24.028  0.00  0.00    +0.061 A 
ATOM     25  C   UNL     1      -6.368   1.538  26.522  0.00  0.00    +0.173 C 
ATOM     26  C   UNL     1      -4.055  -1.042  23.196  0.00  0.00    +0.067 C 
ENDBRANCH  15  16
BRANCH  10   3
ATOM      3  O   UNL     1       0.500   2.752  25.058  0.00  0.00    -0.485 OA
BRANCH   3  17
ATOM     17  C   UNL     1       0.027   1.471  24.997  0.00  0.00    +0.121 A 
ATOM     19  C   UNL     1      -0.673   0.933  26.077  0.00  0.00    +0.047 A 
ATOM     20  C   UNL     1       0.245   0.701  23.854  0.00  0.00    +0.047 A 
ATOM     22  C   UNL     1      -0.937  -1.144  24.871  0.00  0.00    +0.088 A 
ATOM     23  C   UNL     1      -1.155  -0.374  26.013  0.00  0.00    +0.030 A 
ATOM     24  C   UNL     1      -0.237  -0.606  23.790  0.00  0.00    +0.030 A 
BRANCH  22   1
ATOM      1  S   UNL     1      -1.537  -2.782  24.794  0.00  0.00    -0.006 S 
ATOM      5  O   UNL     1      -1.783  -3.129  23.400  0.00  0.00    -0.170 OA
ATOM      6  O   UNL     1      -0.663  -3.618  25.604  0.00  0.00    -0.170 OA
ATOM     27  C   UNL     1      -3.123  -2.709  25.597  0.00  0.00    +0.200 C 
ENDBRANCH  22   1
ENDBRANCH   3  17
ENDBRANCH  10   3
TORSDOF 4
ENDMDL
MODEL 6
REMARK VINA RESULT:       1.9      1.244      1.500
REMARK  Name = 75536891
REMARK  7 active torsions:
REMARK  status: ('A' for Active; 'I' for Inactive)
REMARK    1  A    between atoms: S_1  and  C_22
REMARK    2  A    between atoms: S_1  and  C_27
REMARK    3  A    between atoms: O_3  and  C_10
REMARK    4  A    between atoms: O_3  and  C_17
REMARK    5  A    between atoms: N_8  and  C_25
REMARK    6  A    between atoms: C_15  and  C_16
REMARK    7  A    between atoms: C_21  and  C_26
REMARK                            x       y       z     vdW  Elec       q    Type
REMARK                         _______ _______ _______ _____ _____    ______ ____
ROOT
ATOM      2  O   UNL     1      -4.997   4.338  24.488  0.00  0.00    -0.375 OA
ATOM      4  O   UNL     1      -5.733  -0.401  25.033  0.00  0.00    -0.268 OA
ATOM      7  N   UNL     1      -4.410   1.457  25.570  0.00  0.00    -0.291 N 
ATOM     10  C   UNL     1      -2.956   3.555  25.570  0.00  0.00    +0.216 C 
ATOM     11  C   UNL     1      -3.070   2.037  25.731  0.00  0.00    +0.155 C 
ATOM     12  C   UNL     1      -5.571   2.326  25.759  0.00  0.00    +0.136 C 
ATOM     13  C   UNL     1      -3.611   4.077  24.293  0.00  0.00    +0.206 C 
ATOM     14  C   UNL     1      -5.823   3.180  24.523  0.00  0.00    +0.179 C 
ATOM     15  C   UNL     1      -4.631   0.117  25.210  0.00  0.00    +0.265 C 
ENDROOT
BRANCH  15  16
ATOM      8  N   UNL     1      -3.433  -1.884  24.253  0.00  0.00    -0.262 N 
ATOM      9  N   UNL     1      -2.242  -2.506  24.246  0.00  0.00    -0.176 NA
ATOM     16  C   UNL     1      -3.463  -0.757  25.021  0.00  0.00    +0.123 A 
ATOM     18  C   UNL     1      -2.203  -0.634  25.555  0.00  0.00    +0.057 A 
ATOM     21  C   UNL     1      -1.494  -1.737  25.043  0.00  0.00    +0.061 A 
ATOM     25  C   UNL     1      -4.523  -2.438  23.483  0.00  0.00    +0.173 C 
ATOM     26  C   UNL     1      -0.089  -2.095  25.295  0.00  0.00    +0.067 C 
ENDBRANCH  15  16
BRANCH  10   3
ATOM      3  O   UNL     1      -1.561   3.862  25.537  0.00  0.00    -0.485 OA
BRANCH   3  17
ATOM     17  C   UNL     1      -0.753   2.965  24.894  0.00  0.00    +0.121 A 
ATOM     19  C   UNL     1      -1.168   2.388  23.693  0.00  0.00    +0.047 A 
ATOM     20  C   UNL     1       0.486   2.629  25.438  0.00  0.00    +0.047 A 
ATOM     22  C   UNL     1       0.897   1.138  23.583  0.00  0.00    +0.088 A 
ATOM     23  C   UNL     1      -0.342   1.474  23.038  0.00  0.00    +0.030 A 
ATOM     24  C   UNL     1       1.311   1.715  24.784  0.00  0.00    +0.030 A 
BRANCH  22   1
ATOM      1  S   UNL     1       1.927  -0.010  22.764  0.00  0.00    -0.006 S 
ATOM      5  O   UNL     1       2.187  -1.132  23.658  0.00  0.00    -0.170 OA
ATOM      6  O   UNL     1       1.366  -0.254  21.443  0.00  0.00    -0.170 OA
ATOM     27  C   UNL     1       3.469   0.852  22.554  0.00  0.00    +0.200 C 
ENDBRANCH  22   1
ENDBRANCH   3  17
ENDBRANCH  10   3
TORSDOF 4
ENDMDL
MODEL 7
REMARK VINA RESULT:       2.2      2.524      4.774
REMARK  Name = 75536891
REMARK  7 active torsions:
REMARK  status: ('A' for Active; 'I' for Inactive)
REMARK    1  A    between atoms: S_1  and  C_22
REMARK    2  A    between atoms: S_1  and  C_27
REMARK    3  A    between atoms: O_3  and  C_10
REMARK    4  A    between atoms: O_3  and  C_17
REMARK    5  A    between atoms: N_8  and  C_25
REMARK    6  A    between atoms: C_15  and  C_16
REMARK    7  A    between atoms: C_21  and  C_26
REMARK                            x       y       z     vdW  Elec       q    Type
REMARK                         _______ _______ _______ _____ _____    ______ ____
ROOT
ATOM      2  O   UNL     1      -1.972   5.659  25.324  0.00  0.00    -0.375 OA
ATOM      4  O   UNL     1       1.643   2.731  24.036  0.00  0.00    -0.268 OA
ATOM      7  N   UNL     1      -0.654   3.184  23.926  0.00  0.00    -0.291 N 
ATOM     10  C   UNL     1      -3.108   3.711  24.393  0.00  0.00    +0.216 C 
ATOM     11  C   UNL     1      -2.034   2.689  24.008  0.00  0.00    +0.155 C 
ATOM     12  C   UNL     1      -0.440   4.618  23.724  0.00  0.00    +0.136 C 
ATOM     13  C   UNL     1      -2.755   4.513  25.644  0.00  0.00    +0.206 C 
ATOM     14  C   UNL     1      -0.607   5.385  25.029  0.00  0.00    +0.179 C 
ATOM     15  C   UNL     1       0.471   2.355  24.066  0.00  0.00    +0.265 C 
ENDROOT
BRANCH  15  16
ATOM      8  N   UNL     1       0.764  -0.081  23.484  0.00  0.00    -0.262 N 
ATOM      9  N   UNL     1       0.419  -1.316  23.882  0.00  0.00    -0.176 NA
ATOM     16  C   UNL     1       0.256   0.914  24.268  0.00  0.00    +0.123 A 
ATOM     18  C   UNL     1      -0.474   0.284  25.246  0.00  0.00    +0.057 A 
ATOM     21  C   UNL     1      -0.338  -1.087  24.959  0.00  0.00    +0.061 A 
ATOM     25  C   UNL     1       1.603   0.077  22.318  0.00  0.00    +0.173 C 
ATOM     26  C   UNL     1      -0.920  -2.220  25.698  0.00  0.00    +0.067 C 
ENDBRANCH  15  16
BRANCH  10   3
ATOM      3  O   UNL     1      -4.308   2.975  24.635  0.00  0.00    -0.485 OA
BRANCH   3  17
ATOM     17  C   UNL     1      -4.221   1.614  24.541  0.00  0.00    +0.121 A 
ATOM     19  C   UNL     1      -4.592   0.814  25.622  0.00  0.00    +0.047 A 
ATOM     20  C   UNL     1      -3.761   1.025  23.363  0.00  0.00    +0.047 A 
ATOM     22  C   UNL     1      -4.042  -1.163  24.348  0.00  0.00    +0.088 A 
ATOM     23  C   UNL     1      -4.502  -0.574  25.525  0.00  0.00    +0.030 A 
ATOM     24  C   UNL     1      -3.671  -0.363  23.266  0.00  0.00    +0.030 A 
BRANCH  22   1
ATOM      1  S   UNL     1      -3.926  -2.901  24.229  0.00  0.00    -0.006 S 
ATOM      5  O   UNL     1      -3.777  -3.457  25.568  0.00  0.00    -0.170 OA
ATOM      6  O   UNL     1      -5.006  -3.365  23.369  0.00  0.00    -0.170 OA
ATOM     27  C   UNL     1      -2.390  -3.184  23.377  0.00  0.00    +0.200 C 
ENDBRANCH  22   1
ENDBRANCH   3  17
ENDBRANCH  10   3
TORSDOF 4
ENDMDL
MODEL 8
REMARK VINA RESULT:       2.3      2.130      4.218
REMARK  Name = 75536891
REMARK  7 active torsions:
REMARK  status: ('A' for Active; 'I' for Inactive)
REMARK    1  A    between atoms: S_1  and  C_22
REMARK    2  A    between atoms: S_1  and  C_27
REMARK    3  A    between atoms: O_3  and  C_10
REMARK    4  A    between atoms: O_3  and  C_17
REMARK    5  A    between atoms: N_8  and  C_25
REMARK    6  A    between atoms: C_15  and  C_16
REMARK    7  A    between atoms: C_21  and  C_26
REMARK                            x       y       z     vdW  Elec       q    Type
REMARK                         _______ _______ _______ _____ _____    ______ ____
ROOT
ATOM      2  O   UNL     1      -5.986   4.150  26.133  0.00  0.00    -0.375 OA
ATOM      4  O   UNL     1      -1.469   4.990  24.652  0.00  0.00    -0.268 OA
ATOM      7  N   UNL     1      -3.428   3.736  24.371  0.00  0.00    -0.291 N 
ATOM     10  C   UNL     1      -5.506   2.278  24.644  0.00  0.00    +0.216 C 
ATOM     11  C   UNL     1      -4.058   2.425  24.168  0.00  0.00    +0.155 C 
ATOM     12  C   UNL     1      -4.293   4.905  24.534  0.00  0.00    +0.136 C 
ATOM     13  C   UNL     1      -5.718   2.752  26.080  0.00  0.00    +0.206 C 
ATOM     14  C   UNL     1      -4.847   4.983  25.952  0.00  0.00    +0.179 C 
ATOM     15  C   UNL     1      -2.038   3.918  24.451  0.00  0.00    +0.265 C 
ENDROOT
BRANCH  15  16
ATOM      8  N   UNL     1      -0.371   2.205  25.254  0.00  0.00    -0.262 N 
ATOM      9  N   UNL     1       0.325   1.130  24.849  0.00  0.00    -0.176 NA
ATOM     16  C   UNL     1      -1.169   2.742  24.286  0.00  0.00    +0.123 A 
ATOM     18  C   UNL     1      -0.979   1.965  23.170  0.00  0.00    +0.057 A 
ATOM     21  C   UNL     1      -0.051   0.988  23.574  0.00  0.00    +0.061 A 
ATOM     25  C   UNL     1      -0.221   2.673  26.613  0.00  0.00    +0.173 C 
ATOM     26  C   UNL     1       0.508  -0.108  22.766  0.00  0.00    +0.067 C 
ENDBRANCH  15  16
BRANCH  10   3
ATOM      3  O   UNL     1      -5.827   0.888  24.561  0.00  0.00    -0.485 OA
BRANCH   3  17
ATOM     17  C   UNL     1      -4.778   0.013  24.614  0.00  0.00    +0.121 A 
ATOM     19  C   UNL     1      -3.751   0.210  25.538  0.00  0.00    +0.047 A 
ATOM     20  C   UNL     1      -4.735  -1.076  23.744  0.00  0.00    +0.047 A 
ATOM     22  C   UNL     1      -2.639  -1.773  24.720  0.00  0.00    +0.088 A 
ATOM     23  C   UNL     1      -2.681  -0.683  25.590  0.00  0.00    +0.030 A 
ATOM     24  C   UNL     1      -3.666  -1.969  23.797  0.00  0.00    +0.030 A 
BRANCH  22   1
ATOM      1  S   UNL     1      -1.297  -2.888  24.784  0.00  0.00    -0.006 S 
ATOM      5  O   UNL     1      -1.613  -3.954  25.727  0.00  0.00    -0.170 OA
ATOM      6  O   UNL     1      -0.923  -3.221  23.417  0.00  0.00    -0.170 OA
ATOM     27  C   UNL     1       0.030  -1.942  25.499  0.00  0.00    +0.200 C 
ENDBRANCH  22   1
ENDBRANCH   3  17
ENDBRANCH  10   3
TORSDOF 4
ENDMDL
MODEL 9
REMARK VINA RESULT:       2.6      2.006      5.336
REMARK  Name = 75536891
REMARK  7 active torsions:
REMARK  status: ('A' for Active; 'I' for Inactive)
REMARK    1  A    between atoms: S_1  and  C_22
REMARK    2  A    between atoms: S_1  and  C_27
REMARK    3  A    between atoms: O_3  and  C_10
REMARK    4  A    between atoms: O_3  and  C_17
REMARK    5  A    between atoms: N_8  and  C_25
REMARK    6  A    between atoms: C_15  and  C_16
REMARK    7  A    between atoms: C_21  and  C_26
REMARK                            x       y       z     vdW  Elec       q    Type
REMARK                         _______ _______ _______ _____ _____    ______ ____
ROOT
ATOM      2  O   UNL     1      -0.459  -3.101  25.329  0.00  0.00    -0.375 OA
ATOM      4  O   UNL     1      -4.940  -1.775  24.117  0.00  0.00    -0.268 OA
ATOM      7  N   UNL     1      -2.646  -1.317  23.968  0.00  0.00    -0.291 N 
ATOM     10  C   UNL     1      -0.169  -0.867  24.393  0.00  0.00    +0.216 C 
ATOM     11  C   UNL     1      -1.558  -0.333  24.032  0.00  0.00    +0.155 C 
ATOM     12  C   UNL     1      -2.300  -2.724  23.760  0.00  0.00    +0.136 C 
ATOM     13  C   UNL     1      -0.168  -1.743  25.644  0.00  0.00    +0.206 C 
ATOM     14  C   UNL     1      -1.830  -3.370  25.058  0.00  0.00    +0.179 C 
ATOM     15  C   UNL     1      -4.000  -0.980  24.131  0.00  0.00    +0.265 C 
ENDROOT
BRANCH  15  16
ATOM      8  N   UNL     1      -3.906   1.478  23.580  0.00  0.00    -0.262 N 
ATOM      9  N   UNL     1      -4.370   2.674  23.978  0.00  0.00    -0.176 NA
ATOM     16  C   UNL     1      -4.348   0.434  24.339  0.00  0.00    +0.123 A 
ATOM     18  C   UNL     1      -5.156   0.986  25.302  0.00  0.00    +0.057 A 
ATOM     21  C   UNL     1      -5.134   2.367  25.031  0.00  0.00    +0.061 A 
ATOM     25  C   UNL     1      -3.023   1.407  22.438  0.00  0.00    +0.173 C 
ATOM     26  C   UNL     1      -5.835   3.436  25.761  0.00  0.00    +0.067 C 
ENDBRANCH  15  16
BRANCH  10   3
ATOM      3  O   UNL     1       0.663   0.271  24.620  0.00  0.00    -0.485 OA
BRANCH   3  17
ATOM     17  C   UNL     1       0.029   1.474  24.760  0.00  0.00    +0.121 A 
ATOM     19  C   UNL     1      -0.813   1.697  25.849  0.00  0.00    +0.047 A 
ATOM     20  C   UNL     1       0.226   2.479  23.812  0.00  0.00    +0.047 A 
ATOM     22  C   UNL     1      -1.263   3.930  25.043  0.00  0.00    +0.088 A 
ATOM     23  C   UNL     1      -1.459   2.925  25.990  0.00  0.00    +0.030 A 
ATOM     24  C   UNL     1      -0.420   3.707  23.954  0.00  0.00    +0.030 A 
BRANCH  22   1
ATOM      1  S   UNL     1      -2.075   5.466  25.218  0.00  0.00    -0.006 S 
ATOM      5  O   UNL     1      -2.903   5.427  26.418  0.00  0.00    -0.170 OA
ATOM      6  O   UNL     1      -1.083   6.520  25.058  0.00  0.00    -0.170 OA
ATOM     27  C   UNL     1      -3.183   5.540  23.828  0.00  0.00    +0.200 C 
ENDBRANCH  22   1
ENDBRANCH   3  17
ENDBRANCH  10   3
TORSDOF 4
ENDMDL
MODEL 10
REMARK VINA RESULT:       2.7      2.444      6.578
REMARK  Name = 75536891
REMARK  7 active torsions:
REMARK  status: ('A' for Active; 'I' for Inactive)
REMARK    1  A    between atoms: S_1  and  C_22
REMARK    2  A    between atoms: S_1  and  C_27
REMARK    3  A    between atoms: O_3  and  C_10
REMARK    4  A    between atoms: O_3  and  C_17
REMARK    5  A    between atoms: N_8  and  C_25
REMARK    6  A    between atoms: C_15  and  C_16
REMARK    7  A    between atoms: C_21  and  C_26
REMARK                            x       y       z     vdW  Elec       q    Type
REMARK                         _______ _______ _______ _____ _____    ______ ____
ROOT
ATOM      2  O   UNL     1       1.166  -1.222  22.147  0.00  0.00    -0.375 OA
ATOM      4  O   UNL     1       1.172   3.416  23.486  0.00  0.00    -0.268 OA
ATOM      7  N   UNL     1       0.610   1.211  24.043  0.00  0.00    -0.291 N 
ATOM     10  C   UNL     1      -0.266  -1.187  24.122  0.00  0.00    +0.216 C 
ATOM     11  C   UNL     1      -0.376   0.268  24.587  0.00  0.00    +0.155 C 
ATOM     12  C   UNL     1       1.870   0.676  23.524  0.00  0.00    +0.136 C 
ATOM     13  C   UNL     1      -0.178  -1.327  22.604  0.00  0.00    +0.206 C 
ATOM     14  C   UNL     1       1.686   0.102  22.124  0.00  0.00    +0.179 C 
ATOM     15  C   UNL     1       0.389   2.595  23.963  0.00  0.00    +0.265 C 
ENDROOT
BRANCH  15  16
ATOM      8  N   UNL     1      -2.099   2.996  23.894  0.00  0.00    -0.262 N 
ATOM      9  N   UNL     1      -3.100   3.580  24.573  0.00  0.00    -0.176 NA
ATOM     16  C   UNL     1      -0.877   3.132  24.485  0.00  0.00    +0.123 A 
ATOM     18  C   UNL     1      -1.094   3.856  25.632  0.00  0.00    +0.057 A 
ATOM     21  C   UNL     1      -2.480   4.103  25.635  0.00  0.00    +0.061 A 
ATOM     25  C   UNL     1      -2.392   2.310  22.656  0.00  0.00    +0.173 C 
ATOM     26  C   UNL     1      -3.257   4.843  26.644  0.00  0.00    +0.067 C 
ENDBRANCH  15  16
BRANCH  10   3
ATOM      3  O   UNL     1      -1.439  -1.857  24.585  0.00  0.00    -0.485 OA
BRANCH   3  17
ATOM     17  C   UNL     1      -2.546  -1.081  24.791  0.00  0.00    +0.121 A 
ATOM     19  C   UNL     1      -3.632  -1.167  23.919  0.00  0.00    +0.047 A 
ATOM     20  C   UNL     1      -2.589  -0.203  25.874  0.00  0.00    +0.047 A 
ATOM     22  C   UNL     1      -4.803   0.503  25.214  0.00  0.00    +0.088 A 
ATOM     23  C   UNL     1      -4.760  -0.375  24.131  0.00  0.00    +0.030 A 
ATOM     24  C   UNL     1      -3.717   0.589  26.086  0.00  0.00    +0.030 A 
BRANCH  22   1
ATOM      1  S   UNL     1      -6.214   1.497  25.475  0.00  0.00    -0.006 S 
ATOM      5  O   UNL     1      -7.093   1.383  24.318  0.00  0.00    -0.170 OA
ATOM      6  O   UNL     1      -6.729   1.205  26.805  0.00  0.00    -0.170 OA
ATOM     27  C   UNL     1      -5.586   3.161  25.485  0.00  0.00    +0.200 C 
ENDBRANCH  22   1
ENDBRANCH   3  17
ENDBRANCH  10   3
TORSDOF 4
ENDMDL
