MODEL 1
REMARK VINA RESULT:      21.9      0.000      0.000
REMARK  Name = 40780382
REMARK  9 active torsions:
REMARK  status: ('A' for Active; 'I' for Inactive)
REMARK    1  A    between atoms: N_2  and  C_8
REMARK    2  A    between atoms: N_3  and  C_15
REMARK    3  A    between atoms: N_5  and  C_26
REMARK    4  A    between atoms: C_6  and  C_9
REMARK    5  A    between atoms: C_12  and  C_14
REMARK    6  A    between atoms: C_13  and  C_16
REMARK    7  A    between atoms: C_20  and  C_21
REMARK    8  A    between atoms: C_21  and  C_24
REMARK    9  A    between atoms: C_21  and  C_25
REMARK                            x       y       z     vdW  Elec       q    Type
REMARK                         _______ _______ _______ _____ _____    ______ ____
ROOT
ATOM      6  C   UNL     1       6.687   0.382  22.706  0.00  0.00    +0.047 C 
ATOM      7  C   UNL     1       7.380   1.313  23.723  0.00  0.00    +0.039 C 
ATOM      8  C   UNL     1       8.862   0.917  23.710  0.00  0.00    +0.098 C 
ATOM     10  C   UNL     1       7.645  -0.770  22.618  0.00  0.00    -0.021 C 
ATOM     11  C   UNL     1       8.830  -0.472  23.162  0.00  0.00    -0.009 C 
ENDROOT
BRANCH   6   9
ATOM      3  N   UNL     1       3.123  -0.018  23.453  0.00  0.00    -0.236 N 
ATOM      4  N   UNL     1       3.529  -1.200  23.946  0.00  0.00    -0.171 NA
ATOM      9  C   UNL     1       5.279   0.004  23.106  0.00  0.00    +0.003 A 
ATOM     12  C   UNL     1       4.132   0.741  22.938  0.00  0.00    +0.046 A 
ATOM     13  C   UNL     1       4.847  -1.182  23.732  0.00  0.00    +0.064 A 
ATOM     14  C   UNL     1       3.920   2.075  22.342  0.00  0.00    +0.066 C 
ATOM     16  C   UNL     1       5.665  -2.336  24.145  0.00  0.00    +0.068 C 
BRANCH   3  15
ATOM     15  C   UNL     1       1.771   0.325  23.504  0.00  0.00    +0.066 A 
ATOM     18  C   UNL     1       1.382   1.551  24.044  0.00  0.00    +0.028 A 
ATOM     19  C   UNL     1       0.809  -0.560  23.018  0.00  0.00    +0.028 A 
ATOM     20  C   UNL     1      -0.932   1.007  23.612  0.00  0.00    -0.045 A 
ATOM     22  C   UNL     1       0.031   1.892  24.098  0.00  0.00    +0.006 A 
ATOM     23  C   UNL     1      -0.543  -0.219  23.072  0.00  0.00    +0.006 A 
BRANCH  20  21
ATOM     21  C   UNL     1      -2.377   1.371  23.671  0.00  0.00    +0.013 C 
ATOM     24  C   UNL     1      -2.631   2.642  24.503  0.00  0.00    +0.012 C 
ATOM     25  C   UNL     1      -3.254   0.219  24.196  0.00  0.00    +0.012 C 
ENDBRANCH  20  21
ENDBRANCH   3  15
ENDBRANCH   6   9
BRANCH   8   2
ATOM      1  O   UNL     1       8.986   3.779  23.726  0.00  0.00    -0.252 OA
ATOM      2  N   UNL     1       9.653   1.749  22.842  0.00  0.00    -0.293 N 
ATOM      5  N   UNL     1      10.518   3.684  21.949  0.00  0.00    -0.269 N 
ATOM     17  C   UNL     1       9.659   3.149  22.912  0.00  0.00    +0.304 C 
ATOM     32  H   UNL     1      10.296   1.299  22.197  0.00  0.00    +0.151 HD
ATOM     33  H   UNL     1      11.002   3.021  21.350  0.00  0.00    +0.156 HD
BRANCH   5  26
ATOM     26  C   UNL     1      10.800   5.047  21.698  0.00  0.00    +0.035 A 
ATOM     27  C   UNL     1      11.882   5.398  20.893  0.00  0.00    +0.023 A 
ATOM     28  C   UNL     1       9.995   6.041  22.257  0.00  0.00    +0.023 A 
ATOM     29  C   UNL     1      12.162   6.743  20.645  0.00  0.00    +0.002 A 
ATOM     30  C   UNL     1      10.273   7.385  22.010  0.00  0.00    +0.002 A 
ATOM     31  C   UNL     1      11.357   7.736  21.204  0.00  0.00    +0.000 A 
ENDBRANCH   5  26
ENDBRANCH   8   2
TORSDOF 5
ENDMDL
MODEL 2
REMARK VINA RESULT:      22.1      4.640     11.223
REMARK  Name = 40780382
REMARK  9 active torsions:
REMARK  status: ('A' for Active; 'I' for Inactive)
REMARK    1  A    between atoms: N_2  and  C_8
REMARK    2  A    between atoms: N_3  and  C_15
REMARK    3  A    between atoms: N_5  and  C_26
REMARK    4  A    between atoms: C_6  and  C_9
REMARK    5  A    between atoms: C_12  and  C_14
REMARK    6  A    between atoms: C_13  and  C_16
REMARK    7  A    between atoms: C_20  and  C_21
REMARK    8  A    between atoms: C_21  and  C_24
REMARK    9  A    between atoms: C_21  and  C_25
REMARK                            x       y       z     vdW  Elec       q    Type
REMARK                         _______ _______ _______ _____ _____    ______ ____
ROOT
ATOM      6  C   UNL     1      -1.606  -0.973  24.944  0.00  0.00    +0.047 C 
ATOM      7  C   UNL     1      -2.466  -1.290  23.702  0.00  0.00    +0.039 C 
ATOM      8  C   UNL     1      -3.848  -1.682  24.238  0.00  0.00    +0.098 C 
ATOM     10  C   UNL     1      -2.333  -1.705  26.034  0.00  0.00    -0.021 C 
ATOM     11  C   UNL     1      -3.555  -2.085  25.646  0.00  0.00    -0.009 C 
ENDROOT
BRANCH   6   9
ATOM      3  N   UNL     1       1.984  -1.378  24.335  0.00  0.00    -0.236 N 
ATOM      4  N   UNL     1       1.762  -2.604  24.839  0.00  0.00    -0.171 NA
ATOM      9  C   UNL     1      -0.155  -1.362  24.780  0.00  0.00    +0.003 A 
ATOM     12  C   UNL     1       0.869  -0.594  24.279  0.00  0.00    +0.046 A 
ATOM     13  C   UNL     1       0.454  -2.589  25.109  0.00  0.00    +0.064 A 
ATOM     14  C   UNL     1       0.875   0.789  23.764  0.00  0.00    +0.066 C 
ATOM     16  C   UNL     1      -0.180  -3.786  25.690  0.00  0.00    +0.068 C 
BRANCH   3  15
ATOM     15  C   UNL     1       3.270  -1.019  23.929  0.00  0.00    +0.066 A 
ATOM     18  C   UNL     1       4.355  -1.835  24.248  0.00  0.00    +0.028 A 
ATOM     19  C   UNL     1       3.469   0.158  23.209  0.00  0.00    +0.028 A 
ATOM     20  C   UNL     1       5.841  -0.297  23.123  0.00  0.00    -0.045 A 
ATOM     22  C   UNL     1       5.640  -1.474  23.844  0.00  0.00    +0.006 A 
ATOM     23  C   UNL     1       4.755   0.519  22.805  0.00  0.00    +0.006 A 
BRANCH  20  21
ATOM     21  C   UNL     1       7.216   0.089  22.693  0.00  0.00    +0.013 C 
ATOM     24  C   UNL     1       8.062  -1.124  22.266  0.00  0.00    +0.012 C 
ATOM     25  C   UNL     1       7.965   0.895  23.771  0.00  0.00    +0.012 C 
ENDBRANCH  20  21
ENDBRANCH   3  15
ENDBRANCH   6   9
BRANCH   8   2
ATOM      1  O   UNL     1      -3.263   1.047  24.884  0.00  0.00    -0.252 OA
ATOM      2  N   UNL     1      -4.775  -0.582  24.245  0.00  0.00    -0.293 N 
ATOM      5  N   UNL     1      -5.516   1.581  24.495  0.00  0.00    -0.269 N 
ATOM     17  C   UNL     1      -4.410   0.731  24.574  0.00  0.00    +0.304 C 
ATOM     32  H   UNL     1      -5.724  -0.748  23.922  0.00  0.00    +0.151 HD
ATOM     33  H   UNL     1      -6.399   1.158  24.223  0.00  0.00    +0.156 HD
BRANCH   5  26
ATOM     26  C   UNL     1      -5.561   2.972  24.749  0.00  0.00    +0.035 A 
ATOM     27  C   UNL     1      -6.510   3.489  25.631  0.00  0.00    +0.023 A 
ATOM     28  C   UNL     1      -4.658   3.827  24.117  0.00  0.00    +0.023 A 
ATOM     29  C   UNL     1      -6.556   4.861  25.882  0.00  0.00    +0.002 A 
ATOM     30  C   UNL     1      -4.703   5.199  24.369  0.00  0.00    +0.002 A 
ATOM     31  C   UNL     1      -5.653   5.715  25.251  0.00  0.00    +0.000 A 
ENDBRANCH   5  26
ENDBRANCH   8   2
TORSDOF 5
ENDMDL
MODEL 3
REMARK VINA RESULT:      23.2      3.120      5.868
REMARK  Name = 40780382
REMARK  9 active torsions:
REMARK  status: ('A' for Active; 'I' for Inactive)
REMARK    1  A    between atoms: N_2  and  C_8
REMARK    2  A    between atoms: N_3  and  C_15
REMARK    3  A    between atoms: N_5  and  C_26
REMARK    4  A    between atoms: C_6  and  C_9
REMARK    5  A    between atoms: C_12  and  C_14
REMARK    6  A    between atoms: C_13  and  C_16
REMARK    7  A    between atoms: C_20  and  C_21
REMARK    8  A    between atoms: C_21  and  C_24
REMARK    9  A    between atoms: C_21  and  C_25
REMARK                            x       y       z     vdW  Elec       q    Type
REMARK                         _______ _______ _______ _____ _____    ______ ____
ROOT
ATOM      6  C   UNL     1       1.406   0.055  24.074  0.00  0.00    +0.047 C 
ATOM      7  C   UNL     1       1.882  -1.405  23.920  0.00  0.00    +0.039 C 
ATOM      8  C   UNL     1       2.996  -1.372  22.866  0.00  0.00    +0.098 C 
ATOM     10  C   UNL     1       1.851   0.678  22.782  0.00  0.00    -0.021 C 
ATOM     11  C   UNL     1       2.720  -0.103  22.130  0.00  0.00    -0.009 C 
ENDROOT
BRANCH   6   9
ATOM      3  N   UNL     1      -2.097   0.915  24.715  0.00  0.00    -0.236 N 
ATOM      4  N   UNL     1      -2.238  -0.419  24.792  0.00  0.00    -0.171 NA
ATOM      9  C   UNL     1      -0.075   0.173  24.355  0.00  0.00    +0.003 A 
ATOM     12  C   UNL     1      -0.822   1.322  24.455  0.00  0.00    +0.046 A 
ATOM     13  C   UNL     1      -0.999  -0.868  24.571  0.00  0.00    +0.064 A 
ATOM     14  C   UNL     1      -0.433   2.740  24.325  0.00  0.00    +0.066 C 
ATOM     16  C   UNL     1      -0.742  -2.319  24.575  0.00  0.00    +0.068 C 
BRANCH   3  15
ATOM     15  C   UNL     1      -3.208   1.740  24.898  0.00  0.00    +0.066 A 
ATOM     18  C   UNL     1      -3.034   3.076  25.258  0.00  0.00    +0.028 A 
ATOM     19  C   UNL     1      -4.493   1.225  24.725  0.00  0.00    +0.028 A 
ATOM     20  C   UNL     1      -5.430   3.384  25.271  0.00  0.00    -0.045 A 
ATOM     22  C   UNL     1      -4.144   3.898  25.444  0.00  0.00    +0.006 A 
ATOM     23  C   UNL     1      -5.604   2.048  24.910  0.00  0.00    +0.006 A 
BRANCH  20  21
ATOM     21  C   UNL     1      -6.618   4.264  25.471  0.00  0.00    +0.013 C 
ATOM     24  C   UNL     1      -6.303   5.748  25.208  0.00  0.00    +0.012 C 
ATOM     25  C   UNL     1      -7.241   4.102  26.870  0.00  0.00    +0.012 C 
ENDBRANCH  20  21
ENDBRANCH   3  15
ENDBRANCH   6   9
BRANCH   8   2
ATOM      1  O   UNL     1       5.109   0.414  22.123  0.00  0.00    -0.252 OA
ATOM      2  N   UNL     1       4.311  -1.306  23.447  0.00  0.00    -0.293 N 
ATOM      5  N   UNL     1       6.465  -0.567  23.769  0.00  0.00    -0.269 N 
ATOM     17  C   UNL     1       5.294  -0.399  23.026  0.00  0.00    +0.304 C 
ATOM     32  H   UNL     1       4.513  -1.891  24.252  0.00  0.00    +0.151 HD
ATOM     33  H   UNL     1       6.453  -1.290  24.484  0.00  0.00    +0.156 HD
BRANCH   5  26
ATOM     26  C   UNL     1       7.678   0.151  23.651  0.00  0.00    +0.035 A 
ATOM     27  C   UNL     1       7.785   1.433  24.187  0.00  0.00    +0.023 A 
ATOM     28  C   UNL     1       8.768  -0.425  22.998  0.00  0.00    +0.023 A 
ATOM     29  C   UNL     1       8.982   2.142  24.071  0.00  0.00    +0.002 A 
ATOM     30  C   UNL     1       9.966   0.282  22.881  0.00  0.00    +0.002 A 
ATOM     31  C   UNL     1      10.071   1.566  23.418  0.00  0.00    +0.000 A 
ENDBRANCH   5  26
ENDBRANCH   8   2
TORSDOF 5
ENDMDL
MODEL 4
REMARK VINA RESULT:      23.6      4.198     11.342
REMARK  Name = 40780382
REMARK  9 active torsions:
REMARK  status: ('A' for Active; 'I' for Inactive)
REMARK    1  A    between atoms: N_2  and  C_8
REMARK    2  A    between atoms: N_3  and  C_15
REMARK    3  A    between atoms: N_5  and  C_26
REMARK    4  A    between atoms: C_6  and  C_9
REMARK    5  A    between atoms: C_12  and  C_14
REMARK    6  A    between atoms: C_13  and  C_16
REMARK    7  A    between atoms: C_20  and  C_21
REMARK    8  A    between atoms: C_21  and  C_24
REMARK    9  A    between atoms: C_21  and  C_25
REMARK                            x       y       z     vdW  Elec       q    Type
REMARK                         _______ _______ _______ _____ _____    ______ ____
ROOT
ATOM      6  C   UNL     1      -0.151  -0.098  24.292  0.00  0.00    +0.047 C 
ATOM      7  C   UNL     1      -1.003  -0.514  23.075  0.00  0.00    +0.039 C 
ATOM      8  C   UNL     1      -1.895  -1.663  23.562  0.00  0.00    +0.098 C 
ATOM     10  C   UNL     1      -0.204  -1.323  25.158  0.00  0.00    -0.021 C 
ATOM     11  C   UNL     1      -1.159  -2.171  24.758  0.00  0.00    -0.009 C 
ENDROOT
BRANCH   6   9
ATOM      3  N   UNL     1       3.387   0.445  23.508  0.00  0.00    -0.236 N 
ATOM      4  N   UNL     1       2.963   1.690  23.232  0.00  0.00    -0.171 NA
ATOM      9  C   UNL     1       1.243   0.352  23.918  0.00  0.00    +0.003 A 
ATOM     12  C   UNL     1       2.396  -0.396  23.923  0.00  0.00    +0.046 A 
ATOM     13  C   UNL     1       1.653   1.627  23.484  0.00  0.00    +0.064 A 
ATOM     14  C   UNL     1       2.629  -1.809  24.279  0.00  0.00    +0.066 C 
ATOM     16  C   UNL     1       0.819   2.827  23.292  0.00  0.00    +0.068 C 
BRANCH   3  15
ATOM     15  C   UNL     1       4.737   0.125  23.359  0.00  0.00    +0.066 A 
ATOM     18  C   UNL     1       5.224  -0.283  22.117  0.00  0.00    +0.028 A 
ATOM     19  C   UNL     1       5.598   0.209  24.453  0.00  0.00    +0.028 A 
ATOM     20  C   UNL     1       7.434  -0.521  23.063  0.00  0.00    -0.045 A 
ATOM     22  C   UNL     1       6.572  -0.605  21.969  0.00  0.00    +0.006 A 
ATOM     23  C   UNL     1       6.947  -0.114  24.305  0.00  0.00    +0.006 A 
BRANCH  20  21
ATOM     21  C   UNL     1       8.876  -0.868  22.904  0.00  0.00    +0.013 C 
ATOM     24  C   UNL     1       9.759   0.373  22.676  0.00  0.00    +0.012 C 
ATOM     25  C   UNL     1       9.115  -1.893  21.780  0.00  0.00    +0.012 C 
ENDBRANCH  20  21
ENDBRANCH   3  15
ENDBRANCH   6   9
BRANCH   8   2
ATOM      1  O   UNL     1      -2.579   0.905  24.631  0.00  0.00    -0.252 OA
ATOM      2  N   UNL     1      -3.203  -1.220  23.966  0.00  0.00    -0.293 N 
ATOM      5  N   UNL     1      -4.814   0.203  24.785  0.00  0.00    -0.269 N 
ATOM     17  C   UNL     1      -3.458   0.058  24.482  0.00  0.00    +0.304 C 
ATOM     32  H   UNL     1      -3.994  -1.835  23.799  0.00  0.00    +0.151 HD
ATOM     33  H   UNL     1      -5.411  -0.600  24.602  0.00  0.00    +0.156 HD
BRANCH   5  26
ATOM     26  C   UNL     1      -5.468   1.336  25.322  0.00  0.00    +0.035 A 
ATOM     27  C   UNL     1      -5.223   2.601  24.787  0.00  0.00    +0.023 A 
ATOM     28  C   UNL     1      -6.358   1.190  26.386  0.00  0.00    +0.023 A 
ATOM     29  C   UNL     1      -5.867   3.720  25.316  0.00  0.00    +0.002 A 
ATOM     30  C   UNL     1      -7.003   2.309  26.915  0.00  0.00    +0.002 A 
ATOM     31  C   UNL     1      -6.757   3.573  26.380  0.00  0.00    +0.000 A 
ENDBRANCH   5  26
ENDBRANCH   8   2
TORSDOF 5
ENDMDL
MODEL 5
REMARK VINA RESULT:      23.6      4.747      8.386
REMARK  Name = 40780382
REMARK  9 active torsions:
REMARK  status: ('A' for Active; 'I' for Inactive)
REMARK    1  A    between atoms: N_2  and  C_8
REMARK    2  A    between atoms: N_3  and  C_15
REMARK    3  A    between atoms: N_5  and  C_26
REMARK    4  A    between atoms: C_6  and  C_9
REMARK    5  A    between atoms: C_12  and  C_14
REMARK    6  A    between atoms: C_13  and  C_16
REMARK    7  A    between atoms: C_20  and  C_21
REMARK    8  A    between atoms: C_21  and  C_24
REMARK    9  A    between atoms: C_21  and  C_25
REMARK                            x       y       z     vdW  Elec       q    Type
REMARK                         _______ _______ _______ _____ _____    ______ ____
ROOT
ATOM      6  C   UNL     1      -1.334  -1.517  24.325  0.00  0.00    +0.047 C 
ATOM      7  C   UNL     1      -0.677  -1.713  25.708  0.00  0.00    +0.039 C 
ATOM      8  C   UNL     1      -0.005  -3.090  25.660  0.00  0.00    +0.098 C 
ATOM     10  C   UNL     1      -1.467  -2.927  23.829  0.00  0.00    -0.021 C 
ATOM     11  C   UNL     1      -0.738  -3.779  24.557  0.00  0.00    -0.009 C 
ENDROOT
BRANCH   6   9
ATOM      3  N   UNL     1      -4.142   0.821  24.593  0.00  0.00    -0.236 N 
ATOM      4  N   UNL     1      -4.865  -0.273  24.299  0.00  0.00    -0.171 NA
ATOM      9  C   UNL     1      -2.631  -0.742  24.385  0.00  0.00    +0.003 A 
ATOM     12  C   UNL     1      -2.799   0.594  24.656  0.00  0.00    +0.046 A 
ATOM     13  C   UNL     1      -3.937  -1.225  24.173  0.00  0.00    +0.064 A 
ATOM     14  C   UNL     1      -1.812   1.649  24.962  0.00  0.00    +0.066 C 
ATOM     16  C   UNL     1      -4.349  -2.601  23.843  0.00  0.00    +0.068 C 
BRANCH   3  15
ATOM     15  C   UNL     1      -4.787   2.041  24.801  0.00  0.00    +0.066 A 
ATOM     18  C   UNL     1      -5.955   2.092  25.564  0.00  0.00    +0.028 A 
ATOM     19  C   UNL     1      -4.266   3.208  24.244  0.00  0.00    +0.028 A 
ATOM     20  C   UNL     1      -6.079   4.479  25.211  0.00  0.00    -0.045 A 
ATOM     22  C   UNL     1      -6.600   3.311  25.768  0.00  0.00    +0.006 A 
ATOM     23  C   UNL     1      -4.912   4.428  24.449  0.00  0.00    +0.006 A 
BRANCH  20  21
ATOM     21  C   UNL     1      -6.771   5.782  25.429  0.00  0.00    +0.013 C 
ATOM     24  C   UNL     1      -6.758   6.673  24.174  0.00  0.00    +0.012 C 
ATOM     25  C   UNL     1      -6.197   6.560  26.628  0.00  0.00    +0.012 C 
ENDBRANCH  20  21
ENDBRANCH   3  15
ENDBRANCH   6   9
BRANCH   8   2
ATOM      1  O   UNL     1       1.327  -0.927  24.336  0.00  0.00    -0.252 OA
ATOM      2  N   UNL     1       1.392  -3.016  25.325  0.00  0.00    -0.293 N 
ATOM      5  N   UNL     1       3.339  -2.128  24.480  0.00  0.00    -0.269 N 
ATOM     17  C   UNL     1       1.971  -1.918  24.673  0.00  0.00    +0.304 C 
ATOM     32  H   UNL     1       2.005  -3.762  25.643  0.00  0.00    +0.151 HD
ATOM     33  H   UNL     1       3.718  -3.008  24.820  0.00  0.00    +0.156 HD
BRANCH   5  26
ATOM     26  C   UNL     1       4.272  -1.262  23.864  0.00  0.00    +0.035 A 
ATOM     27  C   UNL     1       5.635  -1.411  24.118  0.00  0.00    +0.023 A 
ATOM     28  C   UNL     1       3.829  -0.259  23.002  0.00  0.00    +0.023 A 
ATOM     29  C   UNL     1       6.556  -0.556  23.511  0.00  0.00    +0.002 A 
ATOM     30  C   UNL     1       4.749   0.596  22.394  0.00  0.00    +0.002 A 
ATOM     31  C   UNL     1       6.113   0.446  22.649  0.00  0.00    +0.000 A 
ENDBRANCH   5  26
ENDBRANCH   8   2
TORSDOF 5
ENDMDL
