MODEL 1
REMARK VINA RESULT:       2.4      0.000      0.000
REMARK  Name = 11912794
REMARK  12 active torsions:
REMARK  status: ('A' for Active; 'I' for Inactive)
REMARK    1  A    between atoms: O_4  and  C_24
REMARK    2  A    between atoms: O_6  and  C_33
REMARK    3  A    between atoms: O_6  and  C_34
REMARK    4  A    between atoms: N_7  and  C_13
REMARK    5  A    between atoms: N_8  and  C_14
REMARK    6  A    between atoms: C_17  and  C_18
REMARK    7  A    between atoms: C_18  and  C_19
REMARK    8  A    between atoms: C_19  and  C_21
REMARK    9  A    between atoms: C_19  and  C_22
REMARK   10  A    between atoms: C_19  and  C_23
REMARK   11  A    between atoms: C_21  and  C_24
REMARK   12  A    between atoms: C_25  and  C_28
REMARK                            x       y       z     vdW  Elec       q    Type
REMARK                         _______ _______ _______ _____ _____    ______ ____
ROOT
ATOM      1  O   UNL     1      -2.469  -1.481  26.095  0.00  0.00    -0.370 OA
ATOM      2  O   UNL     1      -3.546  -1.629  23.170  0.00  0.00    -0.370 OA
ATOM     11  C   UNL     1      -2.456  -0.922  23.782  0.00  0.00    +0.171 C 
ATOM     12  C   UNL     1      -2.917  -0.486  25.160  0.00  0.00    +0.171 C 
ATOM     13  C   UNL     1      -1.307  -1.865  24.061  0.00  0.00    +0.130 C 
ATOM     14  C   UNL     1      -4.424  -0.497  25.065  0.00  0.00    +0.130 C 
ATOM     15  C   UNL     1      -1.702  -2.472  25.395  0.00  0.00    +0.185 C 
ATOM     16  C   UNL     1      -4.685  -1.588  24.042  0.00  0.00    +0.185 C 
ENDROOT
BRANCH  14   8
ATOM      8  N   UNL     1      -4.899   0.777  24.570  0.00  0.00    -0.306 N 
ATOM      9  N   UNL     1      -3.044   1.898  25.399  0.00  0.00    -0.214 NA
ATOM     10  N   UNL     1      -4.786   3.069  24.215  0.00  0.00    -0.223 NA
ATOM     20  C   UNL     1      -4.213   1.966  24.736  0.00  0.00    +0.216 A 
ATOM     25  C   UNL     1      -2.400   3.076  25.543  0.00  0.00    +0.076 A 
ATOM     26  C   UNL     1      -4.090   4.210  24.396  0.00  0.00    +0.116 A 
ATOM     27  C   UNL     1      -2.880   4.275  25.057  0.00  0.00    +0.048 A 
ATOM     36  H   UNL     1      -5.754   0.812  24.026  0.00  0.00    +0.149 HD
BRANCH  25  28
ATOM     28  C   UNL     1      -1.146   3.008  26.253  0.00  0.00    +0.001 A 
ATOM     29  C   UNL     1      -1.131   2.694  27.612  0.00  0.00    +0.013 A 
ATOM     30  C   UNL     1       0.051   3.254  25.581  0.00  0.00    +0.013 A 
ATOM     31  C   UNL     1       0.081   2.630  28.299  0.00  0.00    +0.046 A 
ATOM     32  C   UNL     1       1.263   3.188  26.268  0.00  0.00    +0.046 A 
ATOM     33  C   UNL     1       1.278   2.876  27.627  0.00  0.00    +0.120 A 
BRANCH  33   6
ATOM      6  O   UNL     1       2.460   2.810  28.298  0.00  0.00    -0.495 OA
ATOM     34  C   UNL     1       2.411   2.385  29.659  0.00  0.00    +0.277 C 
ENDBRANCH  33   6
ENDBRANCH  25  28
ENDBRANCH  14   8
BRANCH  13   7
ATOM      3  O   UNL     1      -0.680   0.684  22.881  0.00  0.00    -0.276 OA
ATOM      7  N   UNL     1      -0.058  -1.150  24.162  0.00  0.00    -0.308 N 
ATOM     17  C   UNL     1       0.151   0.078  23.555  0.00  0.00    +0.214 C 
ATOM     35  H   UNL     1       0.675  -1.546  24.744  0.00  0.00    +0.149 HD
BRANCH  17  18
ATOM     18  C   UNL     1       1.542   0.638  23.804  0.00  0.00    +0.102 C 
BRANCH  18  19
ATOM     19  C   UNL     1       2.658   0.022  22.923  0.00  0.00    -0.017 C 
ATOM     22  C   UNL     1       2.059  -0.265  21.529  0.00  0.00    +0.012 C 
ATOM     23  C   UNL     1       3.127  -1.326  23.510  0.00  0.00    +0.012 C 
BRANCH  19  21
ATOM     21  C   UNL     1       3.896   0.941  22.790  0.00  0.00    +0.127 C 
BRANCH  21  24
ATOM      5  O   UNL     1       6.051  -0.164  22.864  0.00  0.00    -0.251 OA
ATOM     24  C   UNL     1       5.150   0.416  23.456  0.00  0.00    +0.305 C 
BRANCH  24   4
ATOM      4  O   UNL     1       5.173   0.649  24.793  0.00  0.00    -0.481 OA
ATOM     37  H   UNL     1       4.339   0.366  25.227  0.00  0.00    +0.295 HD
ENDBRANCH  24   4
ENDBRANCH  21  24
ENDBRANCH  19  21
ENDBRANCH  18  19
ENDBRANCH  17  18
ENDBRANCH  13   7
TORSDOF 9
ENDMDL
MODEL 2
REMARK VINA RESULT:       3.3      1.964      5.333
REMARK  Name = 11912794
REMARK  12 active torsions:
REMARK  status: ('A' for Active; 'I' for Inactive)
REMARK    1  A    between atoms: O_4  and  C_24
REMARK    2  A    between atoms: O_6  and  C_33
REMARK    3  A    between atoms: O_6  and  C_34
REMARK    4  A    between atoms: N_7  and  C_13
REMARK    5  A    between atoms: N_8  and  C_14
REMARK    6  A    between atoms: C_17  and  C_18
REMARK    7  A    between atoms: C_18  and  C_19
REMARK    8  A    between atoms: C_19  and  C_21
REMARK    9  A    between atoms: C_19  and  C_22
REMARK   10  A    between atoms: C_19  and  C_23
REMARK   11  A    between atoms: C_21  and  C_24
REMARK   12  A    between atoms: C_25  and  C_28
REMARK                            x       y       z     vdW  Elec       q    Type
REMARK                         _______ _______ _______ _____ _____    ______ ____
ROOT
ATOM      1  O   UNL     1      -3.478   3.056  23.662  0.00  0.00    -0.370 OA
ATOM      2  O   UNL     1      -5.563   2.455  25.905  0.00  0.00    -0.370 OA
ATOM     11  C   UNL     1      -4.128   2.404  25.856  0.00  0.00    +0.171 C 
ATOM     12  C   UNL     1      -3.741   1.902  24.478  0.00  0.00    +0.171 C 
ATOM     13  C   UNL     1      -3.548   3.799  25.915  0.00  0.00    +0.130 C 
ATOM     14  C   UNL     1      -4.975   1.184  23.987  0.00  0.00    +0.130 C 
ATOM     15  C   UNL     1      -3.613   4.239  24.464  0.00  0.00    +0.185 C 
ATOM     16  C   UNL     1      -6.097   1.938  24.678  0.00  0.00    +0.185 C 
ENDROOT
BRANCH  14   8
ATOM      8  N   UNL     1      -4.954  -0.195  24.426  0.00  0.00    -0.306 N 
ATOM      9  N   UNL     1      -2.654  -0.345  24.153  0.00  0.00    -0.214 NA
ATOM     10  N   UNL     1      -3.945  -2.222  24.940  0.00  0.00    -0.223 NA
ATOM     20  C   UNL     1      -3.801  -0.953  24.510  0.00  0.00    +0.216 A 
ATOM     25  C   UNL     1      -1.548  -1.114  24.246  0.00  0.00    +0.076 A 
ATOM     26  C   UNL     1      -2.801  -2.933  25.008  0.00  0.00    +0.116 A 
ATOM     27  C   UNL     1      -1.561  -2.427  24.672  0.00  0.00    +0.048 A 
ATOM     36  H   UNL     1      -5.813  -0.630  24.743  0.00  0.00    +0.149 HD
BRANCH  25  28
ATOM     28  C   UNL     1      -0.316  -0.466  23.866  0.00  0.00    +0.001 A 
ATOM     29  C   UNL     1       0.777  -1.231  23.461  0.00  0.00    +0.013 A 
ATOM     30  C   UNL     1      -0.218   0.926  23.903  0.00  0.00    +0.013 A 
ATOM     31  C   UNL     1       1.968  -0.606  23.095  0.00  0.00    +0.046 A 
ATOM     32  C   UNL     1       0.974   1.551  23.536  0.00  0.00    +0.046 A 
ATOM     33  C   UNL     1       2.067   0.785  23.132  0.00  0.00    +0.120 A 
BRANCH  33   6
ATOM      6  O   UNL     1       3.229   1.394  22.772  0.00  0.00    -0.495 OA
ATOM     34  C   UNL     1       4.438   0.671  22.999  0.00  0.00    +0.277 C 
ENDBRANCH  33   6
ENDBRANCH  25  28
ENDBRANCH  14   8
BRANCH  13   7
ATOM      3  O   UNL     1      -1.160   4.121  24.343  0.00  0.00    -0.276 OA
ATOM      7  N   UNL     1      -2.188   3.779  26.396  0.00  0.00    -0.308 N 
ATOM     17  C   UNL     1      -1.097   3.944  25.559  0.00  0.00    +0.214 C 
ATOM     35  H   UNL     1      -2.036   3.692  27.397  0.00  0.00    +0.149 HD
BRANCH  17  18
ATOM     18  C   UNL     1       0.232   3.889  26.292  0.00  0.00    +0.102 C 
BRANCH  18  19
ATOM     19  C   UNL     1       0.385   2.700  27.275  0.00  0.00    -0.017 C 
ATOM     22  C   UNL     1      -0.320   1.475  26.652  0.00  0.00    +0.012 C 
ATOM     23  C   UNL     1      -0.326   3.011  28.610  0.00  0.00    +0.012 C 
BRANCH  19  21
ATOM     21  C   UNL     1       1.861   2.363  27.589  0.00  0.00    +0.127 C 
BRANCH  21  24
ATOM      5  O   UNL     1       2.819   3.715  29.355  0.00  0.00    -0.251 OA
ATOM     24  C   UNL     1       2.294   2.666  29.007  0.00  0.00    +0.305 C 
BRANCH  24   4
ATOM      4  O   UNL     1       2.047   1.642  29.862  0.00  0.00    -0.481 OA
ATOM     37  H   UNL     1       1.092   1.418  29.897  0.00  0.00    +0.295 HD
ENDBRANCH  24   4
ENDBRANCH  21  24
ENDBRANCH  19  21
ENDBRANCH  18  19
ENDBRANCH  17  18
ENDBRANCH  13   7
TORSDOF 9
ENDMDL
MODEL 3
REMARK VINA RESULT:       4.9      1.898      4.322
REMARK  Name = 11912794
REMARK  12 active torsions:
REMARK  status: ('A' for Active; 'I' for Inactive)
REMARK    1  A    between atoms: O_4  and  C_24
REMARK    2  A    between atoms: O_6  and  C_33
REMARK    3  A    between atoms: O_6  and  C_34
REMARK    4  A    between atoms: N_7  and  C_13
REMARK    5  A    between atoms: N_8  and  C_14
REMARK    6  A    between atoms: C_17  and  C_18
REMARK    7  A    between atoms: C_18  and  C_19
REMARK    8  A    between atoms: C_19  and  C_21
REMARK    9  A    between atoms: C_19  and  C_22
REMARK   10  A    between atoms: C_19  and  C_23
REMARK   11  A    between atoms: C_21  and  C_24
REMARK   12  A    between atoms: C_25  and  C_28
REMARK                            x       y       z     vdW  Elec       q    Type
REMARK                         _______ _______ _______ _____ _____    ______ ____
ROOT
ATOM      1  O   UNL     1      -1.080   4.358  24.608  0.00  0.00    -0.370 OA
ATOM      2  O   UNL     1      -2.526   3.444  27.218  0.00  0.00    -0.370 OA
ATOM     11  C   UNL     1      -2.199   2.776  25.989  0.00  0.00    +0.171 C 
ATOM     12  C   UNL     1      -2.372   3.783  24.868  0.00  0.00    +0.171 C 
ATOM     13  C   UNL     1      -0.727   2.432  25.951  0.00  0.00    +0.130 C 
ATOM     14  C   UNL     1      -3.301   4.823  25.447  0.00  0.00    +0.130 C 
ATOM     15  C   UNL     1      -0.106   3.724  25.451  0.00  0.00    +0.185 C 
ATOM     16  C   UNL     1      -2.973   4.776  26.928  0.00  0.00    +0.185 C 
ENDROOT
BRANCH  14   8
ATOM      8  N   UNL     1      -4.678   4.436  25.226  0.00  0.00    -0.306 N 
ATOM      9  N   UNL     1      -4.120   2.187  25.077  0.00  0.00    -0.214 NA
ATOM     10  N   UNL     1      -6.403   2.927  24.852  0.00  0.00    -0.223 NA
ATOM     20  C   UNL     1      -5.084   3.127  25.044  0.00  0.00    +0.216 A 
ATOM     25  C   UNL     1      -4.551   0.921  24.895  0.00  0.00    +0.076 A 
ATOM     26  C   UNL     1      -6.764   1.639  24.676  0.00  0.00    +0.116 A 
ATOM     27  C   UNL     1      -5.874   0.585  24.689  0.00  0.00    +0.048 A 
ATOM     36  H   UNL     1      -5.405   5.142  25.255  0.00  0.00    +0.149 HD
BRANCH  25  28
ATOM     28  C   UNL     1      -3.522  -0.089  24.931  0.00  0.00    +0.001 A 
ATOM     29  C   UNL     1      -3.087  -0.683  23.746  0.00  0.00    +0.013 A 
ATOM     30  C   UNL     1      -2.961  -0.472  26.150  0.00  0.00    +0.013 A 
ATOM     31  C   UNL     1      -2.093  -1.660  23.780  0.00  0.00    +0.046 A 
ATOM     32  C   UNL     1      -1.966  -1.449  26.183  0.00  0.00    +0.046 A 
ATOM     33  C   UNL     1      -1.532  -2.043  24.998  0.00  0.00    +0.120 A 
BRANCH  33   6
ATOM      6  O   UNL     1      -0.560  -2.995  25.030  0.00  0.00    -0.495 OA
ATOM     34  C   UNL     1       0.632  -2.681  25.748  0.00  0.00    +0.277 C 
ENDBRANCH  33   6
ENDBRANCH  25  28
ENDBRANCH  14   8
BRANCH  13   7
ATOM      3  O   UNL     1       1.346   2.300  23.960  0.00  0.00    -0.276 OA
ATOM      7  N   UNL     1      -0.469   1.342  25.043  0.00  0.00    -0.308 N 
ATOM     17  C   UNL     1       0.557   1.369  24.114  0.00  0.00    +0.214 C 
ATOM     35  H   UNL     1      -1.036   0.502  25.130  0.00  0.00    +0.149 HD
BRANCH  17  18
ATOM     18  C   UNL     1       0.635   0.106  23.272  0.00  0.00    +0.102 C 
BRANCH  18  19
ATOM     19  C   UNL     1       2.035  -0.193  22.677  0.00  0.00    -0.017 C 
ATOM     22  C   UNL     1       1.853  -0.528  21.180  0.00  0.00    +0.012 C 
ATOM     23  C   UNL     1       2.653  -1.435  23.355  0.00  0.00    +0.012 C 
BRANCH  19  21
ATOM     21  C   UNL     1       3.025   0.984  22.843  0.00  0.00    +0.127 C 
BRANCH  21  24
ATOM      5  O   UNL     1       5.209   0.127  22.244  0.00  0.00    -0.251 OA
ATOM     24  C   UNL     1       4.459   0.575  23.101  0.00  0.00    +0.305 C 
BRANCH  24   4
ATOM      4  O   UNL     1       4.832   0.750  24.393  0.00  0.00    -0.481 OA
ATOM     37  H   UNL     1       5.788   0.959  24.472  0.00  0.00    +0.295 HD
ENDBRANCH  24   4
ENDBRANCH  21  24
ENDBRANCH  19  21
ENDBRANCH  18  19
ENDBRANCH  17  18
ENDBRANCH  13   7
TORSDOF 9
ENDMDL
MODEL 4
REMARK VINA RESULT:       5.2      2.387      5.288
REMARK  Name = 11912794
REMARK  12 active torsions:
REMARK  status: ('A' for Active; 'I' for Inactive)
REMARK    1  A    between atoms: O_4  and  C_24
REMARK    2  A    between atoms: O_6  and  C_33
REMARK    3  A    between atoms: O_6  and  C_34
REMARK    4  A    between atoms: N_7  and  C_13
REMARK    5  A    between atoms: N_8  and  C_14
REMARK    6  A    between atoms: C_17  and  C_18
REMARK    7  A    between atoms: C_18  and  C_19
REMARK    8  A    between atoms: C_19  and  C_21
REMARK    9  A    between atoms: C_19  and  C_22
REMARK   10  A    between atoms: C_19  and  C_23
REMARK   11  A    between atoms: C_21  and  C_24
REMARK   12  A    between atoms: C_25  and  C_28
REMARK                            x       y       z     vdW  Elec       q    Type
REMARK                         _______ _______ _______ _____ _____    ______ ____
ROOT
ATOM      1  O   UNL     1      -1.726   3.098  23.170  0.00  0.00    -0.370 OA
ATOM      2  O   UNL     1      -1.525   5.210  25.460  0.00  0.00    -0.370 OA
ATOM     11  C   UNL     1      -1.596   3.775  25.448  0.00  0.00    +0.171 C 
ATOM     12  C   UNL     1      -2.535   3.379  24.325  0.00  0.00    +0.171 C 
ATOM     13  C   UNL     1      -0.264   3.186  25.039  0.00  0.00    +0.130 C 
ATOM     14  C   UNL     1      -3.372   4.613  24.091  0.00  0.00    +0.130 C 
ATOM     15  C   UNL     1      -0.341   3.233  23.524  0.00  0.00    +0.185 C 
ATOM     16  C   UNL     1      -2.425   5.735  24.473  0.00  0.00    +0.185 C 
ENDROOT
BRANCH  14   8
ATOM      8  N   UNL     1      -4.521   4.606  24.971  0.00  0.00    -0.306 N 
ATOM      9  N   UNL     1      -4.539   2.287  25.087  0.00  0.00    -0.214 NA
ATOM     10  N   UNL     1      -6.164   3.611  26.276  0.00  0.00    -0.223 NA
ATOM     20  C   UNL     1      -5.099   3.451  25.466  0.00  0.00    +0.216 A 
ATOM     25  C   UNL     1      -5.127   1.181  25.587  0.00  0.00    +0.076 A 
ATOM     26  C   UNL     1      -6.703   2.464  26.739  0.00  0.00    +0.116 A 
ATOM     27  C   UNL     1      -6.222   1.209  26.427  0.00  0.00    +0.048 A 
ATOM     36  H   UNL     1      -4.906   5.487  25.294  0.00  0.00    +0.149 HD
BRANCH  25  28
ATOM     28  C   UNL     1      -4.528  -0.068  25.184  0.00  0.00    +0.001 A 
ATOM     29  C   UNL     1      -4.590  -0.472  23.850  0.00  0.00    +0.013 A 
ATOM     30  C   UNL     1      -3.887  -0.872  26.127  0.00  0.00    +0.013 A 
ATOM     31  C   UNL     1      -4.013  -1.680  23.460  0.00  0.00    +0.046 A 
ATOM     32  C   UNL     1      -3.309  -2.080  25.736  0.00  0.00    +0.046 A 
ATOM     33  C   UNL     1      -3.372  -2.484  24.403  0.00  0.00    +0.120 A 
BRANCH  33   6
ATOM      6  O   UNL     1      -2.807  -3.662  24.020  0.00  0.00    -0.495 OA
ATOM     34  C   UNL     1      -3.464  -4.390  22.984  0.00  0.00    +0.277 C 
ENDBRANCH  33   6
ENDBRANCH  25  28
ENDBRANCH  14   8
BRANCH  13   7
ATOM      3  O   UNL     1      -1.505   0.836  23.935  0.00  0.00    -0.276 OA
ATOM      7  N   UNL     1      -0.126   1.831  25.514  0.00  0.00    -0.308 N 
ATOM     17  C   UNL     1      -0.766   0.759  24.915  0.00  0.00    +0.214 C 
ATOM     35  H   UNL     1       0.509   1.658  26.289  0.00  0.00    +0.149 HD
BRANCH  17  18
ATOM     18  C   UNL     1      -0.465  -0.569  25.589  0.00  0.00    +0.102 C 
BRANCH  18  19
ATOM     19  C   UNL     1       0.253  -1.607  24.689  0.00  0.00    -0.017 C 
ATOM     22  C   UNL     1      -0.641  -1.868  23.458  0.00  0.00    +0.012 C 
ATOM     23  C   UNL     1       0.412  -2.949  25.436  0.00  0.00    +0.012 C 
BRANCH  19  21
ATOM     21  C   UNL     1       1.658  -1.143  24.239  0.00  0.00    +0.127 C 
BRANCH  21  24
ATOM      5  O   UNL     1       1.271  -0.415  21.961  0.00  0.00    -0.251 OA
ATOM     24  C   UNL     1       1.663  -0.156  23.091  0.00  0.00    +0.305 C 
BRANCH  24   4
ATOM      4  O   UNL     1       2.158   1.057  23.443  0.00  0.00    -0.481 OA
ATOM     37  H   UNL     1       1.450   1.669  23.738  0.00  0.00    +0.295 HD
ENDBRANCH  24   4
ENDBRANCH  21  24
ENDBRANCH  19  21
ENDBRANCH  18  19
ENDBRANCH  17  18
ENDBRANCH  13   7
TORSDOF 9
ENDMDL
