MODEL 1
REMARK VINA RESULT:       9.8      0.000      0.000
REMARK  Name = 11882049
REMARK  13 active torsions:
REMARK  status: ('A' for Active; 'I' for Inactive)
REMARK    1  A    between atoms: O_5  and  C_36
REMARK    2  A    between atoms: O_5  and  C_40
REMARK    3  A    between atoms: O_6  and  C_37
REMARK    4  A    between atoms: O_6  and  C_41
REMARK    5  A    between atoms: N_8  and  C_13
REMARK    6  A    between atoms: N_9  and  C_20
REMARK    7  A    between atoms: N_10  and  C_28
REMARK    8  A    between atoms: N_11  and  C_29
REMARK    9  A    between atoms: C_14  and  C_17
REMARK   10  A    between atoms: C_18  and  C_19
REMARK   11  A    between atoms: C_20  and  C_22
REMARK   12  A    between atoms: C_20  and  C_24
REMARK   13  A    between atoms: C_22  and  C_27
REMARK                            x       y       z     vdW  Elec       q    Type
REMARK                         _______ _______ _______ _____ _____    ______ ____
ROOT
ATOM      2  O   UNL     1      -3.641   4.804  23.358  0.00  0.00    -0.268 OA
ATOM      7  N   UNL     1      -2.484   4.147  25.242  0.00  0.00    -0.283 N 
ATOM     13  C   UNL     1      -0.900   3.500  26.896  0.00  0.00    +0.094 C 
ATOM     14  C   UNL     1      -1.200   4.672  24.801  0.00  0.00    +0.164 C 
ATOM     15  C   UNL     1      -0.299   4.614  26.034  0.00  0.00    +0.056 C 
ATOM     16  C   UNL     1      -2.392   3.575  26.588  0.00  0.00    +0.131 C 
ATOM     18  C   UNL     1      -3.648   4.310  24.487  0.00  0.00    +0.264 C 
ENDROOT
BRANCH  13   8
ATOM      3  O   UNL     1      -2.345   1.217  25.944  0.00  0.00    -0.253 OA
ATOM      8  N   UNL     1      -0.354   2.205  26.580  0.00  0.00    -0.295 N 
ATOM     11  N   UNL     1      -0.332   0.011  25.896  0.00  0.00    -0.269 N 
ATOM     21  C   UNL     1      -1.132   1.135  26.118  0.00  0.00    +0.304 C 
ATOM     42  H   UNL     1       0.631   2.039  26.762  0.00  0.00    +0.151 HD
ATOM     44  H   UNL     1       0.660   0.111  26.091  0.00  0.00    +0.156 HD
BRANCH  11  29
ATOM     29  C   UNL     1      -0.736  -1.263  25.431  0.00  0.00    +0.038 A 
ATOM     32  C   UNL     1      -2.058  -1.477  25.043  0.00  0.00    +0.069 A 
ATOM     33  C   UNL     1       0.190  -2.305  25.361  0.00  0.00    +0.023 A 
ATOM     37  C   UNL     1      -2.456  -2.734  24.583  0.00  0.00    +0.122 A 
ATOM     38  C   UNL     1      -0.208  -3.560  24.901  0.00  0.00    +0.005 A 
ATOM     39  C   UNL     1      -1.530  -3.774  24.513  0.00  0.00    +0.046 A 
BRANCH  37   6
ATOM      6  O   UNL     1      -3.745  -2.942  24.204  0.00  0.00    -0.495 OA
ATOM     41  C   UNL     1      -4.508  -1.794  23.835  0.00  0.00    +0.277 C 
ENDBRANCH  37   6
ENDBRANCH  11  29
ENDBRANCH  13   8
BRANCH  18  19
ATOM     10  N   UNL     1      -5.295   2.527  25.103  0.00  0.00    -0.346 N 
ATOM     19  C   UNL     1      -4.886   3.836  25.091  0.00  0.00    +0.104 A 
ATOM     23  C   UNL     1      -5.845   4.583  25.737  0.00  0.00    +0.032 A 
ATOM     25  C   UNL     1      -6.499   2.429  25.749  0.00  0.00    +0.086 A 
ATOM     26  C   UNL     1      -6.866   3.693  26.154  0.00  0.00    +0.020 A 
ATOM     28  C   UNL     1      -4.577   1.411  24.528  0.00  0.00    +0.149 C 
ENDBRANCH  18  19
BRANCH  14  17
ATOM      1  O   UNL     1       0.364   4.076  23.099  0.00  0.00    -0.274 OA
ATOM      9  N   UNL     1      -1.497   2.722  23.443  0.00  0.00    -0.302 N 
ATOM     17  C   UNL     1      -0.673   3.804  23.696  0.00  0.00    +0.234 C 
ATOM     43  H   UNL     1      -2.357   2.618  23.972  0.00  0.00    +0.150 HD
BRANCH   9  20
ATOM     20  C   UNL     1      -1.225   1.747  22.411  0.00  0.00    +0.163 C 
BRANCH  20  24
ATOM      4  O   UNL     1      -3.251   0.466  22.017  0.00  0.00    -0.274 OA
ATOM     12  N   UNL     1      -2.906   2.378  20.793  0.00  0.00    -0.328 N 
ATOM     24  C   UNL     1      -2.550   1.433  21.731  0.00  0.00    +0.231 C 
ATOM     45  H   UNL     1      -3.776   2.297  20.278  0.00  0.00    +0.145 HD
ATOM     46  H   UNL     1      -2.319   3.176  20.570  0.00  0.00    +0.145 HD
ENDBRANCH  20  24
BRANCH  20  22
ATOM     22  C   UNL     1      -0.597   0.467  22.974  0.00  0.00    +0.067 C 
BRANCH  22  27
ATOM     27  C   UNL     1       0.904   0.437  22.820  0.00  0.00    -0.045 A 
ATOM     30  C   UNL     1       1.706   1.184  23.683  0.00  0.00    +0.007 A 
ATOM     31  C   UNL     1       1.489  -0.337  21.819  0.00  0.00    +0.007 A 
ATOM     34  C   UNL     1       3.095   1.157  23.542  0.00  0.00    +0.046 A 
ATOM     35  C   UNL     1       2.876  -0.364  21.678  0.00  0.00    +0.046 A 
ATOM     36  C   UNL     1       3.679   0.383  22.540  0.00  0.00    +0.120 A 
BRANCH  36   5
ATOM      5  O   UNL     1       5.033   0.356  22.402  0.00  0.00    -0.495 OA
ATOM     40  C   UNL     1       5.794  -0.017  23.550  0.00  0.00    +0.277 C 
ENDBRANCH  36   5
ENDBRANCH  22  27
ENDBRANCH  20  22
ENDBRANCH   9  20
ENDBRANCH  14  17
TORSDOF 10
ENDMDL
MODEL 2
REMARK VINA RESULT:      11.8      2.506      4.707
REMARK  Name = 11882049
REMARK  13 active torsions:
REMARK  status: ('A' for Active; 'I' for Inactive)
REMARK    1  A    between atoms: O_5  and  C_36
REMARK    2  A    between atoms: O_5  and  C_40
REMARK    3  A    between atoms: O_6  and  C_37
REMARK    4  A    between atoms: O_6  and  C_41
REMARK    5  A    between atoms: N_8  and  C_13
REMARK    6  A    between atoms: N_9  and  C_20
REMARK    7  A    between atoms: N_10  and  C_28
REMARK    8  A    between atoms: N_11  and  C_29
REMARK    9  A    between atoms: C_14  and  C_17
REMARK   10  A    between atoms: C_18  and  C_19
REMARK   11  A    between atoms: C_20  and  C_22
REMARK   12  A    between atoms: C_20  and  C_24
REMARK   13  A    between atoms: C_22  and  C_27
REMARK                            x       y       z     vdW  Elec       q    Type
REMARK                         _______ _______ _______ _____ _____    ______ ____
ROOT
ATOM      2  O   UNL     1      -5.752   1.455  24.580  0.00  0.00    -0.268 OA
ATOM      7  N   UNL     1      -3.710   2.332  23.962  0.00  0.00    -0.283 N 
ATOM     13  C   UNL     1      -1.484   2.771  23.246  0.00  0.00    +0.094 C 
ATOM     14  C   UNL     1      -3.310   1.187  23.158  0.00  0.00    +0.164 C 
ATOM     15  C   UNL     1      -2.077   1.653  22.384  0.00  0.00    +0.056 C 
ATOM     16  C   UNL     1      -2.706   3.397  23.910  0.00  0.00    +0.131 C 
ATOM     18  C   UNL     1      -4.961   2.400  24.581  0.00  0.00    +0.264 C 
ENDROOT
BRANCH  13   8
ATOM      3  O   UNL     1      -0.890   3.927  25.798  0.00  0.00    -0.253 OA
ATOM      8  N   UNL     1      -0.543   2.276  24.218  0.00  0.00    -0.295 N 
ATOM     11  N   UNL     1       0.652   2.198  26.180  0.00  0.00    -0.269 N 
ATOM     21  C   UNL     1      -0.309   2.903  25.449  0.00  0.00    +0.304 C 
ATOM     42  H   UNL     1       0.025   1.470  23.974  0.00  0.00    +0.151 HD
ATOM     44  H   UNL     1       1.036   1.364  25.745  0.00  0.00    +0.156 HD
BRANCH  11  29
ATOM     29  C   UNL     1       1.161   2.504  27.464  0.00  0.00    +0.038 A 
ATOM     32  C   UNL     1       0.321   2.460  28.577  0.00  0.00    +0.069 A 
ATOM     33  C   UNL     1       2.504   2.849  27.617  0.00  0.00    +0.023 A 
ATOM     37  C   UNL     1       0.824   2.761  29.843  0.00  0.00    +0.122 A 
ATOM     38  C   UNL     1       3.007   3.149  28.882  0.00  0.00    +0.005 A 
ATOM     39  C   UNL     1       2.167   3.106  29.995  0.00  0.00    +0.046 A 
BRANCH  37   6
ATOM      6  O   UNL     1       0.005   2.718  30.928  0.00  0.00    -0.495 OA
ATOM     41  C   UNL     1       0.580   2.287  32.161  0.00  0.00    +0.277 C 
ENDBRANCH  37   6
ENDBRANCH  11  29
ENDBRANCH  13   8
BRANCH  18  19
ATOM     10  N   UNL     1      -4.538   4.189  26.282  0.00  0.00    -0.346 N 
ATOM     19  C   UNL     1      -5.281   3.646  25.266  0.00  0.00    +0.104 A 
ATOM     23  C   UNL     1      -6.349   4.482  25.032  0.00  0.00    +0.032 A 
ATOM     25  C   UNL     1      -5.116   5.358  26.699  0.00  0.00    +0.086 A 
ATOM     26  C   UNL     1      -6.246   5.566  25.939  0.00  0.00    +0.020 A 
ATOM     28  C   UNL     1      -3.327   3.626  26.839  0.00  0.00    +0.149 C 
ENDBRANCH  18  19
BRANCH  14  17
ATOM      1  O   UNL     1      -3.213   0.089  25.275  0.00  0.00    -0.274 OA
ATOM      9  N   UNL     1      -2.397  -1.014  23.395  0.00  0.00    -0.302 N 
ATOM     17  C   UNL     1      -2.985   0.041  24.069  0.00  0.00    +0.234 C 
ATOM     43  H   UNL     1      -2.215  -0.927  22.400  0.00  0.00    +0.150 HD
BRANCH   9  20
ATOM     20  C   UNL     1      -1.968  -2.229  24.050  0.00  0.00    +0.163 C 
BRANCH  20  24
ATOM      4  O   UNL     1      -3.181  -2.915  26.040  0.00  0.00    -0.274 OA
ATOM     12  N   UNL     1      -4.248  -3.032  24.010  0.00  0.00    -0.328 N 
ATOM     24  C   UNL     1      -3.164  -2.769  24.820  0.00  0.00    +0.231 C 
ATOM     45  H   UNL     1      -5.117  -3.382  24.400  0.00  0.00    +0.145 HD
ATOM     46  H   UNL     1      -4.222  -2.903  23.003  0.00  0.00    +0.145 HD
ENDBRANCH  20  24
BRANCH  20  22
ATOM     22  C   UNL     1      -0.787  -1.991  24.996  0.00  0.00    +0.067 C 
BRANCH  22  27
ATOM     27  C   UNL     1       0.415  -1.406  24.294  0.00  0.00    -0.045 A 
ATOM     30  C   UNL     1       1.691  -1.893  24.578  0.00  0.00    +0.007 A 
ATOM     31  C   UNL     1       0.250  -0.382  23.363  0.00  0.00    +0.007 A 
ATOM     34  C   UNL     1       2.803  -1.353  23.929  0.00  0.00    +0.046 A 
ATOM     35  C   UNL     1       1.361   0.158  22.715  0.00  0.00    +0.046 A 
ATOM     36  C   UNL     1       2.637  -0.328  22.998  0.00  0.00    +0.120 A 
BRANCH  36   5
ATOM      5  O   UNL     1       3.722   0.198  22.365  0.00  0.00    -0.495 OA
ATOM     40  C   UNL     1       4.891   0.414  23.153  0.00  0.00    +0.277 C 
ENDBRANCH  36   5
ENDBRANCH  22  27
ENDBRANCH  20  22
ENDBRANCH   9  20
ENDBRANCH  14  17
TORSDOF 10
ENDMDL
MODEL 3
REMARK VINA RESULT:      11.8      1.910      5.701
REMARK  Name = 11882049
REMARK  13 active torsions:
REMARK  status: ('A' for Active; 'I' for Inactive)
REMARK    1  A    between atoms: O_5  and  C_36
REMARK    2  A    between atoms: O_5  and  C_40
REMARK    3  A    between atoms: O_6  and  C_37
REMARK    4  A    between atoms: O_6  and  C_41
REMARK    5  A    between atoms: N_8  and  C_13
REMARK    6  A    between atoms: N_9  and  C_20
REMARK    7  A    between atoms: N_10  and  C_28
REMARK    8  A    between atoms: N_11  and  C_29
REMARK    9  A    between atoms: C_14  and  C_17
REMARK   10  A    between atoms: C_18  and  C_19
REMARK   11  A    between atoms: C_20  and  C_22
REMARK   12  A    between atoms: C_20  and  C_24
REMARK   13  A    between atoms: C_22  and  C_27
REMARK                            x       y       z     vdW  Elec       q    Type
REMARK                         _______ _______ _______ _____ _____    ______ ____
ROOT
ATOM      2  O   UNL     1      -5.122   0.312  24.919  0.00  0.00    -0.268 OA
ATOM      7  N   UNL     1      -3.609   1.283  23.473  0.00  0.00    -0.283 N 
ATOM     13  C   UNL     1      -1.844   1.842  21.979  0.00  0.00    +0.094 C 
ATOM     14  C   UNL     1      -3.173   0.030  22.874  0.00  0.00    +0.164 C 
ATOM     15  C   UNL     1      -2.353   0.435  21.651  0.00  0.00    +0.056 C 
ATOM     16  C   UNL     1      -2.954   2.431  22.842  0.00  0.00    +0.131 C 
ATOM     18  C   UNL     1      -4.621   1.329  24.437  0.00  0.00    +0.264 C 
ENDROOT
BRANCH  13   8
ATOM      3  O   UNL     1       0.186  -0.169  21.783  0.00  0.00    -0.253 OA
ATOM      8  N   UNL     1      -0.582   1.822  22.673  0.00  0.00    -0.295 N 
ATOM     11  N   UNL     1       1.484   1.046  23.316  0.00  0.00    -0.269 N 
ATOM     21  C   UNL     1       0.361   0.796  22.522  0.00  0.00    +0.304 C 
ATOM     42  H   UNL     1      -0.393   2.552  23.352  0.00  0.00    +0.151 HD
ATOM     44  H   UNL     1       1.470   1.897  23.871  0.00  0.00    +0.156 HD
BRANCH  11  29
ATOM     29  C   UNL     1       2.649   0.255  23.444  0.00  0.00    +0.038 A 
ATOM     32  C   UNL     1       3.909   0.839  23.311  0.00  0.00    +0.069 A 
ATOM     33  C   UNL     1       2.539  -1.112  23.703  0.00  0.00    +0.023 A 
ATOM     37  C   UNL     1       5.058   0.058  23.437  0.00  0.00    +0.122 A 
ATOM     38  C   UNL     1       3.687  -1.892  23.830  0.00  0.00    +0.005 A 
ATOM     39  C   UNL     1       4.946  -1.308  23.697  0.00  0.00    +0.046 A 
BRANCH  37   6
ATOM      6  O   UNL     1       6.286   0.628  23.308  0.00  0.00    -0.495 OA
ATOM     41  C   UNL     1       7.392  -0.248  23.100  0.00  0.00    +0.277 C 
ENDBRANCH  37   6
ENDBRANCH  11  29
ENDBRANCH  13   8
BRANCH  18  19
ATOM     10  N   UNL     1      -5.854   2.897  25.951  0.00  0.00    -0.346 N 
ATOM     19  C   UNL     1      -5.040   2.654  24.874  0.00  0.00    +0.104 A 
ATOM     23  C   UNL     1      -4.713   3.867  24.311  0.00  0.00    +0.032 A 
ATOM     25  C   UNL     1      -6.050   4.246  26.082  0.00  0.00    +0.086 A 
ATOM     26  C   UNL     1      -5.352   4.875  25.075  0.00  0.00    +0.020 A 
ATOM     28  C   UNL     1      -6.425   1.895  26.824  0.00  0.00    +0.149 C 
ENDBRANCH  18  19
BRANCH  14  17
ATOM      1  O   UNL     1      -2.224  -1.942  23.829  0.00  0.00    -0.274 OA
ATOM      9  N   UNL     1      -1.763   0.119  24.809  0.00  0.00    -0.302 N 
ATOM     17  C   UNL     1      -2.338  -0.720  23.870  0.00  0.00    +0.234 C 
ATOM     43  H   UNL     1      -1.962   1.114  24.772  0.00  0.00    +0.150 HD
BRANCH   9  20
ATOM     20  C   UNL     1      -0.931  -0.358  25.890  0.00  0.00    +0.163 C 
BRANCH  20  24
ATOM      4  O   UNL     1      -1.509  -1.257  28.072  0.00  0.00    -0.274 OA
ATOM     12  N   UNL     1      -3.141  -1.156  26.459  0.00  0.00    -0.328 N 
ATOM     24  C   UNL     1      -1.856  -0.981  26.926  0.00  0.00    +0.231 C 
ATOM     45  H   UNL     1      -3.862  -1.548  27.055  0.00  0.00    +0.145 HD
ATOM     46  H   UNL     1      -3.415  -0.919  25.511  0.00  0.00    +0.145 HD
ENDBRANCH  20  24
BRANCH  20  22
ATOM     22  C   UNL     1      -0.101   0.765  26.521  0.00  0.00    +0.067 C 
BRANCH  22  27
ATOM     27  C   UNL     1      -0.591   2.140  26.136  0.00  0.00    -0.045 A 
ATOM     30  C   UNL     1      -1.839   2.582  26.575  0.00  0.00    +0.007 A 
ATOM     31  C   UNL     1       0.203   2.968  25.344  0.00  0.00    +0.007 A 
ATOM     34  C   UNL     1      -2.294   3.853  26.220  0.00  0.00    +0.046 A 
ATOM     35  C   UNL     1      -0.251   4.238  24.988  0.00  0.00    +0.046 A 
ATOM     36  C   UNL     1      -1.499   4.680  25.426  0.00  0.00    +0.120 A 
BRANCH  36   5
ATOM      5  O   UNL     1      -1.942   5.920  25.080  0.00  0.00    -0.495 OA
ATOM     40  C   UNL     1      -2.195   6.155  23.695  0.00  0.00    +0.277 C 
ENDBRANCH  36   5
ENDBRANCH  22  27
ENDBRANCH  20  22
ENDBRANCH   9  20
ENDBRANCH  14  17
TORSDOF 10
ENDMDL
MODEL 4
REMARK VINA RESULT:      13.0      2.438      4.594
REMARK  Name = 11882049
REMARK  13 active torsions:
REMARK  status: ('A' for Active; 'I' for Inactive)
REMARK    1  A    between atoms: O_5  and  C_36
REMARK    2  A    between atoms: O_5  and  C_40
REMARK    3  A    between atoms: O_6  and  C_37
REMARK    4  A    between atoms: O_6  and  C_41
REMARK    5  A    between atoms: N_8  and  C_13
REMARK    6  A    between atoms: N_9  and  C_20
REMARK    7  A    between atoms: N_10  and  C_28
REMARK    8  A    between atoms: N_11  and  C_29
REMARK    9  A    between atoms: C_14  and  C_17
REMARK   10  A    between atoms: C_18  and  C_19
REMARK   11  A    between atoms: C_20  and  C_22
REMARK   12  A    between atoms: C_20  and  C_24
REMARK   13  A    between atoms: C_22  and  C_27
REMARK                            x       y       z     vdW  Elec       q    Type
REMARK                         _______ _______ _______ _____ _____    ______ ____
ROOT
ATOM      2  O   UNL     1      -5.660   0.469  23.803  0.00  0.00    -0.268 OA
ATOM      7  N   UNL     1      -4.389   2.362  24.156  0.00  0.00    -0.283 N 
ATOM     13  C   UNL     1      -2.796   4.130  24.166  0.00  0.00    +0.094 C 
ATOM     14  C   UNL     1      -3.750   2.340  22.848  0.00  0.00    +0.164 C 
ATOM     15  C   UNL     1      -3.052   3.693  22.721  0.00  0.00    +0.056 C 
ATOM     16  C   UNL     1      -3.970   3.530  24.933  0.00  0.00    +0.131 C 
ATOM     18  C   UNL     1      -5.365   1.429  24.518  0.00  0.00    +0.264 C 
ENDROOT
BRANCH  13   8
ATOM      3  O   UNL     1      -2.031   3.879  26.915  0.00  0.00    -0.253 OA
ATOM      8  N   UNL     1      -1.532   3.655  24.669  0.00  0.00    -0.295 N 
ATOM     11  N   UNL     1       0.061   3.072  26.219  0.00  0.00    -0.269 N 
ATOM     21  C   UNL     1      -1.235   3.563  26.035  0.00  0.00    +0.304 C 
ATOM     42  H   UNL     1      -0.798   3.438  24.001  0.00  0.00    +0.151 HD
ATOM     44  H   UNL     1       0.592   2.857  25.380  0.00  0.00    +0.156 HD
BRANCH  11  29
ATOM     29  C   UNL     1       0.732   2.834  27.441  0.00  0.00    +0.038 A 
ATOM     32  C   UNL     1       2.117   2.984  27.517  0.00  0.00    +0.069 A 
ATOM     33  C   UNL     1       0.009   2.451  28.571  0.00  0.00    +0.023 A 
ATOM     37  C   UNL     1       2.779   2.750  28.723  0.00  0.00    +0.122 A 
ATOM     38  C   UNL     1       0.670   2.218  29.776  0.00  0.00    +0.005 A 
ATOM     39  C   UNL     1       2.055   2.367  29.852  0.00  0.00    +0.046 A 
BRANCH  37   6
ATOM      6  O   UNL     1       4.129   2.896  28.797  0.00  0.00    -0.495 OA
ATOM     41  C   UNL     1       4.923   2.028  27.989  0.00  0.00    +0.277 C 
ENDBRANCH  37   6
ENDBRANCH  11  29
ENDBRANCH  13   8
BRANCH  18  19
ATOM     10  N   UNL     1      -6.420   2.840  26.297  0.00  0.00    -0.346 N 
ATOM     19  C   UNL     1      -6.004   1.627  25.812  0.00  0.00    +0.104 A 
ATOM     23  C   UNL     1      -6.299   0.671  26.758  0.00  0.00    +0.032 A 
ATOM     25  C   UNL     1      -6.976   2.671  27.538  0.00  0.00    +0.086 A 
ATOM     26  C   UNL     1      -6.914   1.331  27.850  0.00  0.00    +0.020 A 
ATOM     28  C   UNL     1      -6.298   4.111  25.617  0.00  0.00    +0.149 C 
ENDBRANCH  18  19
BRANCH  14  17
ATOM      1  O   UNL     1      -1.893   1.142  21.946  0.00  0.00    -0.274 OA
ATOM      9  N   UNL     1      -2.988   0.285  23.812  0.00  0.00    -0.302 N 
ATOM     17  C   UNL     1      -2.766   1.209  22.806  0.00  0.00    +0.234 C 
ATOM     43  H   UNL     1      -3.770   0.418  24.446  0.00  0.00    +0.150 HD
BRANCH   9  20
ATOM     20  C   UNL     1      -2.191  -0.910  23.977  0.00  0.00    +0.163 C 
BRANCH  20  24
ATOM      4  O   UNL     1      -2.863  -2.722  25.449  0.00  0.00    -0.274 OA
ATOM     12  N   UNL     1      -4.306  -2.064  23.788  0.00  0.00    -0.328 N 
ATOM     24  C   UNL     1      -3.120  -2.002  24.488  0.00  0.00    +0.231 C 
ATOM     45  H   UNL     1      -5.022  -2.739  24.037  0.00  0.00    +0.145 HD
ATOM     46  H   UNL     1      -4.508  -1.460  22.998  0.00  0.00    +0.145 HD
ENDBRANCH  20  24
BRANCH  20  22
ATOM     22  C   UNL     1      -1.027  -0.700  24.952  0.00  0.00    +0.067 C 
BRANCH  22  27
ATOM     27  C   UNL     1       0.246  -0.278  24.259  0.00  0.00    -0.045 A 
ATOM     30  C   UNL     1       0.545   1.077  24.119  0.00  0.00    +0.007 A 
ATOM     31  C   UNL     1       1.123  -1.241  23.761  0.00  0.00    +0.007 A 
ATOM     34  C   UNL     1       1.722   1.469  23.479  0.00  0.00    +0.046 A 
ATOM     35  C   UNL     1       2.298  -0.850  23.121  0.00  0.00    +0.046 A 
ATOM     36  C   UNL     1       2.598   0.505  22.980  0.00  0.00    +0.120 A 
BRANCH  36   5
ATOM      5  O   UNL     1       3.746   0.887  22.355  0.00  0.00    -0.495 OA
ATOM     40  C   UNL     1       4.976   0.493  22.962  0.00  0.00    +0.277 C 
ENDBRANCH  36   5
ENDBRANCH  22  27
ENDBRANCH  20  22
ENDBRANCH   9  20
ENDBRANCH  14  17
TORSDOF 10
ENDMDL
MODEL 5
REMARK VINA RESULT:      13.3      2.405      4.644
REMARK  Name = 11882049
REMARK  13 active torsions:
REMARK  status: ('A' for Active; 'I' for Inactive)
REMARK    1  A    between atoms: O_5  and  C_36
REMARK    2  A    between atoms: O_5  and  C_40
REMARK    3  A    between atoms: O_6  and  C_37
REMARK    4  A    between atoms: O_6  and  C_41
REMARK    5  A    between atoms: N_8  and  C_13
REMARK    6  A    between atoms: N_9  and  C_20
REMARK    7  A    between atoms: N_10  and  C_28
REMARK    8  A    between atoms: N_11  and  C_29
REMARK    9  A    between atoms: C_14  and  C_17
REMARK   10  A    between atoms: C_18  and  C_19
REMARK   11  A    between atoms: C_20  and  C_22
REMARK   12  A    between atoms: C_20  and  C_24
REMARK   13  A    between atoms: C_22  and  C_27
REMARK                            x       y       z     vdW  Elec       q    Type
REMARK                         _______ _______ _______ _____ _____    ______ ____
ROOT
ATOM      2  O   UNL     1      -5.095  -0.163  24.053  0.00  0.00    -0.268 OA
ATOM      7  N   UNL     1      -3.788   1.737  24.041  0.00  0.00    -0.283 N 
ATOM     13  C   UNL     1      -2.137   3.427  23.758  0.00  0.00    +0.094 C 
ATOM     14  C   UNL     1      -3.045   1.382  22.840  0.00  0.00    +0.164 C 
ATOM     15  C   UNL     1      -2.290   2.650  22.447  0.00  0.00    +0.056 C 
ATOM     16  C   UNL     1      -3.391   3.056  24.542  0.00  0.00    +0.131 C 
ATOM     18  C   UNL     1      -4.824   0.939  24.533  0.00  0.00    +0.264 C 
ENDROOT
BRANCH  13   8
ATOM      3  O   UNL     1      -1.696   3.640  26.580  0.00  0.00    -0.253 OA
ATOM      8  N   UNL     1      -0.937   3.073  24.471  0.00  0.00    -0.295 N 
ATOM     11  N   UNL     1       0.469   2.786  26.267  0.00  0.00    -0.269 N 
ATOM     21  C   UNL     1      -0.800   3.208  25.859  0.00  0.00    +0.304 C 
ATOM     42  H   UNL     1      -0.128   2.771  23.936  0.00  0.00    +0.151 HD
ATOM     44  H   UNL     1       1.095   2.454  25.539  0.00  0.00    +0.156 HD
BRANCH  11  29
ATOM     29  C   UNL     1       0.995   2.765  27.580  0.00  0.00    +0.038 A 
ATOM     32  C   UNL     1       0.133   2.733  28.676  0.00  0.00    +0.069 A 
ATOM     33  C   UNL     1       2.376   2.775  27.777  0.00  0.00    +0.023 A 
ATOM     37  C   UNL     1       0.653   2.711  29.971  0.00  0.00    +0.122 A 
ATOM     38  C   UNL     1       2.895   2.753  29.071  0.00  0.00    +0.005 A 
ATOM     39  C   UNL     1       2.034   2.721  30.168  0.00  0.00    +0.046 A 
BRANCH  37   6
ATOM      6  O   UNL     1      -0.187   2.680  31.040  0.00  0.00    -0.495 OA
ATOM     41  C   UNL     1       0.376   2.316  32.300  0.00  0.00    +0.277 C 
ENDBRANCH  37   6
ENDBRANCH  11  29
ENDBRANCH  13   8
BRANCH  18  19
ATOM     10  N   UNL     1      -5.864   2.785  25.869  0.00  0.00    -0.346 N 
ATOM     19  C   UNL     1      -5.559   1.461  25.677  0.00  0.00    +0.104 A 
ATOM     23  C   UNL     1      -6.067   0.754  26.744  0.00  0.00    +0.032 A 
ATOM     25  C   UNL     1      -6.558   2.930  27.040  0.00  0.00    +0.086 A 
ATOM     26  C   UNL     1      -6.699   1.683  27.606  0.00  0.00    +0.020 A 
ATOM     28  C   UNL     1      -5.514   3.871  24.980  0.00  0.00    +0.149 C 
ENDBRANCH  18  19
BRANCH  14  17
ATOM      1  O   UNL     1      -2.434  -0.671  23.894  0.00  0.00    -0.274 OA
ATOM      9  N   UNL     1      -0.864   0.431  22.576  0.00  0.00    -0.302 N 
ATOM     17  C   UNL     1      -2.104   0.260  23.165  0.00  0.00    +0.234 C 
ATOM     43  H   UNL     1      -0.686   1.265  22.025  0.00  0.00    +0.150 HD
BRANCH   9  20
ATOM     20  C   UNL     1       0.229  -0.499  22.751  0.00  0.00    +0.163 C 
BRANCH  20  24
ATOM      4  O   UNL     1       1.186   0.671  24.653  0.00  0.00    -0.274 OA
ATOM     12  N   UNL     1       0.503  -1.503  24.933  0.00  0.00    -0.328 N 
ATOM     24  C   UNL     1       0.708  -0.361  24.189  0.00  0.00    +0.231 C 
ATOM     45  H   UNL     1       0.763  -1.540  25.913  0.00  0.00    +0.145 HD
ATOM     46  H   UNL     1       0.102  -2.349  24.538  0.00  0.00    +0.145 HD
ENDBRANCH  20  24
BRANCH  20  22
ATOM     22  C   UNL     1       1.381  -0.231  21.776  0.00  0.00    +0.067 C 
BRANCH  22  27
ATOM     27  C   UNL     1       2.732  -0.249  22.449  0.00  0.00    -0.045 A 
ATOM     30  C   UNL     1       3.542   0.886  22.412  0.00  0.00    +0.007 A 
ATOM     31  C   UNL     1       3.169  -1.397  23.108  0.00  0.00    +0.007 A 
ATOM     34  C   UNL     1       4.792   0.871  23.033  0.00  0.00    +0.046 A 
ATOM     35  C   UNL     1       4.417  -1.412  23.729  0.00  0.00    +0.046 A 
ATOM     36  C   UNL     1       5.229  -0.278  23.691  0.00  0.00    +0.120 A 
BRANCH  36   5
ATOM      5  O   UNL     1       6.447  -0.293  24.298  0.00  0.00    -0.495 OA
ATOM     40  C   UNL     1       7.591  -0.127  23.461  0.00  0.00    +0.277 C 
ENDBRANCH  36   5
ENDBRANCH  22  27
ENDBRANCH  20  22
ENDBRANCH   9  20
ENDBRANCH  14  17
TORSDOF 10
ENDMDL
