MODEL 1
REMARK VINA RESULT:      -2.7      0.000      0.000
REMARK  Name = 51136788
REMARK  8 active torsions:
REMARK  status: ('A' for Active; 'I' for Inactive)
REMARK    1  A    between atoms: O_3  and  C_18
REMARK    2  A    between atoms: N_7  and  C_23
REMARK    3  A    between atoms: C_8  and  C_13
REMARK    4  A    between atoms: C_9  and  C_14
REMARK    5  A    between atoms: C_13  and  C_15
REMARK    6  A    between atoms: C_14  and  C_18
REMARK    7  A    between atoms: C_23  and  C_27
REMARK    8  A    between atoms: C_27  and  C_28
REMARK                            x       y       z     vdW  Elec       q    Type
REMARK                         _______ _______ _______ _____ _____    ______ ____
ROOT
ATOM      2  O   UNL     1      -1.960  -2.574  24.263  0.00  0.00    -0.253 OA
ATOM      5  N   UNL     1      -0.499  -0.914  24.957  0.00  0.00    -0.285 N 
ATOM      7  N   UNL     1      -2.816  -0.781  25.407  0.00  0.00    -0.299 N 
ATOM      8  C   UNL     1       0.471   1.345  24.638  0.00  0.00    +0.016 C 
ATOM      9  C   UNL     1       1.707   0.682  23.974  0.00  0.00    +0.006 C 
ATOM     10  C   UNL     1       1.362  -0.690  23.366  0.00  0.00    +0.023 C 
ATOM     11  C   UNL     1      -0.178   0.358  25.623  0.00  0.00    +0.113 C 
ATOM     12  C   UNL     1       0.663  -1.593  24.382  0.00  0.00    +0.109 C 
ATOM     16  C   UNL     1      -1.770  -1.498  24.839  0.00  0.00    +0.302 C 
ATOM     29  H   UNL     1      -2.666   0.110  25.857  0.00  0.00    +0.150 HD
ENDROOT
BRANCH   8  13
ATOM     13  C   UNL     1      -0.570   1.866  23.639  0.00  0.00    +0.061 C 
BRANCH  13  15
ATOM      1  F   UNL     1      -6.828   2.566  25.283  0.00  0.00    -0.205 F 
ATOM      6  N   UNL     1      -0.671   4.084  24.557  0.00  0.00    -0.287 NA
ATOM     15  C   UNL     1      -1.333   3.018  24.249  0.00  0.00    +0.044 C 
ATOM     17  C   UNL     1      -2.794   2.869  24.469  0.00  0.00    -0.001 A 
ATOM     19  C   UNL     1      -3.391   3.764  25.366  0.00  0.00    -0.034 A 
ATOM     20  C   UNL     1      -2.529   4.786  26.045  0.00  0.00    +0.059 C 
ATOM     21  C   UNL     1      -1.423   5.223  25.094  0.00  0.00    +0.146 C 
ATOM     22  C   UNL     1      -3.558   1.885  23.838  0.00  0.00    +0.013 A 
ATOM     24  C   UNL     1      -4.756   3.651  25.648  0.00  0.00    +0.042 A 
ATOM     25  C   UNL     1      -4.922   1.790  24.113  0.00  0.00    +0.039 A 
ATOM     26  C   UNL     1      -5.519   2.669  25.018  0.00  0.00    +0.124 A 
ENDBRANCH  13  15
ENDBRANCH   8  13
BRANCH   9  14
ATOM     14  C   UNL     1       2.384   1.577  22.936  0.00  0.00    +0.124 C 
BRANCH  14  18
ATOM      4  O   UNL     1       4.711   0.984  23.352  0.00  0.00    -0.251 OA
ATOM     18  C   UNL     1       3.761   1.083  22.590  0.00  0.00    +0.305 C 
BRANCH  18   3
ATOM      3  O   UNL     1       3.811   0.752  21.275  0.00  0.00    -0.481 OA
ATOM     30  H   UNL     1       3.003   0.275  20.986  0.00  0.00    +0.295 HD
ENDBRANCH  18   3
ENDBRANCH  14  18
ENDBRANCH   9  14
BRANCH   7  23
ATOM     23  C   UNL     1      -4.183  -1.247  25.359  0.00  0.00    +0.105 C 
BRANCH  23  27
ATOM     27  C   UNL     1      -4.656  -1.514  23.934  0.00  0.00    +0.015 C 
ATOM     28  C   UNL     1      -4.666  -2.996  23.586  0.00  0.00    +0.005 C 
ENDBRANCH  23  27
ENDBRANCH   7  23
TORSDOF 7
ENDMDL
MODEL 2
REMARK VINA RESULT:      -2.6      2.972      7.020
REMARK  Name = 51136788
REMARK  8 active torsions:
REMARK  status: ('A' for Active; 'I' for Inactive)
REMARK    1  A    between atoms: O_3  and  C_18
REMARK    2  A    between atoms: N_7  and  C_23
REMARK    3  A    between atoms: C_8  and  C_13
REMARK    4  A    between atoms: C_9  and  C_14
REMARK    5  A    between atoms: C_13  and  C_15
REMARK    6  A    between atoms: C_14  and  C_18
REMARK    7  A    between atoms: C_23  and  C_27
REMARK    8  A    between atoms: C_27  and  C_28
REMARK                            x       y       z     vdW  Elec       q    Type
REMARK                         _______ _______ _______ _____ _____    ______ ____
ROOT
ATOM      2  O   UNL     1       0.488   4.540  23.589  0.00  0.00    -0.253 OA
ATOM      5  N   UNL     1      -1.058   3.589  25.031  0.00  0.00    -0.285 N 
ATOM      7  N   UNL     1       0.642   2.293  24.021  0.00  0.00    -0.299 N 
ATOM      8  C   UNL     1      -3.111   2.242  25.372  0.00  0.00    +0.016 C 
ATOM      9  C   UNL     1      -3.903   3.563  25.562  0.00  0.00    +0.006 C 
ATOM     10  C   UNL     1      -3.220   4.747  24.854  0.00  0.00    +0.023 C 
ATOM     11  C   UNL     1      -1.642   2.460  25.770  0.00  0.00    +0.113 C 
ATOM     12  C   UNL     1      -1.748   4.861  25.248  0.00  0.00    +0.109 C 
ATOM     16  C   UNL     1       0.055   3.543  24.176  0.00  0.00    +0.302 C 
ATOM     29  H   UNL     1       0.276   1.474  24.482  0.00  0.00    +0.150 HD
ENDROOT
BRANCH   8  13
ATOM     13  C   UNL     1      -3.201   1.659  23.956  0.00  0.00    +0.061 C 
BRANCH  13  15
ATOM      1  F   UNL     1       0.909  -3.081  25.689  0.00  0.00    -0.205 F 
ATOM      6  N   UNL     1      -4.514  -0.340  23.737  0.00  0.00    -0.287 NA
ATOM     15  C   UNL     1      -3.359   0.159  24.029  0.00  0.00    +0.044 C 
ATOM     17  C   UNL     1      -2.191  -0.663  24.436  0.00  0.00    -0.001 A 
ATOM     19  C   UNL     1      -2.459  -1.970  24.864  0.00  0.00    -0.034 A 
ATOM     20  C   UNL     1      -3.882  -2.439  24.899  0.00  0.00    +0.059 C 
ATOM     21  C   UNL     1      -4.651  -1.800  23.749  0.00  0.00    +0.146 C 
ATOM     22  C   UNL     1      -0.882  -0.179  24.416  0.00  0.00    +0.013 A 
ATOM     24  C   UNL     1      -1.407  -2.782  25.299  0.00  0.00    +0.042 A 
ATOM     25  C   UNL     1       0.163  -1.002  24.836  0.00  0.00    +0.039 A 
ATOM     26  C   UNL     1      -0.099  -2.299  25.279  0.00  0.00    +0.124 A 
ENDBRANCH  13  15
ENDBRANCH   8  13
BRANCH   9  14
ATOM     14  C   UNL     1      -5.367   3.452  25.137  0.00  0.00    +0.124 C 
BRANCH  14  18
ATOM      4  O   UNL     1      -6.144   2.208  27.083  0.00  0.00    -0.251 OA
ATOM     18  C   UNL     1      -6.078   2.349  25.871  0.00  0.00    +0.305 C 
BRANCH  18   3
ATOM      3  O   UNL     1      -6.655   1.504  24.980  0.00  0.00    -0.481 OA
ATOM     30  H   UNL     1      -6.070   0.746  24.762  0.00  0.00    +0.295 HD
ENDBRANCH  18   3
ENDBRANCH  14  18
ENDBRANCH   9  14
BRANCH   7  23
ATOM     23  C   UNL     1       1.790   2.084  23.167  0.00  0.00    +0.105 C 
BRANCH  23  27
ATOM     27  C   UNL     1       2.265   0.635  23.178  0.00  0.00    +0.015 C 
ATOM     28  C   UNL     1       3.734   0.495  22.802  0.00  0.00    +0.005 C 
ENDBRANCH  23  27
ENDBRANCH   7  23
TORSDOF 7
ENDMDL
MODEL 3
REMARK VINA RESULT:      -2.6      1.463      2.124
REMARK  Name = 51136788
REMARK  8 active torsions:
REMARK  status: ('A' for Active; 'I' for Inactive)
REMARK    1  A    between atoms: O_3  and  C_18
REMARK    2  A    between atoms: N_7  and  C_23
REMARK    3  A    between atoms: C_8  and  C_13
REMARK    4  A    between atoms: C_9  and  C_14
REMARK    5  A    between atoms: C_13  and  C_15
REMARK    6  A    between atoms: C_14  and  C_18
REMARK    7  A    between atoms: C_23  and  C_27
REMARK    8  A    between atoms: C_27  and  C_28
REMARK                            x       y       z     vdW  Elec       q    Type
REMARK                         _______ _______ _______ _____ _____    ______ ____
ROOT
ATOM      2  O   UNL     1      -4.261  -1.873  24.485  0.00  0.00    -0.253 OA
ATOM      5  N   UNL     1      -2.151  -1.024  24.929  0.00  0.00    -0.285 N 
ATOM      7  N   UNL     1      -4.106   0.178  25.499  0.00  0.00    -0.299 N 
ATOM      8  C   UNL     1      -0.305   0.521  24.338  0.00  0.00    +0.016 C 
ATOM      9  C   UNL     1       0.431  -0.670  23.670  0.00  0.00    +0.006 C 
ATOM     10  C   UNL     1      -0.550  -1.767  23.217  0.00  0.00    +0.023 C 
ATOM     11  C   UNL     1      -1.230  -0.002  25.449  0.00  0.00    +0.113 C 
ATOM     12  C   UNL     1      -1.480  -2.190  24.354  0.00  0.00    +0.109 C 
ATOM     16  C   UNL     1      -3.554  -0.970  24.943  0.00  0.00    +0.302 C 
ATOM     29  H   UNL     1      -3.529   0.927  25.852  0.00  0.00    +0.150 HD
ENDROOT
BRANCH   8  13
ATOM     13  C   UNL     1      -1.090   1.400  23.357  0.00  0.00    +0.061 C 
BRANCH  13  15
ATOM      1  F   UNL     1      -6.273   4.769  25.393  0.00  0.00    -0.205 F 
ATOM      6  N   UNL     1      -0.159   3.491  24.083  0.00  0.00    -0.287 NA
ATOM     15  C   UNL     1      -1.234   2.794  23.918  0.00  0.00    +0.044 C 
ATOM     17  C   UNL     1      -2.592   3.291  24.259  0.00  0.00    -0.001 A 
ATOM     19  C   UNL     1      -2.662   4.396  25.116  0.00  0.00    -0.034 A 
ATOM     20  C   UNL     1      -1.386   4.986  25.638  0.00  0.00    +0.059 C 
ATOM     21  C   UNL     1      -0.304   4.866  24.572  0.00  0.00    +0.146 C 
ATOM     22  C   UNL     1      -3.758   2.695  23.774  0.00  0.00    +0.013 A 
ATOM     24  C   UNL     1      -3.911   4.887  25.508  0.00  0.00    +0.042 A 
ATOM     25  C   UNL     1      -5.000   3.202  24.157  0.00  0.00    +0.039 A 
ATOM     26  C   UNL     1      -5.077   4.293  25.023  0.00  0.00    +0.124 A 
ENDBRANCH  13  15
ENDBRANCH   8  13
BRANCH   9  14
ATOM     14  C   UNL     1       1.335  -0.245  22.513  0.00  0.00    +0.124 C 
BRANCH  14  18
ATOM      4  O   UNL     1       3.637  -0.707  23.167  0.00  0.00    -0.251 OA
ATOM     18  C   UNL     1       2.724   0.084  22.984  0.00  0.00    +0.305 C 
BRANCH  18   3
ATOM      3  O   UNL     1       2.833   1.422  23.187  0.00  0.00    -0.481 OA
ATOM     30  H   UNL     1       3.648   1.788  22.781  0.00  0.00    +0.295 HD
ENDBRANCH  18   3
ENDBRANCH  14  18
ENDBRANCH   9  14
BRANCH   7  23
ATOM     23  C   UNL     1      -5.535   0.384  25.576  0.00  0.00    +0.105 C 
BRANCH  23  27
ATOM     27  C   UNL     1      -5.900   1.615  26.398  0.00  0.00    +0.015 C 
ATOM     28  C   UNL     1      -6.946   1.320  27.465  0.00  0.00    +0.005 C 
ENDBRANCH  23  27
ENDBRANCH   7  23
TORSDOF 7
ENDMDL
MODEL 4
REMARK VINA RESULT:      -2.4      2.819      6.620
REMARK  Name = 51136788
REMARK  8 active torsions:
REMARK  status: ('A' for Active; 'I' for Inactive)
REMARK    1  A    between atoms: O_3  and  C_18
REMARK    2  A    between atoms: N_7  and  C_23
REMARK    3  A    between atoms: C_8  and  C_13
REMARK    4  A    between atoms: C_9  and  C_14
REMARK    5  A    between atoms: C_13  and  C_15
REMARK    6  A    between atoms: C_14  and  C_18
REMARK    7  A    between atoms: C_23  and  C_27
REMARK    8  A    between atoms: C_27  and  C_28
REMARK                            x       y       z     vdW  Elec       q    Type
REMARK                         _______ _______ _______ _____ _____    ______ ____
ROOT
ATOM      2  O   UNL     1       0.477   4.206  23.367  0.00  0.00    -0.253 OA
ATOM      5  N   UNL     1      -1.071   3.862  25.057  0.00  0.00    -0.285 N 
ATOM      7  N   UNL     1       0.586   2.251  24.560  0.00  0.00    -0.299 N 
ATOM      8  C   UNL     1      -3.150   2.774  25.857  0.00  0.00    +0.016 C 
ATOM      9  C   UNL     1      -3.909   4.098  25.574  0.00  0.00    +0.006 C 
ATOM     10  C   UNL     1      -3.209   4.939  24.493  0.00  0.00    +0.023 C 
ATOM     11  C   UNL     1      -1.671   3.079  26.148  0.00  0.00    +0.113 C 
ATOM     12  C   UNL     1      -1.729   5.147  24.816  0.00  0.00    +0.109 C 
ATOM     16  C   UNL     1       0.030   3.490  24.269  0.00  0.00    +0.302 C 
ATOM     29  H   UNL     1       0.207   1.655  25.281  0.00  0.00    +0.150 HD
ENDROOT
BRANCH   8  13
ATOM     13  C   UNL     1      -3.271   1.734  24.736  0.00  0.00    +0.061 C 
BRANCH  13  15
ATOM      1  F   UNL     1      -4.230  -4.543  23.306  0.00  0.00    -0.205 F 
ATOM      6  N   UNL     1      -1.446   0.617  25.827  0.00  0.00    -0.287 NA
ATOM     15  C   UNL     1      -2.515   0.483  25.114  0.00  0.00    +0.044 C 
ATOM     17  C   UNL     1      -3.027  -0.830  24.646  0.00  0.00    -0.001 A 
ATOM     19  C   UNL     1      -2.127  -1.904  24.672  0.00  0.00    -0.034 A 
ATOM     20  C   UNL     1      -0.726  -1.658  25.146  0.00  0.00    +0.059 C 
ATOM     21  C   UNL     1      -0.745  -0.602  26.244  0.00  0.00    +0.146 C 
ATOM     22  C   UNL     1      -4.332  -1.012  24.184  0.00  0.00    +0.013 A 
ATOM     24  C   UNL     1      -2.535  -3.157  24.206  0.00  0.00    +0.042 A 
ATOM     25  C   UNL     1      -4.735  -2.270  23.737  0.00  0.00    +0.039 A 
ATOM     26  C   UNL     1      -3.838  -3.339  23.745  0.00  0.00    +0.124 A 
ENDBRANCH  13  15
ENDBRANCH   8  13
BRANCH   9  14
ATOM     14  C   UNL     1      -5.381   3.882  25.220  0.00  0.00    +0.124 C 
BRANCH  14  18
ATOM      4  O   UNL     1      -5.924   2.526  27.171  0.00  0.00    -0.251 OA
ATOM     18  C   UNL     1      -5.967   2.715  25.965  0.00  0.00    +0.305 C 
BRANCH  18   3
ATOM      3  O   UNL     1      -6.570   1.870  25.090  0.00  0.00    -0.481 OA
ATOM     30  H   UNL     1      -7.356   1.435  25.484  0.00  0.00    +0.295 HD
ENDBRANCH  18   3
ENDBRANCH  14  18
ENDBRANCH   9  14
BRANCH   7  23
ATOM     23  C   UNL     1       1.718   1.726  23.829  0.00  0.00    +0.105 C 
BRANCH  23  27
ATOM     27  C   UNL     1       1.397   0.410  23.129  0.00  0.00    +0.015 C 
ATOM     28  C   UNL     1       2.550  -0.097  22.274  0.00  0.00    +0.005 C 
ENDBRANCH  23  27
ENDBRANCH   7  23
TORSDOF 7
ENDMDL
MODEL 5
REMARK VINA RESULT:      -2.3      2.377      4.948
REMARK  Name = 51136788
REMARK  8 active torsions:
REMARK  status: ('A' for Active; 'I' for Inactive)
REMARK    1  A    between atoms: O_3  and  C_18
REMARK    2  A    between atoms: N_7  and  C_23
REMARK    3  A    between atoms: C_8  and  C_13
REMARK    4  A    between atoms: C_9  and  C_14
REMARK    5  A    between atoms: C_13  and  C_15
REMARK    6  A    between atoms: C_14  and  C_18
REMARK    7  A    between atoms: C_23  and  C_27
REMARK    8  A    between atoms: C_27  and  C_28
REMARK                            x       y       z     vdW  Elec       q    Type
REMARK                         _______ _______ _______ _____ _____    ______ ____
ROOT
ATOM      2  O   UNL     1      -3.229   4.987  26.118  0.00  0.00    -0.253 OA
ATOM      5  N   UNL     1      -2.233   3.597  24.553  0.00  0.00    -0.285 N 
ATOM      7  N   UNL     1      -4.304   3.043  25.550  0.00  0.00    -0.299 N 
ATOM      8  C   UNL     1      -0.924   1.555  24.039  0.00  0.00    +0.016 C 
ATOM      9  C   UNL     1       0.340   2.444  23.901  0.00  0.00    +0.006 C 
ATOM     10  C   UNL     1       0.217   3.746  24.712  0.00  0.00    +0.023 C 
ATOM     11  C   UNL     1      -2.177   2.388  23.719  0.00  0.00    +0.113 C 
ATOM     12  C   UNL     1      -1.081   4.485  24.389  0.00  0.00    +0.109 C 
ATOM     16  C   UNL     1      -3.255   3.948  25.450  0.00  0.00    +0.302 C 
ATOM     29  H   UNL     1      -4.315   2.183  25.021  0.00  0.00    +0.150 HD
ENDROOT
BRANCH   8  13
ATOM     13  C   UNL     1      -1.066   0.881  25.410  0.00  0.00    +0.061 C 
BRANCH  13  15
ATOM      1  F   UNL     1      -5.808  -3.058  23.323  0.00  0.00    -0.205 F 
ATOM      6  N   UNL     1      -0.074  -1.304  25.508  0.00  0.00    -0.287 NA
ATOM     15  C   UNL     1      -1.135  -0.618  25.239  0.00  0.00    +0.044 C 
ATOM     17  C   UNL     1      -2.405  -1.225  24.766  0.00  0.00    -0.001 A 
ATOM     19  C   UNL     1      -2.329  -2.527  24.254  0.00  0.00    -0.034 A 
ATOM     20  C   UNL     1      -0.992  -3.204  24.203  0.00  0.00    +0.059 C 
ATOM     21  C   UNL     1      -0.159  -2.764  25.400  0.00  0.00    +0.146 C 
ATOM     22  C   UNL     1      -3.626  -0.550  24.806  0.00  0.00    +0.013 A 
ATOM     24  C   UNL     1      -3.482  -3.140  23.756  0.00  0.00    +0.042 A 
ATOM     25  C   UNL     1      -4.775  -1.176  24.321  0.00  0.00    +0.039 A 
ATOM     26  C   UNL     1      -4.703  -2.467  23.795  0.00  0.00    +0.124 A 
ENDBRANCH  13  15
ENDBRANCH   8  13
BRANCH   9  14
ATOM     14  C   UNL     1       1.633   1.708  24.255  0.00  0.00    +0.124 C 
BRANCH  14  18
ATOM      4  O   UNL     1       1.374  -0.118  22.663  0.00  0.00    -0.251 OA
ATOM     18  C   UNL     1       2.054   0.765  23.163  0.00  0.00    +0.305 C 
BRANCH  18   3
ATOM      3  O   UNL     1       3.331   1.034  22.793  0.00  0.00    -0.481 OA
ATOM     30  H   UNL     1       3.559   0.621  21.933  0.00  0.00    +0.295 HD
ENDBRANCH  18   3
ENDBRANCH  14  18
ENDBRANCH   9  14
BRANCH   7  23
ATOM     23  C   UNL     1      -5.425   3.260  26.436  0.00  0.00    +0.105 C 
BRANCH  23  27
ATOM     27  C   UNL     1      -6.509   2.200  26.272  0.00  0.00    +0.015 C 
ATOM     28  C   UNL     1      -6.582   1.649  24.854  0.00  0.00    +0.005 C 
ENDBRANCH  23  27
ENDBRANCH   7  23
TORSDOF 7
ENDMDL
MODEL 6
REMARK VINA RESULT:      -2.2      1.700      5.143
REMARK  Name = 51136788
REMARK  8 active torsions:
REMARK  status: ('A' for Active; 'I' for Inactive)
REMARK    1  A    between atoms: O_3  and  C_18
REMARK    2  A    between atoms: N_7  and  C_23
REMARK    3  A    between atoms: C_8  and  C_13
REMARK    4  A    between atoms: C_9  and  C_14
REMARK    5  A    between atoms: C_13  and  C_15
REMARK    6  A    between atoms: C_14  and  C_18
REMARK    7  A    between atoms: C_23  and  C_27
REMARK    8  A    between atoms: C_27  and  C_28
REMARK                            x       y       z     vdW  Elec       q    Type
REMARK                         _______ _______ _______ _____ _____    ______ ____
ROOT
ATOM      2  O   UNL     1       3.344  -1.185  23.510  0.00  0.00    -0.253 OA
ATOM      5  N   UNL     1       1.141  -0.623  23.059  0.00  0.00    -0.285 N 
ATOM      7  N   UNL     1       2.896   0.932  22.751  0.00  0.00    -0.299 N 
ATOM      8  C   UNL     1      -0.949   0.526  23.735  0.00  0.00    +0.016 C 
ATOM      9  C   UNL     1      -1.506  -0.843  24.209  0.00  0.00    +0.006 C 
ATOM     10  C   UNL     1      -0.377  -1.824  24.575  0.00  0.00    +0.023 C 
ATOM     11  C   UNL     1       0.086   0.303  22.620  0.00  0.00    +0.113 C 
ATOM     12  C   UNL     1       0.647  -1.944  23.447  0.00  0.00    +0.109 C 
ATOM     16  C   UNL     1       2.517  -0.350  23.129  0.00  0.00    +0.302 C 
ATOM     29  H   UNL     1       2.218   1.622  22.462  0.00  0.00    +0.150 HD
ENDROOT
BRANCH   8  13
ATOM     13  C   UNL     1      -0.350   1.379  24.859  0.00  0.00    +0.061 C 
BRANCH  13  15
ATOM      1  F   UNL     1      -6.297   3.897  25.664  0.00  0.00    -0.205 F 
ATOM      6  N   UNL     1      -0.022   3.733  24.510  0.00  0.00    -0.287 NA
ATOM     15  C   UNL     1      -0.872   2.793  24.764  0.00  0.00    +0.044 C 
ATOM     17  C   UNL     1      -2.322   3.034  24.971  0.00  0.00    -0.001 A 
ATOM     19  C   UNL     1      -2.708   4.350  25.260  0.00  0.00    -0.034 A 
ATOM     20  C   UNL     1      -1.648   5.406  25.355  0.00  0.00    +0.059 C 
ATOM     21  C   UNL     1      -0.538   5.097  24.358  0.00  0.00    +0.146 C 
ATOM     22  C   UNL     1      -3.275   2.016  24.901  0.00  0.00    +0.013 A 
ATOM     24  C   UNL     1      -4.054   4.636  25.506  0.00  0.00    +0.042 A 
ATOM     25  C   UNL     1      -4.619   2.315  25.132  0.00  0.00    +0.039 A 
ATOM     26  C   UNL     1      -5.007   3.620  25.436  0.00  0.00    +0.124 A 
ENDBRANCH  13  15
ENDBRANCH   8  13
BRANCH   9  14
ATOM     14  C   UNL     1      -2.506  -0.719  25.358  0.00  0.00    +0.124 C 
BRANCH  14  18
ATOM      4  O   UNL     1      -3.623  -2.862  25.670  0.00  0.00    -0.251 OA
ATOM     18  C   UNL     1      -3.621  -1.720  25.236  0.00  0.00    +0.305 C 
BRANCH  18   3
ATOM      3  O   UNL     1      -4.658  -1.169  24.557  0.00  0.00    -0.481 OA
ATOM     30  H   UNL     1      -4.801  -1.605  23.689  0.00  0.00    +0.295 HD
ENDBRANCH  18   3
ENDBRANCH  14  18
ENDBRANCH   9  14
BRANCH   7  23
ATOM     23  C   UNL     1       4.274   1.366  22.778  0.00  0.00    +0.105 C 
BRANCH  23  27
ATOM     27  C   UNL     1       5.075   0.687  23.884  0.00  0.00    +0.015 C 
ATOM     28  C   UNL     1       6.228  -0.149  23.346  0.00  0.00    +0.005 C 
ENDBRANCH  23  27
ENDBRANCH   7  23
TORSDOF 7
ENDMDL
MODEL 7
REMARK VINA RESULT:      -0.4      3.331      6.548
REMARK  Name = 51136788
REMARK  8 active torsions:
REMARK  status: ('A' for Active; 'I' for Inactive)
REMARK    1  A    between atoms: O_3  and  C_18
REMARK    2  A    between atoms: N_7  and  C_23
REMARK    3  A    between atoms: C_8  and  C_13
REMARK    4  A    between atoms: C_9  and  C_14
REMARK    5  A    between atoms: C_13  and  C_15
REMARK    6  A    between atoms: C_14  and  C_18
REMARK    7  A    between atoms: C_23  and  C_27
REMARK    8  A    between atoms: C_27  and  C_28
REMARK                            x       y       z     vdW  Elec       q    Type
REMARK                         _______ _______ _______ _____ _____    ______ ____
ROOT
ATOM      2  O   UNL     1      -4.969   4.213  24.589  0.00  0.00    -0.253 OA
ATOM      5  N   UNL     1      -4.415   2.131  25.443  0.00  0.00    -0.285 N 
ATOM      7  N   UNL     1      -2.890   3.937  25.517  0.00  0.00    -0.299 N 
ATOM      8  C   UNL     1      -3.218  -0.026  25.198  0.00  0.00    +0.016 C 
ATOM      9  C   UNL     1      -4.557  -0.678  24.761  0.00  0.00    +0.006 C 
ATOM     10  C   UNL     1      -5.525   0.354  24.156  0.00  0.00    +0.023 C 
ATOM     11  C   UNL     1      -3.505   1.183  26.104  0.00  0.00    +0.113 C 
ATOM     12  C   UNL     1      -5.711   1.556  25.082  0.00  0.00    +0.109 C 
ATOM     16  C   UNL     1      -4.149   3.477  25.148  0.00  0.00    +0.302 C 
ATOM     29  H   UNL     1      -2.211   3.330  25.953  0.00  0.00    +0.150 HD
ENDROOT
BRANCH   8  13
ATOM     13  C   UNL     1      -2.312   0.383  24.030  0.00  0.00    +0.061 C 
BRANCH  13  15
ATOM      1  F   UNL     1       3.777   0.241  21.735  0.00  0.00    -0.205 F 
ATOM      6  N   UNL     1      -1.064   1.636  25.654  0.00  0.00    -0.287 NA
ATOM     15  C   UNL     1      -1.018   0.952  24.559  0.00  0.00    +0.044 C 
ATOM     17  C   UNL     1       0.234   0.706  23.799  0.00  0.00    -0.001 A 
ATOM     19  C   UNL     1       1.320   1.544  24.084  0.00  0.00    -0.034 A 
ATOM     20  C   UNL     1       1.145   2.626  25.108  0.00  0.00    +0.059 C 
ATOM     21  C   UNL     1       0.202   2.137  26.200  0.00  0.00    +0.146 C 
ATOM     22  C   UNL     1       0.347  -0.295  22.832  0.00  0.00    +0.013 A 
ATOM     24  C   UNL     1       2.514   1.391  23.374  0.00  0.00    +0.042 A 
ATOM     25  C   UNL     1       1.549  -0.451  22.141  0.00  0.00    +0.039 A 
ATOM     26  C   UNL     1       2.629   0.391  22.409  0.00  0.00    +0.124 A 
ENDBRANCH  13  15
ENDBRANCH   8  13
BRANCH   9  14
ATOM     14  C   UNL     1      -4.367  -1.860  23.810  0.00  0.00    +0.124 C 
BRANCH  14  18
ATOM      4  O   UNL     1      -2.243  -3.046  23.662  0.00  0.00    -0.251 OA
ATOM     18  C   UNL     1      -3.266  -2.774  24.272  0.00  0.00    +0.305 C 
BRANCH  18   3
ATOM      3  O   UNL     1      -3.568  -3.273  25.497  0.00  0.00    -0.481 OA
ATOM     30  H   UNL     1      -2.764  -3.447  26.031  0.00  0.00    +0.295 HD
ENDBRANCH  18   3
ENDBRANCH  14  18
ENDBRANCH   9  14
BRANCH   7  23
ATOM     23  C   UNL     1      -2.466   5.296  25.272  0.00  0.00    +0.105 C 
BRANCH  23  27
ATOM     27  C   UNL     1      -0.982   5.390  24.936  0.00  0.00    +0.015 C 
ATOM     28  C   UNL     1      -0.628   4.681  23.635  0.00  0.00    +0.005 C 
ENDBRANCH  23  27
ENDBRANCH   7  23
TORSDOF 7
ENDMDL
MODEL 8
REMARK VINA RESULT:       0.0      2.300      4.840
REMARK  Name = 51136788
REMARK  8 active torsions:
REMARK  status: ('A' for Active; 'I' for Inactive)
REMARK    1  A    between atoms: O_3  and  C_18
REMARK    2  A    between atoms: N_7  and  C_23
REMARK    3  A    between atoms: C_8  and  C_13
REMARK    4  A    between atoms: C_9  and  C_14
REMARK    5  A    between atoms: C_13  and  C_15
REMARK    6  A    between atoms: C_14  and  C_18
REMARK    7  A    between atoms: C_23  and  C_27
REMARK    8  A    between atoms: C_27  and  C_28
REMARK                            x       y       z     vdW  Elec       q    Type
REMARK                         _______ _______ _______ _____ _____    ______ ____
ROOT
ATOM      2  O   UNL     1       0.791   2.121  25.974  0.00  0.00    -0.253 OA
ATOM      5  N   UNL     1       0.034   0.628  24.371  0.00  0.00    -0.285 N 
ATOM      7  N   UNL     1      -0.472   2.934  24.241  0.00  0.00    -0.299 N 
ATOM      8  C   UNL     1      -1.809  -0.735  23.426  0.00  0.00    +0.016 C 
ATOM      9  C   UNL     1      -1.214  -1.974  24.147  0.00  0.00    +0.006 C 
ATOM     10  C   UNL     1      -0.386  -1.574  25.381  0.00  0.00    +0.023 C 
ATOM     11  C   UNL     1      -0.690   0.280  23.139  0.00  0.00    +0.113 C 
ATOM     12  C   UNL     1       0.661  -0.516  25.034  0.00  0.00    +0.109 C 
ATOM     16  C   UNL     1       0.163   1.909  24.931  0.00  0.00    +0.302 C 
ATOM     29  H   UNL     1      -1.004   2.758  23.401  0.00  0.00    +0.150 HD
ENDROOT
BRANCH   8  13
ATOM     13  C   UNL     1      -2.960  -0.064  24.185  0.00  0.00    +0.061 C 
BRANCH  13  15
ATOM      1  F   UNL     1      -6.590   4.987  26.102  0.00  0.00    -0.205 F 
ATOM      6  N   UNL     1      -2.864   1.446  22.318  0.00  0.00    -0.287 NA
ATOM     15  C   UNL     1      -3.342   1.226  23.499  0.00  0.00    +0.044 C 
ATOM     17  C   UNL     1      -4.236   2.175  24.209  0.00  0.00    -0.001 A 
ATOM     19  C   UNL     1      -4.259   3.494  23.737  0.00  0.00    -0.034 A 
ATOM     20  C   UNL     1      -3.383   3.859  22.576  0.00  0.00    +0.059 C 
ATOM     21  C   UNL     1      -3.284   2.670  21.628  0.00  0.00    +0.146 C 
ATOM     22  C   UNL     1      -5.015   1.803  25.307  0.00  0.00    +0.013 A 
ATOM     24  C   UNL     1      -5.048   4.446  24.389  0.00  0.00    +0.042 A 
ATOM     25  C   UNL     1      -5.813   2.756  25.940  0.00  0.00    +0.039 A 
ATOM     26  C   UNL     1      -5.828   4.075  25.484  0.00  0.00    +0.124 A 
ENDBRANCH  13  15
ENDBRANCH   8  13
BRANCH   9  14
ATOM     14  C   UNL     1      -2.270  -3.015  24.521  0.00  0.00    +0.124 C 
BRANCH  14  18
ATOM      4  O   UNL     1      -3.735  -1.798  26.041  0.00  0.00    -0.251 OA
ATOM     18  C   UNL     1      -3.549  -2.371  24.978  0.00  0.00    +0.305 C 
BRANCH  18   3
ATOM      3  O   UNL     1      -4.501  -2.515  24.022  0.00  0.00    -0.481 OA
ATOM     30  H   UNL     1      -4.159  -2.297  23.129  0.00  0.00    +0.295 HD
ENDBRANCH  18   3
ENDBRANCH  14  18
ENDBRANCH   9  14
BRANCH   7  23
ATOM     23  C   UNL     1      -0.437   4.305  24.697  0.00  0.00    +0.105 C 
BRANCH  23  27
ATOM     27  C   UNL     1      -1.735   4.723  25.379  0.00  0.00    +0.015 C 
ATOM     28  C   UNL     1      -2.151   3.767  26.488  0.00  0.00    +0.005 C 
ENDBRANCH  23  27
ENDBRANCH   7  23
TORSDOF 7
ENDMDL
MODEL 9
REMARK VINA RESULT:       0.1      2.988      5.426
REMARK  Name = 51136788
REMARK  8 active torsions:
REMARK  status: ('A' for Active; 'I' for Inactive)
REMARK    1  A    between atoms: O_3  and  C_18
REMARK    2  A    between atoms: N_7  and  C_23
REMARK    3  A    between atoms: C_8  and  C_13
REMARK    4  A    between atoms: C_9  and  C_14
REMARK    5  A    between atoms: C_13  and  C_15
REMARK    6  A    between atoms: C_14  and  C_18
REMARK    7  A    between atoms: C_23  and  C_27
REMARK    8  A    between atoms: C_27  and  C_28
REMARK                            x       y       z     vdW  Elec       q    Type
REMARK                         _______ _______ _______ _____ _____    ______ ____
ROOT
ATOM      2  O   UNL     1      -4.886   4.455  25.235  0.00  0.00    -0.253 OA
ATOM      5  N   UNL     1      -3.021   3.481  24.262  0.00  0.00    -0.285 N 
ATOM      7  N   UNL     1      -5.091   2.342  24.366  0.00  0.00    -0.299 N 
ATOM      8  C   UNL     1      -1.127   1.888  24.403  0.00  0.00    +0.016 C 
ATOM      9  C   UNL     1      -0.196   3.081  24.745  0.00  0.00    +0.006 C 
ATOM     10  C   UNL     1      -0.971   4.248  25.382  0.00  0.00    +0.023 C 
ATOM     11  C   UNL     1      -2.321   2.388  23.572  0.00  0.00    +0.113 C 
ATOM     12  C   UNL     1      -2.179   4.646  24.535  0.00  0.00    +0.109 C 
ATOM     16  C   UNL     1      -4.368   3.493  24.657  0.00  0.00    +0.302 C 
ATOM     29  H   UNL     1      -4.663   1.547  23.915  0.00  0.00    +0.150 HD
ENDROOT
BRANCH   8  13
ATOM     13  C   UNL     1      -1.618   1.108  25.629  0.00  0.00    +0.061 C 
BRANCH  13  15
ATOM      1  F   UNL     1      -5.531  -3.434  23.094  0.00  0.00    -0.205 F 
ATOM      6  N   UNL     1      -0.295  -0.895  25.715  0.00  0.00    -0.287 NA
ATOM     15  C   UNL     1      -1.434  -0.373  25.400  0.00  0.00    +0.044 C 
ATOM     17  C   UNL     1      -2.559  -1.152  24.824  0.00  0.00    -0.001 A 
ATOM     19  C   UNL     1      -2.245  -2.401  24.272  0.00  0.00    -0.034 A 
ATOM     20  C   UNL     1      -0.816  -2.855  24.285  0.00  0.00    +0.059 C 
ATOM     21  C   UNL     1      -0.137  -2.344  25.549  0.00  0.00    +0.146 C 
ATOM     22  C   UNL     1      -3.874  -0.681  24.806  0.00  0.00    +0.013 A 
ATOM     24  C   UNL     1      -3.252  -3.166  23.676  0.00  0.00    +0.042 A 
ATOM     25  C   UNL     1      -4.875  -1.459  24.224  0.00  0.00    +0.039 A 
ATOM     26  C   UNL     1      -4.565  -2.696  23.658  0.00  0.00    +0.124 A 
ENDBRANCH  13  15
ENDBRANCH   8  13
BRANCH   9  14
ATOM     14  C   UNL     1       0.993   2.683  25.619  0.00  0.00    +0.124 C 
BRANCH  14  18
ATOM      4  O   UNL     1      -0.501   2.631  27.543  0.00  0.00    -0.251 OA
ATOM     18  C   UNL     1       0.628   2.657  27.077  0.00  0.00    +0.305 C 
BRANCH  18   3
ATOM      3  O   UNL     1       1.755   2.668  27.832  0.00  0.00    -0.481 OA
ATOM     30  H   UNL     1       1.555   2.623  28.792  0.00  0.00    +0.295 HD
ENDBRANCH  18   3
ENDBRANCH  14  18
ENDBRANCH   9  14
BRANCH   7  23
ATOM     23  C   UNL     1      -6.485   2.200  24.719  0.00  0.00    +0.105 C 
BRANCH  23  27
ATOM     27  C   UNL     1      -6.688   1.301  25.933  0.00  0.00    +0.015 C 
ATOM     28  C   UNL     1      -6.235   1.954  27.231  0.00  0.00    +0.005 C 
ENDBRANCH  23  27
ENDBRANCH   7  23
TORSDOF 7
ENDMDL
MODEL 10
REMARK VINA RESULT:       0.3      1.868      4.528
REMARK  Name = 51136788
REMARK  8 active torsions:
REMARK  status: ('A' for Active; 'I' for Inactive)
REMARK    1  A    between atoms: O_3  and  C_18
REMARK    2  A    between atoms: N_7  and  C_23
REMARK    3  A    between atoms: C_8  and  C_13
REMARK    4  A    between atoms: C_9  and  C_14
REMARK    5  A    between atoms: C_13  and  C_15
REMARK    6  A    between atoms: C_14  and  C_18
REMARK    7  A    between atoms: C_23  and  C_27
REMARK    8  A    between atoms: C_27  and  C_28
REMARK                            x       y       z     vdW  Elec       q    Type
REMARK                         _______ _______ _______ _____ _____    ______ ____
ROOT
ATOM      2  O   UNL     1      -0.527   4.559  25.453  0.00  0.00    -0.253 OA
ATOM      5  N   UNL     1      -0.505   2.859  23.878  0.00  0.00    -0.285 N 
ATOM      7  N   UNL     1      -2.472   3.405  25.072  0.00  0.00    -0.299 N 
ATOM      8  C   UNL     1      -0.434   0.437  23.353  0.00  0.00    +0.016 C 
ATOM      9  C   UNL     1       1.084   0.581  23.065  0.00  0.00    +0.006 C 
ATOM     10  C   UNL     1       1.700   1.772  23.820  0.00  0.00    +0.023 C 
ATOM     11  C   UNL     1      -1.136   1.781  23.100  0.00  0.00    +0.113 C 
ATOM     12  C   UNL     1       0.912   3.058  23.574  0.00  0.00    +0.109 C 
ATOM     16  C   UNL     1      -1.128   3.670  24.840  0.00  0.00    +0.302 C 
ATOM     29  H   UNL     1      -2.957   2.663  24.588  0.00  0.00    +0.150 HD
ENDROOT
BRANCH   8  13
ATOM     13  C   UNL     1      -0.756  -0.079  24.761  0.00  0.00    +0.061 C 
BRANCH  13  15
ATOM      1  F   UNL     1      -7.123   1.270  24.705  0.00  0.00    -0.205 F 
ATOM      6  N   UNL     1      -1.794  -2.242  24.637  0.00  0.00    -0.287 NA
ATOM     15  C   UNL     1      -1.977  -0.965  24.715  0.00  0.00    +0.044 C 
ATOM     17  C   UNL     1      -3.320  -0.333  24.754  0.00  0.00    -0.001 A 
ATOM     19  C   UNL     1      -4.400  -1.117  24.327  0.00  0.00    -0.034 A 
ATOM     20  C   UNL     1      -4.131  -2.514  23.852  0.00  0.00    +0.059 C 
ATOM     21  C   UNL     1      -2.979  -3.105  24.653  0.00  0.00    +0.146 C 
ATOM     22  C   UNL     1      -3.525   0.982  25.177  0.00  0.00    +0.013 A 
ATOM     24  C   UNL     1      -5.685  -0.567  24.301  0.00  0.00    +0.042 A 
ATOM     25  C   UNL     1      -4.813   1.517  25.163  0.00  0.00    +0.039 A 
ATOM     26  C   UNL     1      -5.890   0.746  24.724  0.00  0.00    +0.124 A 
ENDBRANCH  13  15
ENDBRANCH   8  13
BRANCH   9  14
ATOM     14  C   UNL     1       1.872  -0.699  23.343  0.00  0.00    +0.124 C 
BRANCH  14  18
ATOM      4  O   UNL     1       3.872   0.350  22.427  0.00  0.00    -0.251 OA
ATOM     18  C   UNL     1       3.347  -0.502  23.127  0.00  0.00    +0.305 C 
BRANCH  18   3
ATOM      3  O   UNL     1       4.041  -1.428  23.837  0.00  0.00    -0.481 OA
ATOM     30  H   UNL     1       3.734  -2.340  23.649  0.00  0.00    +0.295 HD
ENDBRANCH  18   3
ENDBRANCH  14  18
ENDBRANCH   9  14
BRANCH   7  23
ATOM     23  C   UNL     1      -3.247   4.149  26.039  0.00  0.00    +0.105 C 
BRANCH  23  27
ATOM     27  C   UNL     1      -4.388   4.926  25.394  0.00  0.00    +0.015 C 
ATOM     28  C   UNL     1      -5.749   4.292  25.648  0.00  0.00    +0.005 C 
ENDBRANCH  23  27
ENDBRANCH   7  23
TORSDOF 7
ENDMDL
