MODEL 1
REMARK VINA RESULT:      -1.0      0.000      0.000
REMARK  Name = 25338208
REMARK  4 active torsions:
REMARK  status: ('A' for Active; 'I' for Inactive)
REMARK    1  A    between atoms: O_3  and  C_9
REMARK    2  A    between atoms: N_5  and  C_8
REMARK    3  A    between atoms: N_6  and  C_10
REMARK    4  A    between atoms: N_7  and  C_19
REMARK                            x       y       z     vdW  Elec       q    Type
REMARK                         _______ _______ _______ _____ _____    ______ ____
ROOT
ATOM      1  O   UNL     1      -2.001   2.479  26.179  0.00  0.00    -0.342 OA
ATOM      2  O   UNL     1      -3.743   3.567  25.100  0.00  0.00    -0.347 OA
ATOM      8  C   UNL     1      -3.179   1.314  24.425  0.00  0.00    +0.143 C 
ATOM      9  C   UNL     1      -2.185   1.857  23.372  0.00  0.00    +0.159 C 
ATOM     10  C   UNL     1      -1.020   2.666  23.984  0.00  0.00    +0.136 C 
ATOM     11  C   UNL     1      -1.414   3.417  25.273  0.00  0.00    +0.170 C 
ATOM     12  C   UNL     1      -3.303   2.295  25.605  0.00  0.00    +0.270 C 
ATOM     13  C   UNL     1      -2.566   4.389  25.097  0.00  0.00    +0.196 C 
ENDROOT
BRANCH  10   6
ATOM      4  O   UNL     1       0.295   0.934  22.105  0.00  0.00    -0.253 OA
ATOM      6  N   UNL     1       0.106   1.795  24.250  0.00  0.00    -0.291 N 
ATOM      7  N   UNL     1       1.742   0.254  23.788  0.00  0.00    -0.297 N 
ATOM     20  C   UNL     1       0.678   0.990  23.272  0.00  0.00    +0.300 C 
ATOM     26  H   UNL     1       0.441   1.715  25.205  0.00  0.00    +0.151 HD
ATOM     28  H   UNL     1       1.927   0.321  24.784  0.00  0.00    +0.151 HD
BRANCH   7  19
ATOM     19  C   UNL     1       2.524  -0.669  22.996  0.00  0.00    +0.074 C 
ATOM     21  C   UNL     1       3.189   0.045  21.814  0.00  0.00    +0.022 C 
ATOM     22  C   UNL     1       3.560  -1.396  23.860  0.00  0.00    +0.022 C 
ATOM     23  C   UNL     1       4.334   0.958  22.252  0.00  0.00    +0.002 C 
ATOM     24  C   UNL     1       4.705  -0.482  24.294  0.00  0.00    +0.002 C 
ATOM     25  C   UNL     1       5.358   0.209  23.100  0.00  0.00    +0.000 C 
ENDBRANCH   7  19
ENDBRANCH  10   6
BRANCH   8   5
ATOM      5  N   UNL     1      -2.734   0.009  24.912  0.00  0.00    -0.293 NA
ATOM     14  C   UNL     1      -2.244  -0.815  23.797  0.00  0.00    +0.085 C 
ATOM     15  C   UNL     1      -3.818  -0.667  25.636  0.00  0.00    +0.085 C 
ATOM     16  C   UNL     1      -1.729  -2.166  24.296  0.00  0.00    +0.015 C 
ATOM     17  C   UNL     1      -3.355  -2.013  26.194  0.00  0.00    +0.015 C 
ATOM     18  C   UNL     1      -2.795  -2.907  25.093  0.00  0.00    +0.002 C 
ENDBRANCH   8   5
BRANCH   9   3
ATOM      3  O   UNL     1      -2.916   2.706  22.478  0.00  0.00    -0.388 OA
ATOM     27  H   UNL     1      -2.398   2.788  21.659  0.00  0.00    +0.210 HD
ENDBRANCH   9   3
TORSDOF 4
ENDMDL
MODEL 2
REMARK VINA RESULT:      -0.9      1.838      3.876
REMARK  Name = 25338208
REMARK  4 active torsions:
REMARK  status: ('A' for Active; 'I' for Inactive)
REMARK    1  A    between atoms: O_3  and  C_9
REMARK    2  A    between atoms: N_5  and  C_8
REMARK    3  A    between atoms: N_6  and  C_10
REMARK    4  A    between atoms: N_7  and  C_19
REMARK                            x       y       z     vdW  Elec       q    Type
REMARK                         _______ _______ _______ _____ _____    ______ ____
ROOT
ATOM      1  O   UNL     1      -2.658  -0.050  23.125  0.00  0.00    -0.342 OA
ATOM      2  O   UNL     1      -4.386  -1.008  24.340  0.00  0.00    -0.347 OA
ATOM      8  C   UNL     1      -3.269   0.940  25.238  0.00  0.00    +0.143 C 
ATOM      9  C   UNL     1      -2.249   0.041  25.976  0.00  0.00    +0.159 C 
ATOM     10  C   UNL     1      -1.391  -0.823  25.026  0.00  0.00    +0.136 C 
ATOM     11  C   UNL     1      -2.135  -1.232  23.738  0.00  0.00    +0.170 C 
ATOM     12  C   UNL     1      -3.782   0.241  23.966  0.00  0.00    +0.270 C 
ATOM     13  C   UNL     1      -3.417  -2.006  23.982  0.00  0.00    +0.196 C 
ENDROOT
BRANCH  10   6
ATOM      4  O   UNL     1       0.396  -1.443  22.862  0.00  0.00    -0.253 OA
ATOM      6  N   UNL     1      -0.169  -0.125  24.684  0.00  0.00    -0.291 N 
ATOM      7  N   UNL     1       1.745   0.334  23.505  0.00  0.00    -0.297 N 
ATOM     20  C   UNL     1       0.634  -0.499  23.614  0.00  0.00    +0.300 C 
ATOM     26  H   UNL     1       0.150   0.619  25.296  0.00  0.00    +0.151 HD
ATOM     28  H   UNL     1       1.883   1.038  24.223  0.00  0.00    +0.151 HD
BRANCH   7  19
ATOM     19  C   UNL     1       2.754   0.179  22.480  0.00  0.00    +0.074 C 
ATOM     21  C   UNL     1       3.819   1.276  22.586  0.00  0.00    +0.022 C 
ATOM     22  C   UNL     1       3.384  -1.216  22.536  0.00  0.00    +0.022 C 
ATOM     23  C   UNL     1       4.731   1.090  23.799  0.00  0.00    +0.002 C 
ATOM     24  C   UNL     1       4.297  -1.398  23.748  0.00  0.00    +0.002 C 
ATOM     25  C   UNL     1       5.356  -0.302  23.825  0.00  0.00    +0.000 C 
ENDBRANCH   7  19
ENDBRANCH  10   6
BRANCH   8   5
ATOM      5  N   UNL     1      -2.651   2.218  24.886  0.00  0.00    -0.293 NA
ATOM     14  C   UNL     1      -1.509   2.496  25.768  0.00  0.00    +0.085 C 
ATOM     15  C   UNL     1      -3.642   3.301  24.941  0.00  0.00    +0.085 C 
ATOM     16  C   UNL     1      -0.820   3.807  25.381  0.00  0.00    +0.015 C 
ATOM     17  C   UNL     1      -3.023   4.637  24.528  0.00  0.00    +0.015 C 
ATOM     18  C   UNL     1      -1.804   4.970  25.379  0.00  0.00    +0.002 C 
ENDBRANCH   8   5
BRANCH   9   3
ATOM      3  O   UNL     1      -2.983  -0.826  26.850  0.00  0.00    -0.388 OA
ATOM     27  H   UNL     1      -2.443  -0.968  27.646  0.00  0.00    +0.210 HD
ENDBRANCH   9   3
TORSDOF 4
ENDMDL
MODEL 3
REMARK VINA RESULT:       0.5      2.945      4.556
REMARK  Name = 25338208
REMARK  4 active torsions:
REMARK  status: ('A' for Active; 'I' for Inactive)
REMARK    1  A    between atoms: O_3  and  C_9
REMARK    2  A    between atoms: N_5  and  C_8
REMARK    3  A    between atoms: N_6  and  C_10
REMARK    4  A    between atoms: N_7  and  C_19
REMARK                            x       y       z     vdW  Elec       q    Type
REMARK                         _______ _______ _______ _____ _____    ______ ____
ROOT
ATOM      1  O   UNL     1      -1.553   3.911  26.408  0.00  0.00    -0.342 OA
ATOM      2  O   UNL     1      -1.340   5.496  24.727  0.00  0.00    -0.347 OA
ATOM      8  C   UNL     1      -2.793   3.597  24.363  0.00  0.00    +0.143 C 
ATOM      9  C   UNL     1      -1.622   2.791  23.754  0.00  0.00    +0.159 C 
ATOM     10  C   UNL     1      -0.463   2.545  24.746  0.00  0.00    +0.136 C 
ATOM     11  C   UNL     1      -0.291   3.684  25.773  0.00  0.00    +0.170 C 
ATOM     12  C   UNL     1      -2.269   4.620  25.387  0.00  0.00    +0.270 C 
ATOM     13  C   UNL     1      -0.044   5.046  25.153  0.00  0.00    +0.196 C 
ENDROOT
BRANCH  10   6
ATOM      4  O   UNL     1      -0.690  -0.057  23.547  0.00  0.00    -0.253 OA
ATOM      6  N   UNL     1      -0.657   1.288  25.436  0.00  0.00    -0.291 N 
ATOM      7  N   UNL     1      -0.938  -0.979  25.664  0.00  0.00    -0.297 N 
ATOM     20  C   UNL     1      -0.755   0.073  24.769  0.00  0.00    +0.300 C 
ATOM     26  H   UNL     1      -0.801   1.304  26.441  0.00  0.00    +0.151 HD
ATOM     28  H   UNL     1      -1.051  -0.751  26.647  0.00  0.00    +0.151 HD
BRANCH   7  19
ATOM     19  C   UNL     1      -1.072  -2.358  25.249  0.00  0.00    +0.074 C 
ATOM     21  C   UNL     1      -2.108  -3.092  26.107  0.00  0.00    +0.022 C 
ATOM     22  C   UNL     1      -1.415  -2.453  23.759  0.00  0.00    +0.022 C 
ATOM     23  C   UNL     1      -3.539  -2.648  25.802  0.00  0.00    +0.002 C 
ATOM     24  C   UNL     1      -2.847  -2.011  23.458  0.00  0.00    +0.002 C 
ATOM     25  C   UNL     1      -3.860  -2.764  24.315  0.00  0.00    +0.000 C 
ENDBRANCH   7  19
ENDBRANCH  10   6
BRANCH   8   5
ATOM      5  N   UNL     1      -3.744   2.694  25.010  0.00  0.00    -0.293 NA
ATOM     14  C   UNL     1      -4.068   1.568  24.121  0.00  0.00    +0.085 C 
ATOM     15  C   UNL     1      -4.956   3.422  25.408  0.00  0.00    +0.085 C 
ATOM     16  C   UNL     1      -5.025   0.587  24.801  0.00  0.00    +0.015 C 
ATOM     17  C   UNL     1      -5.942   2.501  26.129  0.00  0.00    +0.015 C 
ATOM     18  C   UNL     1      -6.291   1.287  25.277  0.00  0.00    +0.002 C 
ENDBRANCH   8   5
BRANCH   9   3
ATOM      3  O   UNL     1      -1.121   3.529  22.633  0.00  0.00    -0.388 OA
ATOM     27  H   UNL     1      -0.150   3.488  22.664  0.00  0.00    +0.210 HD
ENDBRANCH   9   3
TORSDOF 4
ENDMDL
MODEL 4
REMARK VINA RESULT:       1.3      2.830      6.261
REMARK  Name = 25338208
REMARK  4 active torsions:
REMARK  status: ('A' for Active; 'I' for Inactive)
REMARK    1  A    between atoms: O_3  and  C_9
REMARK    2  A    between atoms: N_5  and  C_8
REMARK    3  A    between atoms: N_6  and  C_10
REMARK    4  A    between atoms: N_7  and  C_19
REMARK                            x       y       z     vdW  Elec       q    Type
REMARK                         _______ _______ _______ _____ _____    ______ ____
ROOT
ATOM      1  O   UNL     1      -2.293  -1.501  26.078  0.00  0.00    -0.342 OA
ATOM      2  O   UNL     1      -2.148  -3.094  24.397  0.00  0.00    -0.347 OA
ATOM      8  C   UNL     1      -1.932  -0.757  23.812  0.00  0.00    +0.143 C 
ATOM      9  C   UNL     1      -3.457  -0.651  23.583  0.00  0.00    +0.159 C 
ATOM     10  C   UNL     1      -4.291  -0.931  24.853  0.00  0.00    +0.136 C 
ATOM     11  C   UNL     1      -3.625  -1.947  25.805  0.00  0.00    +0.170 C 
ATOM     12  C   UNL     1      -1.617  -1.841  24.859  0.00  0.00    +0.270 C 
ATOM     13  C   UNL     1      -3.340  -3.296  25.172  0.00  0.00    +0.196 C 
ENDROOT
BRANCH  10   6
ATOM      4  O   UNL     1      -4.264   1.721  23.747  0.00  0.00    -0.253 OA
ATOM      6  N   UNL     1      -4.551   0.304  25.561  0.00  0.00    -0.291 N 
ATOM      7  N   UNL     1      -4.803   2.568  25.840  0.00  0.00    -0.297 N 
ATOM     20  C   UNL     1      -4.516   1.547  24.938  0.00  0.00    +0.300 C 
ATOM     26  H   UNL     1      -4.692   0.267  26.565  0.00  0.00    +0.151 HD
ATOM     28  H   UNL     1      -4.925   2.319  26.817  0.00  0.00    +0.151 HD
BRANCH   7  19
ATOM     19  C   UNL     1      -4.837   3.966  25.470  0.00  0.00    +0.074 C 
ATOM     21  C   UNL     1      -4.132   4.831  26.520  0.00  0.00    +0.022 C 
ATOM     22  C   UNL     1      -4.234   4.180  24.078  0.00  0.00    +0.022 C 
ATOM     23  C   UNL     1      -2.614   4.652  26.502  0.00  0.00    +0.002 C 
ATOM     24  C   UNL     1      -2.716   4.004  24.063  0.00  0.00    +0.002 C 
ATOM     25  C   UNL     1      -2.036   4.883  25.108  0.00  0.00    +0.000 C 
ENDBRANCH   7  19
ENDBRANCH  10   6
BRANCH   8   5
ATOM      5  N   UNL     1      -1.399   0.531  24.258  0.00  0.00    -0.293 NA
ATOM     14  C   UNL     1      -0.224   0.904  23.457  0.00  0.00    +0.085 C 
ATOM     15  C   UNL     1      -1.074   0.485  25.689  0.00  0.00    +0.085 C 
ATOM     16  C   UNL     1       0.318   2.272  23.878  0.00  0.00    +0.015 C 
ATOM     17  C   UNL     1      -0.560   1.839  26.182  0.00  0.00    +0.015 C 
ATOM     18  C   UNL     1       0.639   2.307  25.367  0.00  0.00    +0.002 C 
ENDBRANCH   8   5
BRANCH   9   3
ATOM      3  O   UNL     1      -3.815  -1.607  22.577  0.00  0.00    -0.388 OA
ATOM     27  H   UNL     1      -4.617  -2.066  22.879  0.00  0.00    +0.210 HD
ENDBRANCH   9   3
TORSDOF 4
ENDMDL
MODEL 5
REMARK VINA RESULT:       1.9      3.227      5.384
REMARK  Name = 25338208
REMARK  4 active torsions:
REMARK  status: ('A' for Active; 'I' for Inactive)
REMARK    1  A    between atoms: O_3  and  C_9
REMARK    2  A    between atoms: N_5  and  C_8
REMARK    3  A    between atoms: N_6  and  C_10
REMARK    4  A    between atoms: N_7  and  C_19
REMARK                            x       y       z     vdW  Elec       q    Type
REMARK                         _______ _______ _______ _____ _____    ______ ____
ROOT
ATOM      1  O   UNL     1      -3.446  -1.618  23.163  0.00  0.00    -0.342 OA
ATOM      2  O   UNL     1      -4.041  -3.218  24.734  0.00  0.00    -0.347 OA
ATOM      8  C   UNL     1      -4.325  -0.880  25.285  0.00  0.00    +0.143 C 
ATOM      9  C   UNL     1      -2.898  -0.825  25.879  0.00  0.00    +0.159 C 
ATOM     10  C   UNL     1      -1.789  -1.122  24.845  0.00  0.00    +0.136 C 
ATOM     11  C   UNL     1      -2.233  -2.108  23.745  0.00  0.00    +0.170 C 
ATOM     12  C   UNL     1      -4.407  -1.945  24.176  0.00  0.00    +0.270 C 
ATOM     13  C   UNL     1      -2.703  -3.452  24.269  0.00  0.00    +0.196 C 
ENDROOT
BRANCH  10   6
ATOM      4  O   UNL     1      -0.514   1.077  26.185  0.00  0.00    -0.253 OA
ATOM      6  N   UNL     1      -1.329   0.110  24.241  0.00  0.00    -0.291 N 
ATOM      7  N   UNL     1      -0.373   2.195  24.155  0.00  0.00    -0.297 N 
ATOM     20  C   UNL     1      -0.719   1.122  24.973  0.00  0.00    +0.300 C 
ATOM     26  H   UNL     1      -1.526   0.272  23.258  0.00  0.00    +0.151 HD
ATOM     28  H   UNL     1      -0.655   2.159  23.181  0.00  0.00    +0.151 HD
BRANCH   7  19
ATOM     19  C   UNL     1       0.276   3.390  24.648  0.00  0.00    +0.074 C 
ATOM     21  C   UNL     1       0.009   4.583  23.724  0.00  0.00    +0.022 C 
ATOM     22  C   UNL     1      -0.151   3.694  26.087  0.00  0.00    +0.022 C 
ATOM     23  C   UNL     1      -1.433   5.082  23.816  0.00  0.00    +0.002 C 
ATOM     24  C   UNL     1      -1.592   4.196  26.176  0.00  0.00    +0.002 C 
ATOM     25  C   UNL     1      -1.831   5.390  25.257  0.00  0.00    +0.000 C 
ENDBRANCH   7  19
ENDBRANCH  10   6
BRANCH   8   5
ATOM      5  N   UNL     1      -4.696   0.427  24.744  0.00  0.00    -0.293 NA
ATOM     14  C   UNL     1      -3.502   1.266  24.567  0.00  0.00    +0.085 C 
ATOM     15  C   UNL     1      -5.682   1.082  25.612  0.00  0.00    +0.085 C 
ATOM     16  C   UNL     1      -3.867   2.621  23.955  0.00  0.00    +0.015 C 
ATOM     17  C   UNL     1      -6.118   2.430  25.035  0.00  0.00    +0.015 C 
ATOM     18  C   UNL     1      -4.920   3.340  24.788  0.00  0.00    +0.002 C 
ENDBRANCH   8   5
BRANCH   9   3
ATOM      3  O   UNL     1      -2.823  -1.800  26.927  0.00  0.00    -0.388 OA
ATOM     27  H   UNL     1      -3.621  -1.705  27.475  0.00  0.00    +0.210 HD
ENDBRANCH   9   3
TORSDOF 4
ENDMDL
MODEL 6
REMARK VINA RESULT:       2.3      2.357      5.154
REMARK  Name = 25338208
REMARK  4 active torsions:
REMARK  status: ('A' for Active; 'I' for Inactive)
REMARK    1  A    between atoms: O_3  and  C_9
REMARK    2  A    between atoms: N_5  and  C_8
REMARK    3  A    between atoms: N_6  and  C_10
REMARK    4  A    between atoms: N_7  and  C_19
REMARK                            x       y       z     vdW  Elec       q    Type
REMARK                         _______ _______ _______ _____ _____    ______ ____
ROOT
ATOM      1  O   UNL     1      -1.139   4.016  23.547  0.00  0.00    -0.342 OA
ATOM      2  O   UNL     1      -1.207   5.686  25.157  0.00  0.00    -0.347 OA
ATOM      8  C   UNL     1      -0.859   3.398  25.862  0.00  0.00    +0.143 C 
ATOM      9  C   UNL     1      -2.383   3.189  26.011  0.00  0.00    +0.159 C 
ATOM     10  C   UNL     1      -3.159   3.352  24.685  0.00  0.00    +0.136 C 
ATOM     11  C   UNL     1      -2.513   4.373  23.725  0.00  0.00    +0.170 C 
ATOM     12  C   UNL     1      -0.562   4.457  24.783  0.00  0.00    +0.270 C 
ATOM     13  C   UNL     1      -2.364   5.765  24.309  0.00  0.00    +0.196 C 
ENDROOT
BRANCH  10   6
ATOM      4  O   UNL     1      -4.544   1.037  25.677  0.00  0.00    -0.253 OA
ATOM      6  N   UNL     1      -3.289   2.072  24.023  0.00  0.00    -0.291 N 
ATOM      7  N   UNL     1      -3.955  -0.107  23.744  0.00  0.00    -0.297 N 
ATOM     20  C   UNL     1      -3.982   1.005  24.583  0.00  0.00    +0.300 C 
ATOM     26  H   UNL     1      -2.791   1.925  23.151  0.00  0.00    +0.151 HD
ATOM     28  H   UNL     1      -3.400  -0.048  22.896  0.00  0.00    +0.151 HD
BRANCH   7  19
ATOM     19  C   UNL     1      -4.596  -1.361  24.071  0.00  0.00    +0.074 C 
ATOM     21  C   UNL     1      -4.010  -2.511  23.244  0.00  0.00    +0.022 C 
ATOM     22  C   UNL     1      -4.501  -1.652  25.573  0.00  0.00    +0.022 C 
ATOM     23  C   UNL     1      -2.594  -2.885  23.683  0.00  0.00    +0.002 C 
ATOM     24  C   UNL     1      -3.085  -2.028  26.007  0.00  0.00    +0.002 C 
ATOM     25  C   UNL     1      -2.528  -3.182  25.178  0.00  0.00    +0.000 C 
ENDBRANCH   7  19
ENDBRANCH  10   6
BRANCH   8   5
ATOM      5  N   UNL     1      -0.209   2.136  25.507  0.00  0.00    -0.293 NA
ATOM     14  C   UNL     1       0.260   2.175  24.115  0.00  0.00    +0.085 C 
ATOM     15  C   UNL     1      -1.123   1.008  25.730  0.00  0.00    +0.085 C 
ATOM     16  C   UNL     1       0.985   0.880  23.742  0.00  0.00    +0.015 C 
ATOM     17  C   UNL     1      -0.443  -0.324  25.410  0.00  0.00    +0.015 C 
ATOM     18  C   UNL     1       0.105  -0.339  23.988  0.00  0.00    +0.002 C 
ENDBRANCH   8   5
BRANCH   9   3
ATOM      3  O   UNL     1      -2.867   4.158  26.950  0.00  0.00    -0.388 OA
ATOM     27  H   UNL     1      -3.799   4.335  26.737  0.00  0.00    +0.210 HD
ENDBRANCH   9   3
TORSDOF 4
ENDMDL
