MODEL 1
REMARK VINA RESULT:      -1.0      0.000      0.000
REMARK  Name = 75536038
REMARK  5 active torsions:
REMARK  status: ('A' for Active; 'I' for Inactive)
REMARK    1  A    between atoms: O_3  and  C_23
REMARK    2  A    between atoms: O_3  and  C_24
REMARK    3  A    between atoms: N_6  and  C_16
REMARK    4  A    between atoms: C_22  and  C_23
REMARK    5  A    between atoms: C_24  and  C_25
REMARK                            x       y       z     vdW  Elec       q    Type
REMARK                         _______ _______ _______ _____ _____    ______ ____
ROOT
ATOM      1  O   UNL     1      -0.467  -1.533  23.094  0.00  0.00    -0.273 OA
ATOM      2  O   UNL     1       0.722   2.896  23.845  0.00  0.00    -0.252 OA
ATOM      5  N   UNL     1       1.882   1.012  23.148  0.00  0.00    -0.267 N 
ATOM      6  N   UNL     1      -0.307   0.779  23.578  0.00  0.00    -0.193 N 
ATOM      7  N   UNL     1       5.539   0.599  23.506  0.00  0.00    -0.347 N 
ATOM      8  N   UNL     1       5.018  -1.543  23.879  0.00  0.00    -0.240 NA
ATOM      9  C   UNL     1       1.608  -0.370  22.787  0.00  0.00    +0.171 C 
ATOM     10  C   UNL     1       2.509  -1.361  23.546  0.00  0.00    +0.089 C 
ATOM     11  C   UNL     1       3.233   1.577  23.011  0.00  0.00    +0.165 C 
ATOM     12  C   UNL     1       3.893  -0.824  23.591  0.00  0.00    +0.066 A 
ATOM     13  C   UNL     1       4.187   0.502  23.360  0.00  0.00    +0.056 A 
ATOM     14  C   UNL     1       0.141  -0.473  23.162  0.00  0.00    +0.248 C 
ATOM     15  C   UNL     1       0.743   1.702  23.572  0.00  0.00    +0.317 C 
ATOM     17  C   UNL     1       5.993  -0.658  23.819  0.00  0.00    +0.197 A 
ATOM     26  H   UNL     1       6.103   1.433  23.403  0.00  0.00    +0.167 HD
ENDROOT
BRANCH   6  16
ATOM     16  C   UNL     1      -1.652   1.073  23.970  0.00  0.00    +0.045 A 
ATOM     18  C   UNL     1      -2.417   1.969  23.225  0.00  0.00    +0.025 A 
ATOM     19  C   UNL     1      -2.198   0.463  25.100  0.00  0.00    +0.025 A 
ATOM     20  C   UNL     1      -3.726   2.257  23.608  0.00  0.00    +0.017 A 
ATOM     21  C   UNL     1      -3.508   0.750  25.484  0.00  0.00    +0.017 A 
ATOM     22  C   UNL     1      -4.272   1.647  24.737  0.00  0.00    +0.059 A 
BRANCH  22  23
ATOM      4  O   UNL     1      -6.642   1.385  24.678  0.00  0.00    -0.245 OA
ATOM     23  C   UNL     1      -5.638   1.948  25.137  0.00  0.00    +0.339 C 
BRANCH  23   3
ATOM      3  O   UNL     1      -5.680   2.934  26.084  0.00  0.00    -0.461 OA
BRANCH   3  24
ATOM     24  C   UNL     1      -5.047   4.174  25.754  0.00  0.00    +0.229 C 
ATOM     25  C   UNL     1      -3.723   4.261  26.484  0.00  0.00    +0.048 C 
ENDBRANCH   3  24
ENDBRANCH  23   3
ENDBRANCH  22  23
ENDBRANCH   6  16
TORSDOF 4
ENDMDL
MODEL 2
REMARK VINA RESULT:      -0.8      2.858      8.314
REMARK  Name = 75536038
REMARK  5 active torsions:
REMARK  status: ('A' for Active; 'I' for Inactive)
REMARK    1  A    between atoms: O_3  and  C_23
REMARK    2  A    between atoms: O_3  and  C_24
REMARK    3  A    between atoms: N_6  and  C_16
REMARK    4  A    between atoms: C_22  and  C_23
REMARK    5  A    between atoms: C_24  and  C_25
REMARK                            x       y       z     vdW  Elec       q    Type
REMARK                         _______ _______ _______ _____ _____    ______ ____
ROOT
ATOM      1  O   UNL     1      -1.963   2.730  22.292  0.00  0.00    -0.273 OA
ATOM      2  O   UNL     1      -1.614  -0.740  25.364  0.00  0.00    -0.252 OA
ATOM      5  N   UNL     1      -3.361   0.606  24.644  0.00  0.00    -0.267 N 
ATOM      6  N   UNL     1      -1.344   0.949  23.724  0.00  0.00    -0.193 N 
ATOM      7  N   UNL     1      -6.410   1.256  26.632  0.00  0.00    -0.347 N 
ATOM      8  N   UNL     1      -6.281   3.293  25.719  0.00  0.00    -0.240 NA
ATOM      9  C   UNL     1      -3.612   1.630  23.642  0.00  0.00    +0.171 C 
ATOM     10  C   UNL     1      -4.253   2.893  24.246  0.00  0.00    +0.089 C 
ATOM     11  C   UNL     1      -4.450   0.088  25.487  0.00  0.00    +0.165 C 
ATOM     12  C   UNL     1      -5.290   2.489  25.229  0.00  0.00    +0.066 A 
ATOM     13  C   UNL     1      -5.346   1.227  25.780  0.00  0.00    +0.056 A 
ATOM     14  C   UNL     1      -2.208   1.855  23.113  0.00  0.00    +0.248 C 
ATOM     15  C   UNL     1      -2.033   0.172  24.662  0.00  0.00    +0.317 C 
ATOM     17  C   UNL     1      -6.939   2.521  26.560  0.00  0.00    +0.197 A 
ATOM     26  H   UNL     1      -6.749   0.495  27.206  0.00  0.00    +0.167 HD
ENDROOT
BRANCH   6  16
ATOM     16  C   UNL     1       0.055   0.840  23.441  0.00  0.00    +0.045 A 
ATOM     18  C   UNL     1       0.947   1.777  23.961  0.00  0.00    +0.025 A 
ATOM     19  C   UNL     1       0.526  -0.204  22.645  0.00  0.00    +0.025 A 
ATOM     20  C   UNL     1       2.309   1.672  23.685  0.00  0.00    +0.017 A 
ATOM     21  C   UNL     1       1.890  -0.310  22.369  0.00  0.00    +0.017 A 
ATOM     22  C   UNL     1       2.781   0.628  22.889  0.00  0.00    +0.059 A 
BRANCH  22  23
ATOM      4  O   UNL     1       4.673   0.245  21.489  0.00  0.00    -0.245 OA
ATOM     23  C   UNL     1       4.203   0.519  22.601  0.00  0.00    +0.339 C 
BRANCH  23   3
ATOM      3  O   UNL     1       4.961   0.758  23.716  0.00  0.00    -0.461 OA
BRANCH   3  24
ATOM     24  C   UNL     1       5.704  -0.347  24.240  0.00  0.00    +0.229 C 
ATOM     25  C   UNL     1       4.910  -1.619  24.029  0.00  0.00    +0.048 C 
ENDBRANCH   3  24
ENDBRANCH  23   3
ENDBRANCH  22  23
ENDBRANCH   6  16
TORSDOF 4
ENDMDL
MODEL 3
REMARK VINA RESULT:       0.4      1.009      1.569
REMARK  Name = 75536038
REMARK  5 active torsions:
REMARK  status: ('A' for Active; 'I' for Inactive)
REMARK    1  A    between atoms: O_3  and  C_23
REMARK    2  A    between atoms: O_3  and  C_24
REMARK    3  A    between atoms: N_6  and  C_16
REMARK    4  A    between atoms: C_22  and  C_23
REMARK    5  A    between atoms: C_24  and  C_25
REMARK                            x       y       z     vdW  Elec       q    Type
REMARK                         _______ _______ _______ _____ _____    ______ ____
ROOT
ATOM      1  O   UNL     1      -0.781  -0.958  23.723  0.00  0.00    -0.273 OA
ATOM      2  O   UNL     1       1.135   3.274  23.618  0.00  0.00    -0.252 OA
ATOM      5  N   UNL     1       1.911   1.142  23.137  0.00  0.00    -0.267 N 
ATOM      6  N   UNL     1      -0.223   1.341  23.801  0.00  0.00    -0.193 N 
ATOM      7  N   UNL     1       5.482   0.187  23.216  0.00  0.00    -0.347 N 
ATOM      8  N   UNL     1       4.696  -1.760  23.985  0.00  0.00    -0.240 NA
ATOM      9  C   UNL     1       1.394  -0.214  23.036  0.00  0.00    +0.171 C 
ATOM     10  C   UNL     1       2.220  -1.217  23.861  0.00  0.00    +0.089 C 
ATOM     11  C   UNL     1       3.305   1.449  22.783  0.00  0.00    +0.165 C 
ATOM     12  C   UNL     1       3.664  -0.916  23.688  0.00  0.00    +0.066 A 
ATOM     13  C   UNL     1       4.123   0.294  23.215  0.00  0.00    +0.056 A 
ATOM     14  C   UNL     1      -0.018  -0.015  23.557  0.00  0.00    +0.248 C 
ATOM     15  C   UNL     1       0.946   2.067  23.545  0.00  0.00    +0.317 C 
ATOM     17  C   UNL     1       5.778  -1.068  23.689  0.00  0.00    +0.197 A 
ATOM     26  H   UNL     1       6.148   0.890  22.925  0.00  0.00    +0.167 HD
ENDROOT
BRANCH   6  16
ATOM     16  C   UNL     1      -1.453   1.909  24.263  0.00  0.00    +0.045 A 
ATOM     18  C   UNL     1      -2.573   1.918  23.432  0.00  0.00    +0.025 A 
ATOM     19  C   UNL     1      -1.531   2.455  25.545  0.00  0.00    +0.025 A 
ATOM     20  C   UNL     1      -3.771   2.471  23.882  0.00  0.00    +0.017 A 
ATOM     21  C   UNL     1      -2.729   3.009  25.995  0.00  0.00    +0.017 A 
ATOM     22  C   UNL     1      -3.849   3.017  25.164  0.00  0.00    +0.059 A 
BRANCH  22  23
ATOM      4  O   UNL     1      -5.535   4.699  25.279  0.00  0.00    -0.245 OA
ATOM     23  C   UNL     1      -5.099   3.595  25.632  0.00  0.00    +0.339 C 
BRANCH  23   3
ATOM      3  O   UNL     1      -5.737   2.767  26.514  0.00  0.00    -0.461 OA
BRANCH   3  24
ATOM     24  C   UNL     1      -6.068   1.456  26.046  0.00  0.00    +0.229 C 
ATOM     25  C   UNL     1      -6.800   1.575  24.726  0.00  0.00    +0.048 C 
ENDBRANCH   3  24
ENDBRANCH  23   3
ENDBRANCH  22  23
ENDBRANCH   6  16
TORSDOF 4
ENDMDL
MODEL 4
REMARK VINA RESULT:       1.0      2.718      8.186
REMARK  Name = 75536038
REMARK  5 active torsions:
REMARK  status: ('A' for Active; 'I' for Inactive)
REMARK    1  A    between atoms: O_3  and  C_23
REMARK    2  A    between atoms: O_3  and  C_24
REMARK    3  A    between atoms: N_6  and  C_16
REMARK    4  A    between atoms: C_22  and  C_23
REMARK    5  A    between atoms: C_24  and  C_25
REMARK                            x       y       z     vdW  Elec       q    Type
REMARK                         _______ _______ _______ _____ _____    ______ ____
ROOT
ATOM      1  O   UNL     1      -1.900  -0.950  24.385  0.00  0.00    -0.273 OA
ATOM      2  O   UNL     1      -0.951   3.568  24.915  0.00  0.00    -0.252 OA
ATOM      5  N   UNL     1      -2.787   2.239  25.405  0.00  0.00    -0.267 N 
ATOM      6  N   UNL     1      -1.007   1.241  24.476  0.00  0.00    -0.193 N 
ATOM      7  N   UNL     1      -6.231   3.539  25.757  0.00  0.00    -0.347 N 
ATOM      8  N   UNL     1      -6.804   1.595  24.812  0.00  0.00    -0.240 NA
ATOM      9  C   UNL     1      -3.158   0.833  25.382  0.00  0.00    +0.171 C 
ATOM     10  C   UNL     1      -4.480   0.590  24.632  0.00  0.00    +0.089 C 
ATOM     11  C   UNL     1      -3.701   3.254  25.951  0.00  0.00    +0.165 C 
ATOM     12  C   UNL     1      -5.452   1.649  25.006  0.00  0.00    +0.066 A 
ATOM     13  C   UNL     1      -5.073   2.841  25.584  0.00  0.00    +0.056 A 
ATOM     14  C   UNL     1      -1.947   0.236  24.688  0.00  0.00    +0.248 C 
ATOM     15  C   UNL     1      -1.501   2.475  24.912  0.00  0.00    +0.317 C 
ATOM     17  C   UNL     1      -7.245   2.747  25.277  0.00  0.00    +0.197 A 
ATOM     26  H   UNL     1      -6.330   4.461  26.162  0.00  0.00    +0.167 HD
ENDROOT
BRANCH   6  16
ATOM     16  C   UNL     1       0.279   1.040  23.879  0.00  0.00    +0.045 A 
ATOM     18  C   UNL     1       1.287   1.986  24.060  0.00  0.00    +0.025 A 
ATOM     19  C   UNL     1       0.523  -0.102  23.116  0.00  0.00    +0.025 A 
ATOM     20  C   UNL     1       2.539   1.792  23.479  0.00  0.00    +0.017 A 
ATOM     21  C   UNL     1       1.776  -0.297  22.535  0.00  0.00    +0.017 A 
ATOM     22  C   UNL     1       2.784   0.650  22.716  0.00  0.00    +0.059 A 
BRANCH  22  23
ATOM      4  O   UNL     1       4.271   0.087  20.938  0.00  0.00    -0.245 OA
ATOM     23  C   UNL     1       4.091   0.447  22.109  0.00  0.00    +0.339 C 
BRANCH  23   3
ATOM      3  O   UNL     1       5.102   0.705  22.994  0.00  0.00    -0.461 OA
BRANCH   3  24
ATOM     24  C   UNL     1       5.905  -0.408  23.399  0.00  0.00    +0.229 C 
ATOM     25  C   UNL     1       5.021  -1.431  24.081  0.00  0.00    +0.048 C 
ENDBRANCH   3  24
ENDBRANCH  23   3
ENDBRANCH  22  23
ENDBRANCH   6  16
TORSDOF 4
ENDMDL
