MODEL 1
REMARK VINA RESULT:       1.1      0.000      0.000
REMARK  Name = 26743806
REMARK  8 active torsions:
REMARK  status: ('A' for Active; 'I' for Inactive)
REMARK    1  A    between atoms: O_2  and  C_11
REMARK    2  A    between atoms: N_5  and  C_13
REMARK    3  A    between atoms: N_8  and  C_21
REMARK    4  A    between atoms: C_9  and  C_14
REMARK    5  A    between atoms: C_13  and  C_15
REMARK    6  A    between atoms: C_18  and  C_22
REMARK    7  A    between atoms: C_27  and  C_29
REMARK    8  A    between atoms: C_28  and  C_30
REMARK                            x       y       z     vdW  Elec       q    Type
REMARK                         _______ _______ _______ _____ _____    ______ ____
ROOT
ATOM      5  N   UNL     1      -3.173   0.034  23.826  0.00  0.00    -0.285 NA
ATOM      9  C   UNL     1      -2.073  -0.770  24.397  0.00  0.00    +0.149 C 
ATOM     10  C   UNL     1      -2.526  -2.232  24.228  0.00  0.00    +0.061 C 
ATOM     11  C   UNL     1      -3.910  -2.146  23.597  0.00  0.00    +0.130 C 
ATOM     12  C   UNL     1      -4.390  -0.760  23.980  0.00  0.00    +0.116 C 
ENDROOT
BRANCH   9  14
ATOM      3  O   UNL     1      -0.786  -0.035  22.453  0.00  0.00    -0.336 OA
ATOM      6  N   UNL     1       0.469  -0.621  24.214  0.00  0.00    -0.190 NA
ATOM      7  N   UNL     1       0.546   0.148  22.060  0.00  0.00    -0.056 NA
ATOM     14  C   UNL     1      -0.741  -0.489  23.733  0.00  0.00    +0.245 A 
ATOM     18  C   UNL     1       1.225  -0.219  23.151  0.00  0.00    +0.202 A 
BRANCH  18  22
ATOM      1  F   UNL     1       5.413  -2.360  24.181  0.00  0.00    -0.205 F 
ATOM     22  C   UNL     1       2.659  -0.193  23.212  0.00  0.00    +0.025 A 
ATOM     23  C   UNL     1       3.356  -1.308  23.675  0.00  0.00    +0.050 A 
ATOM     24  C   UNL     1       3.353   0.947  22.807  0.00  0.00    +0.012 A 
ATOM     25  C   UNL     1       4.750  -1.283  23.734  0.00  0.00    +0.127 A 
ATOM     26  C   UNL     1       4.747   0.971  22.868  0.00  0.00    +0.007 A 
ATOM     27  C   UNL     1       5.444  -0.143  23.330  0.00  0.00    -0.015 A 
ATOM     29  C   UNL     1       6.935  -0.114  23.392  0.00  0.00    +0.047 C 
ENDBRANCH  18  22
ENDBRANCH   9  14
BRANCH  11   2
ATOM      2  O   UNL     1      -4.758  -3.156  24.107  0.00  0.00    -0.390 OA
ATOM     31  H   UNL     1      -4.531  -3.283  25.043  0.00  0.00    +0.210 HD
ENDBRANCH  11   2
BRANCH   5  13
ATOM     13  C   UNL     1      -3.297   1.352  24.434  0.00  0.00    +0.120 C 
BRANCH  13  15
ATOM     15  C   UNL     1      -2.054   1.740  25.190  0.00  0.00    -0.033 A 
ATOM     16  C   UNL     1      -1.618   0.962  26.262  0.00  0.00    +0.007 A 
ATOM     17  C   UNL     1      -1.338   2.879  24.818  0.00  0.00    +0.007 A 
ATOM     19  C   UNL     1      -0.466   1.320  26.962  0.00  0.00    +0.023 A 
ATOM     20  C   UNL     1      -0.186   3.238  25.517  0.00  0.00    +0.023 A 
ATOM     21  C   UNL     1       0.250   2.459  26.590  0.00  0.00    +0.033 A 
BRANCH  21   8
ATOM      4  O   UNL     1       0.853   2.362  29.538  0.00  0.00    -0.276 OA
ATOM      8  N   UNL     1       1.402   2.817  27.290  0.00  0.00    -0.286 N 
ATOM     28  C   UNL     1       1.629   2.753  28.672  0.00  0.00    +0.214 C 
ATOM     30  C   UNL     1       3.011   3.236  29.034  0.00  0.00    +0.109 C 
ATOM     32  H   UNL     1       2.167   3.169  26.719  0.00  0.00    +0.155 HD
ENDBRANCH  21   8
ENDBRANCH  13  15
ENDBRANCH   5  13
TORSDOF 6
ENDMDL
MODEL 2
REMARK VINA RESULT:       1.2      3.040      5.028
REMARK  Name = 26743806
REMARK  8 active torsions:
REMARK  status: ('A' for Active; 'I' for Inactive)
REMARK    1  A    between atoms: O_2  and  C_11
REMARK    2  A    between atoms: N_5  and  C_13
REMARK    3  A    between atoms: N_8  and  C_21
REMARK    4  A    between atoms: C_9  and  C_14
REMARK    5  A    between atoms: C_13  and  C_15
REMARK    6  A    between atoms: C_18  and  C_22
REMARK    7  A    between atoms: C_27  and  C_29
REMARK    8  A    between atoms: C_28  and  C_30
REMARK                            x       y       z     vdW  Elec       q    Type
REMARK                         _______ _______ _______ _____ _____    ______ ____
ROOT
ATOM      5  N   UNL     1      -5.328   2.285  25.332  0.00  0.00    -0.285 NA
ATOM      9  C   UNL     1      -4.475   3.034  24.387  0.00  0.00    +0.149 C 
ATOM     10  C   UNL     1      -4.728   4.517  24.720  0.00  0.00    +0.061 C 
ATOM     11  C   UNL     1      -5.770   4.500  25.831  0.00  0.00    +0.130 C 
ATOM     12  C   UNL     1      -6.455   3.158  25.656  0.00  0.00    +0.116 C 
ENDROOT
BRANCH   9  14
ATOM      3  O   UNL     1      -2.365   3.045  25.619  0.00  0.00    -0.336 OA
ATOM      6  N   UNL     1      -2.267   1.988  23.646  0.00  0.00    -0.190 NA
ATOM      7  N   UNL     1      -1.048   2.585  25.488  0.00  0.00    -0.056 NA
ATOM     14  C   UNL     1      -3.014   2.651  24.492  0.00  0.00    +0.245 A 
ATOM     18  C   UNL     1      -1.070   1.972  24.301  0.00  0.00    +0.202 A 
BRANCH  18  22
ATOM      1  F   UNL     1       3.604   2.040  23.144  0.00  0.00    -0.205 F 
ATOM     22  C   UNL     1       0.087   1.334  23.741  0.00  0.00    +0.025 A 
ATOM     23  C   UNL     1       1.309   2.007  23.712  0.00  0.00    +0.050 A 
ATOM     24  C   UNL     1      -0.011   0.042  23.226  0.00  0.00    +0.012 A 
ATOM     25  C   UNL     1       2.433   1.386  23.168  0.00  0.00    +0.127 A 
ATOM     26  C   UNL     1       1.114  -0.578  22.681  0.00  0.00    +0.007 A 
ATOM     27  C   UNL     1       2.335   0.093  22.653  0.00  0.00    -0.015 A 
ATOM     29  C   UNL     1       3.536  -0.573  22.071  0.00  0.00    +0.047 C 
ENDBRANCH  18  22
ENDBRANCH   9  14
BRANCH  11   2
ATOM      2  O   UNL     1      -6.677   5.575  25.685  0.00  0.00    -0.390 OA
ATOM     31  H   UNL     1      -6.873   5.914  26.575  0.00  0.00    +0.210 HD
ENDBRANCH  11   2
BRANCH   5  13
ATOM     13  C   UNL     1      -5.765   0.995  24.814  0.00  0.00    +0.120 C 
BRANCH  13  15
ATOM     15  C   UNL     1      -4.662  -0.030  24.859  0.00  0.00    -0.033 A 
ATOM     16  C   UNL     1      -3.916  -0.201  26.024  0.00  0.00    +0.007 A 
ATOM     17  C   UNL     1      -4.388  -0.808  23.734  0.00  0.00    +0.007 A 
ATOM     19  C   UNL     1      -2.896  -1.151  26.066  0.00  0.00    +0.023 A 
ATOM     20  C   UNL     1      -3.368  -1.759  23.775  0.00  0.00    +0.023 A 
ATOM     21  C   UNL     1      -2.622  -1.930  24.941  0.00  0.00    +0.033 A 
BRANCH  21   8
ATOM      4  O   UNL     1       0.226  -1.696  25.892  0.00  0.00    -0.276 OA
ATOM      8  N   UNL     1      -1.601  -2.880  24.984  0.00  0.00    -0.286 N 
ATOM     28  C   UNL     1      -0.284  -2.715  25.437  0.00  0.00    +0.214 C 
ATOM     30  C   UNL     1       0.512  -3.990  25.316  0.00  0.00    +0.109 C 
ATOM     32  H   UNL     1      -1.851  -3.804  24.640  0.00  0.00    +0.155 HD
ENDBRANCH  21   8
ENDBRANCH  13  15
ENDBRANCH   5  13
TORSDOF 6
ENDMDL
MODEL 3
REMARK VINA RESULT:       2.2      3.076      6.093
REMARK  Name = 26743806
REMARK  8 active torsions:
REMARK  status: ('A' for Active; 'I' for Inactive)
REMARK    1  A    between atoms: O_2  and  C_11
REMARK    2  A    between atoms: N_5  and  C_13
REMARK    3  A    between atoms: N_8  and  C_21
REMARK    4  A    between atoms: C_9  and  C_14
REMARK    5  A    between atoms: C_13  and  C_15
REMARK    6  A    between atoms: C_18  and  C_22
REMARK    7  A    between atoms: C_27  and  C_29
REMARK    8  A    between atoms: C_28  and  C_30
REMARK                            x       y       z     vdW  Elec       q    Type
REMARK                         _______ _______ _______ _____ _____    ______ ____
ROOT
ATOM      5  N   UNL     1      -3.999   4.156  25.669  0.00  0.00    -0.285 NA
ATOM      9  C   UNL     1      -5.096   3.262  26.092  0.00  0.00    +0.149 C 
ATOM     10  C   UNL     1      -6.384   3.982  25.649  0.00  0.00    +0.061 C 
ATOM     11  C   UNL     1      -5.911   5.291  25.029  0.00  0.00    +0.130 C 
ATOM     12  C   UNL     1      -4.549   5.511  25.659  0.00  0.00    +0.116 C 
ENDROOT
BRANCH   9  14
ATOM      3  O   UNL     1      -6.115   1.313  25.027  0.00  0.00    -0.336 OA
ATOM      6  N   UNL     1      -3.915   1.109  25.394  0.00  0.00    -0.190 NA
ATOM      7  N   UNL     1      -5.756   0.047  24.548  0.00  0.00    -0.056 NA
ATOM     14  C   UNL     1      -4.973   1.871  25.508  0.00  0.00    +0.245 A 
ATOM     18  C   UNL     1      -4.444   0.001  24.799  0.00  0.00    +0.202 A 
BRANCH  18  22
ATOM      1  F   UNL     1      -0.219  -2.307  24.905  0.00  0.00    -0.205 F 
ATOM     22  C   UNL     1      -3.635  -1.136  24.468  0.00  0.00    +0.025 A 
ATOM     23  C   UNL     1      -2.294  -1.174  24.853  0.00  0.00    +0.050 A 
ATOM     24  C   UNL     1      -4.188  -2.204  23.762  0.00  0.00    +0.012 A 
ATOM     25  C   UNL     1      -1.507  -2.280  24.531  0.00  0.00    +0.127 A 
ATOM     26  C   UNL     1      -3.400  -3.310  23.440  0.00  0.00    +0.007 A 
ATOM     27  C   UNL     1      -2.061  -3.347  23.825  0.00  0.00    -0.015 A 
ATOM     29  C   UNL     1      -1.221  -4.531  23.479  0.00  0.00    +0.047 C 
ENDBRANCH  18  22
ENDBRANCH   9  14
BRANCH  11   2
ATOM      2  O   UNL     1      -6.806   6.343  25.333  0.00  0.00    -0.390 OA
ATOM     31  H   UNL     1      -7.683   6.084  25.004  0.00  0.00    +0.210 HD
ENDBRANCH  11   2
BRANCH   5  13
ATOM     13  C   UNL     1      -2.815   4.051  26.510  0.00  0.00    +0.120 C 
BRANCH  13  15
ATOM     15  C   UNL     1      -1.666   3.404  25.782  0.00  0.00    -0.033 A 
ATOM     16  C   UNL     1      -0.775   2.584  26.475  0.00  0.00    +0.007 A 
ATOM     17  C   UNL     1      -1.493   3.624  24.415  0.00  0.00    +0.007 A 
ATOM     19  C   UNL     1       0.288   1.983  25.801  0.00  0.00    +0.023 A 
ATOM     20  C   UNL     1      -0.430   3.024  23.741  0.00  0.00    +0.023 A 
ATOM     21  C   UNL     1       0.461   2.204  24.434  0.00  0.00    +0.033 A 
BRANCH  21   8
ATOM      4  O   UNL     1       0.554  -0.303  22.768  0.00  0.00    -0.276 OA
ATOM      8  N   UNL     1       1.525   1.603  23.760  0.00  0.00    -0.286 N 
ATOM     28  C   UNL     1       1.512   0.427  22.997  0.00  0.00    +0.214 C 
ATOM     30  C   UNL     1       2.875   0.114  22.432  0.00  0.00    +0.109 C 
ATOM     32  H   UNL     1       2.418   2.085  23.840  0.00  0.00    +0.155 HD
ENDBRANCH  21   8
ENDBRANCH  13  15
ENDBRANCH   5  13
TORSDOF 6
ENDMDL
MODEL 4
REMARK VINA RESULT:       2.4      3.479      7.326
REMARK  Name = 26743806
REMARK  8 active torsions:
REMARK  status: ('A' for Active; 'I' for Inactive)
REMARK    1  A    between atoms: O_2  and  C_11
REMARK    2  A    between atoms: N_5  and  C_13
REMARK    3  A    between atoms: N_8  and  C_21
REMARK    4  A    between atoms: C_9  and  C_14
REMARK    5  A    between atoms: C_13  and  C_15
REMARK    6  A    between atoms: C_18  and  C_22
REMARK    7  A    between atoms: C_27  and  C_29
REMARK    8  A    between atoms: C_28  and  C_30
REMARK                            x       y       z     vdW  Elec       q    Type
REMARK                         _______ _______ _______ _____ _____    ______ ____
ROOT
ATOM      5  N   UNL     1       0.811  -0.235  22.918  0.00  0.00    -0.285 NA
ATOM      9  C   UNL     1       1.448   0.505  24.027  0.00  0.00    +0.149 C 
ATOM     10  C   UNL     1       2.722   1.114  23.413  0.00  0.00    +0.061 C 
ATOM     11  C   UNL     1       2.738   0.624  21.970  0.00  0.00    +0.130 C 
ATOM     12  C   UNL     1       1.888  -0.631  22.012  0.00  0.00    +0.116 C 
ENDROOT
BRANCH   9  14
ATOM      3  O   UNL     1       1.064   2.323  25.615  0.00  0.00    -0.336 OA
ATOM      6  N   UNL     1      -0.715   1.822  24.351  0.00  0.00    -0.190 NA
ATOM      7  N   UNL     1       0.045   3.197  26.013  0.00  0.00    -0.056 NA
ATOM     14  C   UNL     1       0.533   1.548  24.633  0.00  0.00    +0.245 A 
ATOM     18  C   UNL     1      -0.971   2.840  25.223  0.00  0.00    +0.202 A 
BRANCH  18  22
ATOM      1  F   UNL     1      -4.659   5.026  23.032  0.00  0.00    -0.205 F 
ATOM     22  C   UNL     1      -2.253   3.481  25.278  0.00  0.00    +0.025 A 
ATOM     23  C   UNL     1      -2.848   3.953  24.108  0.00  0.00    +0.050 A 
ATOM     24  C   UNL     1      -2.905   3.631  26.502  0.00  0.00    +0.012 A 
ATOM     25  C   UNL     1      -4.095   4.575  24.162  0.00  0.00    +0.127 A 
ATOM     26  C   UNL     1      -4.152   4.255  26.555  0.00  0.00    +0.007 A 
ATOM     27  C   UNL     1      -4.747   4.726  25.386  0.00  0.00    -0.015 A 
ATOM     29  C   UNL     1      -6.080   5.391  25.446  0.00  0.00    +0.047 C 
ENDBRANCH  18  22
ENDBRANCH   9  14
BRANCH  11   2
ATOM      2  O   UNL     1       4.059   0.349  21.548  0.00  0.00    -0.390 OA
ATOM     31  H   UNL     1       4.070  -0.556  21.192  0.00  0.00    +0.210 HD
ENDBRANCH  11   2
BRANCH   5  13
ATOM     13  C   UNL     1       0.024  -1.376  23.366  0.00  0.00    +0.120 C 
BRANCH  13  15
ATOM     15  C   UNL     1      -1.249  -0.947  24.047  0.00  0.00    -0.033 A 
ATOM     16  C   UNL     1      -1.412  -1.156  25.415  0.00  0.00    +0.007 A 
ATOM     17  C   UNL     1      -2.265  -0.340  23.307  0.00  0.00    +0.007 A 
ATOM     19  C   UNL     1      -2.590  -0.757  26.047  0.00  0.00    +0.023 A 
ATOM     20  C   UNL     1      -3.443   0.059  23.938  0.00  0.00    +0.023 A 
ATOM     21  C   UNL     1      -3.606  -0.150  25.307  0.00  0.00    +0.033 A 
BRANCH  21   8
ATOM      4  O   UNL     1      -5.644   1.920  24.515  0.00  0.00    -0.276 OA
ATOM      8  N   UNL     1      -4.785   0.248  25.939  0.00  0.00    -0.286 N 
ATOM     28  C   UNL     1      -5.701   1.225  25.524  0.00  0.00    +0.214 C 
ATOM     30  C   UNL     1      -6.852   1.357  26.490  0.00  0.00    +0.109 C 
ATOM     32  H   UNL     1      -4.998  -0.235  26.808  0.00  0.00    +0.155 HD
ENDBRANCH  21   8
ENDBRANCH  13  15
ENDBRANCH   5  13
TORSDOF 6
ENDMDL
MODEL 5
REMARK VINA RESULT:       3.1      2.757      5.458
REMARK  Name = 26743806
REMARK  8 active torsions:
REMARK  status: ('A' for Active; 'I' for Inactive)
REMARK    1  A    between atoms: O_2  and  C_11
REMARK    2  A    between atoms: N_5  and  C_13
REMARK    3  A    between atoms: N_8  and  C_21
REMARK    4  A    between atoms: C_9  and  C_14
REMARK    5  A    between atoms: C_13  and  C_15
REMARK    6  A    between atoms: C_18  and  C_22
REMARK    7  A    between atoms: C_27  and  C_29
REMARK    8  A    between atoms: C_28  and  C_30
REMARK                            x       y       z     vdW  Elec       q    Type
REMARK                         _______ _______ _______ _____ _____    ______ ____
ROOT
ATOM      5  N   UNL     1      -4.300   1.987  25.075  0.00  0.00    -0.285 NA
ATOM      9  C   UNL     1      -3.475   3.154  24.702  0.00  0.00    +0.149 C 
ATOM     10  C   UNL     1      -4.278   4.375  25.189  0.00  0.00    +0.061 C 
ATOM     11  C   UNL     1      -5.557   3.796  25.780  0.00  0.00    +0.130 C 
ATOM     12  C   UNL     1      -5.687   2.449  25.096  0.00  0.00    +0.116 C 
ENDROOT
BRANCH   9  14
ATOM      3  O   UNL     1      -1.055   3.375  24.447  0.00  0.00    -0.336 OA
ATOM      6  N   UNL     1      -1.709   2.810  26.514  0.00  0.00    -0.190 NA
ATOM      7  N   UNL     1       0.115   3.258  25.208  0.00  0.00    -0.056 NA
ATOM     14  C   UNL     1      -2.082   3.095  25.292  0.00  0.00    +0.245 A 
ATOM     18  C   UNL     1      -0.353   2.923  26.414  0.00  0.00    +0.202 A 
BRANCH  18  22
ATOM      1  F   UNL     1       4.059   2.573  28.312  0.00  0.00    -0.205 F 
ATOM     22  C   UNL     1       0.507   2.695  27.539  0.00  0.00    +0.025 A 
ATOM     23  C   UNL     1       1.892   2.745  27.380  0.00  0.00    +0.050 A 
ATOM     24  C   UNL     1      -0.042   2.426  28.792  0.00  0.00    +0.012 A 
ATOM     25  C   UNL     1       2.728   2.524  28.474  0.00  0.00    +0.127 A 
ATOM     26  C   UNL     1       0.795   2.204  29.887  0.00  0.00    +0.007 A 
ATOM     27  C   UNL     1       2.179   2.254  29.727  0.00  0.00    -0.015 A 
ATOM     29  C   UNL     1       3.071   2.017  30.900  0.00  0.00    +0.047 C 
ENDBRANCH  18  22
ENDBRANCH   9  14
BRANCH  11   2
ATOM      2  O   UNL     1      -6.662   4.634  25.503  0.00  0.00    -0.390 OA
ATOM     31  H   UNL     1      -7.326   4.480  26.197  0.00  0.00    +0.210 HD
ENDBRANCH  11   2
BRANCH   5  13
ATOM     13  C   UNL     1      -4.116   0.845  24.189  0.00  0.00    +0.120 C 
BRANCH  13  15
ATOM     15  C   UNL     1      -2.658   0.528  23.980  0.00  0.00    -0.033 A 
ATOM     16  C   UNL     1      -1.978  -0.264  24.904  0.00  0.00    +0.007 A 
ATOM     17  C   UNL     1      -1.990   1.025  22.861  0.00  0.00    +0.007 A 
ATOM     19  C   UNL     1      -0.628  -0.560  24.710  0.00  0.00    +0.023 A 
ATOM     20  C   UNL     1      -0.641   0.730  22.666  0.00  0.00    +0.023 A 
ATOM     21  C   UNL     1       0.040  -0.062  23.591  0.00  0.00    +0.033 A 
BRANCH  21   8
ATOM      4  O   UNL     1       2.409   1.763  23.243  0.00  0.00    -0.276 OA
ATOM      8  N   UNL     1       1.390  -0.358  23.397  0.00  0.00    -0.286 N 
ATOM     28  C   UNL     1       2.457   0.538  23.238  0.00  0.00    +0.214 C 
ATOM     30  C   UNL     1       3.768  -0.184  23.051  0.00  0.00    +0.109 C 
ATOM     32  H   UNL     1       1.619  -1.349  23.368  0.00  0.00    +0.155 HD
ENDBRANCH  21   8
ENDBRANCH  13  15
ENDBRANCH   5  13
TORSDOF 6
ENDMDL
MODEL 6
REMARK VINA RESULT:       3.4      3.361      6.195
REMARK  Name = 26743806
REMARK  8 active torsions:
REMARK  status: ('A' for Active; 'I' for Inactive)
REMARK    1  A    between atoms: O_2  and  C_11
REMARK    2  A    between atoms: N_5  and  C_13
REMARK    3  A    between atoms: N_8  and  C_21
REMARK    4  A    between atoms: C_9  and  C_14
REMARK    5  A    between atoms: C_13  and  C_15
REMARK    6  A    between atoms: C_18  and  C_22
REMARK    7  A    between atoms: C_27  and  C_29
REMARK    8  A    between atoms: C_28  and  C_30
REMARK                            x       y       z     vdW  Elec       q    Type
REMARK                         _______ _______ _______ _____ _____    ______ ____
ROOT
ATOM      5  N   UNL     1      -3.950   4.179  25.637  0.00  0.00    -0.285 NA
ATOM      9  C   UNL     1      -5.018   3.257  26.075  0.00  0.00    +0.149 C 
ATOM     10  C   UNL     1      -6.329   3.938  25.639  0.00  0.00    +0.061 C 
ATOM     11  C   UNL     1      -5.898   5.255  25.007  0.00  0.00    +0.130 C 
ATOM     12  C   UNL     1      -4.537   5.517  25.624  0.00  0.00    +0.116 C 
ENDROOT
BRANCH   9  14
ATOM      3  O   UNL     1      -5.988   1.276  25.023  0.00  0.00    -0.336 OA
ATOM      6  N   UNL     1      -3.783   1.131  25.386  0.00  0.00    -0.190 NA
ATOM      7  N   UNL     1      -5.598   0.017  24.550  0.00  0.00    -0.056 NA
ATOM     14  C   UNL     1      -4.860   1.866  25.498  0.00  0.00    +0.245 A 
ATOM     18  C   UNL     1      -4.285   0.006  24.799  0.00  0.00    +0.202 A 
BRANCH  18  22
ATOM      1  F   UNL     1      -3.756  -4.516  23.231  0.00  0.00    -0.205 F 
ATOM     22  C   UNL     1      -3.447  -1.112  24.472  0.00  0.00    +0.025 A 
ATOM     23  C   UNL     1      -4.016  -2.295  24.001  0.00  0.00    +0.050 A 
ATOM     24  C   UNL     1      -2.065  -1.014  24.624  0.00  0.00    +0.012 A 
ATOM     25  C   UNL     1      -3.201  -3.381  23.682  0.00  0.00    +0.127 A 
ATOM     26  C   UNL     1      -1.250  -2.102  24.307  0.00  0.00    +0.007 A 
ATOM     27  C   UNL     1      -1.818  -3.284  23.836  0.00  0.00    -0.015 A 
ATOM     29  C   UNL     1      -0.945  -4.445  23.496  0.00  0.00    +0.047 C 
ENDBRANCH  18  22
ENDBRANCH   9  14
BRANCH  11   2
ATOM      2  O   UNL     1      -6.819   6.283  25.311  0.00  0.00    -0.390 OA
ATOM     31  H   UNL     1      -6.967   6.268  26.272  0.00  0.00    +0.210 HD
ENDBRANCH  11   2
BRANCH   5  13
ATOM     13  C   UNL     1      -2.756   4.112  26.469  0.00  0.00    +0.120 C 
BRANCH  13  15
ATOM     15  C   UNL     1      -1.612   3.441  25.756  0.00  0.00    -0.033 A 
ATOM     16  C   UNL     1      -1.400   3.680  24.398  0.00  0.00    +0.007 A 
ATOM     17  C   UNL     1      -0.764   2.581  26.453  0.00  0.00    +0.007 A 
ATOM     19  C   UNL     1      -0.340   3.060  23.738  0.00  0.00    +0.023 A 
ATOM     20  C   UNL     1       0.297   1.960  25.793  0.00  0.00    +0.023 A 
ATOM     21  C   UNL     1       0.509   2.200  24.435  0.00  0.00    +0.033 A 
BRANCH  21   8
ATOM      4  O   UNL     1       0.546  -0.222  22.646  0.00  0.00    -0.276 OA
ATOM      8  N   UNL     1       1.569   1.579  23.774  0.00  0.00    -0.286 N 
ATOM     28  C   UNL     1       1.530   0.445  22.950  0.00  0.00    +0.214 C 
ATOM     30  C   UNL     1       2.897   0.090  22.424  0.00  0.00    +0.109 C 
ATOM     32  H   UNL     1       2.481   2.009  23.914  0.00  0.00    +0.155 HD
ENDBRANCH  21   8
ENDBRANCH  13  15
ENDBRANCH   5  13
TORSDOF 6
ENDMDL
MODEL 7
REMARK VINA RESULT:       3.7      2.487      3.117
REMARK  Name = 26743806
REMARK  8 active torsions:
REMARK  status: ('A' for Active; 'I' for Inactive)
REMARK    1  A    between atoms: O_2  and  C_11
REMARK    2  A    between atoms: N_5  and  C_13
REMARK    3  A    between atoms: N_8  and  C_21
REMARK    4  A    between atoms: C_9  and  C_14
REMARK    5  A    between atoms: C_13  and  C_15
REMARK    6  A    between atoms: C_18  and  C_22
REMARK    7  A    between atoms: C_27  and  C_29
REMARK    8  A    between atoms: C_28  and  C_30
REMARK                            x       y       z     vdW  Elec       q    Type
REMARK                         _______ _______ _______ _____ _____    ______ ____
ROOT
ATOM      5  N   UNL     1      -4.404  -1.359  23.972  0.00  0.00    -0.285 NA
ATOM      9  C   UNL     1      -3.449  -1.758  25.025  0.00  0.00    +0.149 C 
ATOM     10  C   UNL     1      -3.219  -3.264  24.797  0.00  0.00    +0.061 C 
ATOM     11  C   UNL     1      -4.122  -3.628  23.625  0.00  0.00    +0.130 C 
ATOM     12  C   UNL     1      -5.188  -2.550  23.650  0.00  0.00    +0.116 C 
ENDROOT
BRANCH   9  14
ATOM      3  O   UNL     1      -2.054   0.058  25.879  0.00  0.00    -0.336 OA
ATOM      6  N   UNL     1      -1.127  -1.094  24.197  0.00  0.00    -0.190 NA
ATOM      7  N   UNL     1      -0.803   0.643  25.649  0.00  0.00    -0.056 NA
ATOM     14  C   UNL     1      -2.165  -0.957  24.982  0.00  0.00    +0.245 A 
ATOM     18  C   UNL     1      -0.317  -0.090  24.644  0.00  0.00    +0.202 A 
BRANCH  18  22
ATOM      1  F   UNL     1       4.033  -1.657  23.300  0.00  0.00    -0.205 F 
ATOM     22  C   UNL     1       0.973   0.152  24.064  0.00  0.00    +0.025 A 
ATOM     23  C   UNL     1       1.897  -0.888  23.960  0.00  0.00    +0.050 A 
ATOM     24  C   UNL     1       1.301   1.427  23.604  0.00  0.00    +0.012 A 
ATOM     25  C   UNL     1       3.150  -0.652  23.396  0.00  0.00    +0.127 A 
ATOM     26  C   UNL     1       2.556   1.662  23.040  0.00  0.00    +0.007 A 
ATOM     27  C   UNL     1       3.479   0.623  22.936  0.00  0.00    -0.015 A 
ATOM     29  C   UNL     1       4.820   0.878  22.333  0.00  0.00    +0.047 C 
ENDBRANCH  18  22
ENDBRANCH   9  14
BRANCH  11   2
ATOM      2  O   UNL     1      -4.675  -4.918  23.799  0.00  0.00    -0.390 OA
ATOM     31  H   UNL     1      -5.159  -5.140  22.986  0.00  0.00    +0.210 HD
ENDBRANCH  11   2
BRANCH   5  13
ATOM     13  C   UNL     1      -5.247  -0.235  24.357  0.00  0.00    +0.120 C 
BRANCH  13  15
ATOM     15  C   UNL     1      -4.475   1.057  24.399  0.00  0.00    -0.033 A 
ATOM     16  C   UNL     1      -3.576   1.365  23.379  0.00  0.00    +0.007 A 
ATOM     17  C   UNL     1      -4.661   1.946  25.458  0.00  0.00    +0.007 A 
ATOM     19  C   UNL     1      -2.862   2.563  23.417  0.00  0.00    +0.023 A 
ATOM     20  C   UNL     1      -3.947   3.144  25.497  0.00  0.00    +0.023 A 
ATOM     21  C   UNL     1      -3.047   3.452  24.476  0.00  0.00    +0.033 A 
BRANCH  21   8
ATOM      4  O   UNL     1      -0.230   4.018  25.376  0.00  0.00    -0.276 OA
ATOM      8  N   UNL     1      -2.332   4.650  24.514  0.00  0.00    -0.286 N 
ATOM     28  C   UNL     1      -1.015   4.858  24.947  0.00  0.00    +0.214 C 
ATOM     30  C   UNL     1      -0.611   6.305  24.829  0.00  0.00    +0.109 C 
ATOM     32  H   UNL     1      -2.838   5.469  24.185  0.00  0.00    +0.155 HD
ENDBRANCH  21   8
ENDBRANCH  13  15
ENDBRANCH   5  13
TORSDOF 6
ENDMDL
MODEL 8
REMARK VINA RESULT:       4.2      2.138      5.145
REMARK  Name = 26743806
REMARK  8 active torsions:
REMARK  status: ('A' for Active; 'I' for Inactive)
REMARK    1  A    between atoms: O_2  and  C_11
REMARK    2  A    between atoms: N_5  and  C_13
REMARK    3  A    between atoms: N_8  and  C_21
REMARK    4  A    between atoms: C_9  and  C_14
REMARK    5  A    between atoms: C_13  and  C_15
REMARK    6  A    between atoms: C_18  and  C_22
REMARK    7  A    between atoms: C_27  and  C_29
REMARK    8  A    between atoms: C_28  and  C_30
REMARK                            x       y       z     vdW  Elec       q    Type
REMARK                         _______ _______ _______ _____ _____    ______ ____
ROOT
ATOM      5  N   UNL     1      -1.080   3.260  25.721  0.00  0.00    -0.285 NA
ATOM      9  C   UNL     1      -1.203   2.921  24.289  0.00  0.00    +0.149 C 
ATOM     10  C   UNL     1      -1.124   4.274  23.557  0.00  0.00    +0.061 C 
ATOM     11  C   UNL     1      -1.005   5.315  24.663  0.00  0.00    +0.130 C 
ATOM     12  C   UNL     1      -1.598   4.619  25.872  0.00  0.00    +0.116 C 
ENDROOT
BRANCH   9  14
ATOM      3  O   UNL     1      -0.573   0.889  23.087  0.00  0.00    -0.336 OA
ATOM      6  N   UNL     1       1.149   1.959  24.039  0.00  0.00    -0.190 NA
ATOM      7  N   UNL     1       0.569   0.137  22.784  0.00  0.00    -0.056 NA
ATOM     14  C   UNL     1      -0.143   1.944  23.828  0.00  0.00    +0.245 A 
ATOM     18  C   UNL     1       1.543   0.831  23.380  0.00  0.00    +0.202 A 
BRANCH  18  22
ATOM      1  F   UNL     1       4.952  -2.507  24.031  0.00  0.00    -0.205 F 
ATOM     22  C   UNL     1       2.919   0.427  23.334  0.00  0.00    +0.025 A 
ATOM     23  C   UNL     1       3.278  -0.867  23.711  0.00  0.00    +0.050 A 
ATOM     24  C   UNL     1       3.896   1.327  22.911  0.00  0.00    +0.012 A 
ATOM     25  C   UNL     1       4.615  -1.261  23.665  0.00  0.00    +0.127 A 
ATOM     26  C   UNL     1       5.234   0.933  22.867  0.00  0.00    +0.007 A 
ATOM     27  C   UNL     1       5.593  -0.360  23.243  0.00  0.00    -0.015 A 
ATOM     29  C   UNL     1       7.024  -0.778  23.194  0.00  0.00    +0.047 C 
ENDBRANCH  18  22
ENDBRANCH   9  14
BRANCH  11   2
ATOM      2  O   UNL     1      -1.720   6.488  24.329  0.00  0.00    -0.390 OA
ATOM     31  H   UNL     1      -1.259   6.910  23.584  0.00  0.00    +0.210 HD
ENDBRANCH  11   2
BRANCH   5  13
ATOM     13  C   UNL     1      -1.760   2.314  26.596  0.00  0.00    +0.120 C 
BRANCH  13  15
ATOM     15  C   UNL     1      -2.475   1.242  25.816  0.00  0.00    -0.033 A 
ATOM     16  C   UNL     1      -1.946  -0.047  25.755  0.00  0.00    +0.007 A 
ATOM     17  C   UNL     1      -3.666   1.539  25.153  0.00  0.00    +0.007 A 
ATOM     19  C   UNL     1      -2.609  -1.040  25.034  0.00  0.00    +0.023 A 
ATOM     20  C   UNL     1      -4.329   0.547  24.431  0.00  0.00    +0.023 A 
ATOM     21  C   UNL     1      -3.800  -0.743  24.371  0.00  0.00    +0.033 A 
BRANCH  21   8
ATOM      4  O   UNL     1      -3.586  -3.742  24.527  0.00  0.00    -0.276 OA
ATOM      8  N   UNL     1      -4.462  -1.736  23.649  0.00  0.00    -0.286 N 
ATOM     28  C   UNL     1      -4.322  -3.126  23.762  0.00  0.00    +0.214 C 
ATOM     30  C   UNL     1      -5.220  -3.858  22.797  0.00  0.00    +0.109 C 
ATOM     32  H   UNL     1      -5.127  -1.400  22.956  0.00  0.00    +0.155 HD
ENDBRANCH  21   8
ENDBRANCH  13  15
ENDBRANCH   5  13
TORSDOF 6
ENDMDL
MODEL 9
REMARK VINA RESULT:       4.9      3.158      6.862
REMARK  Name = 26743806
REMARK  8 active torsions:
REMARK  status: ('A' for Active; 'I' for Inactive)
REMARK    1  A    between atoms: O_2  and  C_11
REMARK    2  A    between atoms: N_5  and  C_13
REMARK    3  A    between atoms: N_8  and  C_21
REMARK    4  A    between atoms: C_9  and  C_14
REMARK    5  A    between atoms: C_13  and  C_15
REMARK    6  A    between atoms: C_18  and  C_22
REMARK    7  A    between atoms: C_27  and  C_29
REMARK    8  A    between atoms: C_28  and  C_30
REMARK                            x       y       z     vdW  Elec       q    Type
REMARK                         _______ _______ _______ _____ _____    ______ ____
ROOT
ATOM      5  N   UNL     1       2.680   1.251  23.654  0.00  0.00    -0.285 NA
ATOM      9  C   UNL     1       2.254   0.069  22.878  0.00  0.00    +0.149 C 
ATOM     10  C   UNL     1       3.506  -0.827  22.807  0.00  0.00    +0.061 C 
ATOM     11  C   UNL     1       4.594  -0.042  23.529  0.00  0.00    +0.130 C 
ATOM     12  C   UNL     1       4.118   1.395  23.435  0.00  0.00    +0.116 C 
ENDROOT
BRANCH   9  14
ATOM      3  O   UNL     1       1.293  -1.303  24.657  0.00  0.00    -0.336 OA
ATOM      6  N   UNL     1      -0.172  -0.702  23.073  0.00  0.00    -0.190 NA
ATOM      7  N   UNL     1       0.065  -1.865  25.029  0.00  0.00    -0.056 NA
ATOM     14  C   UNL     1       1.065  -0.636  23.496  0.00  0.00    +0.245 A 
ATOM     18  C   UNL     1      -0.748  -1.467  24.046  0.00  0.00    +0.202 A 
BRANCH  18  22
ATOM      1  F   UNL     1      -5.388  -0.185  24.120  0.00  0.00    -0.205 F 
ATOM     22  C   UNL     1      -2.139  -1.814  24.007  0.00  0.00    +0.025 A 
ATOM     23  C   UNL     1      -3.109  -0.815  24.084  0.00  0.00    +0.050 A 
ATOM     24  C   UNL     1      -2.521  -3.150  23.891  0.00  0.00    +0.012 A 
ATOM     25  C   UNL     1      -4.462  -1.152  24.045  0.00  0.00    +0.127 A 
ATOM     26  C   UNL     1      -3.875  -3.487  23.854  0.00  0.00    +0.007 A 
ATOM     27  C   UNL     1      -4.844  -2.488  23.930  0.00  0.00    -0.015 A 
ATOM     29  C   UNL     1      -6.290  -2.852  23.889  0.00  0.00    +0.047 C 
ENDBRANCH  18  22
ENDBRANCH   9  14
BRANCH  11   2
ATOM      2  O   UNL     1       5.846  -0.223  22.899  0.00  0.00    -0.390 OA
ATOM     31  H   UNL     1       5.979  -1.180  22.783  0.00  0.00    +0.210 HD
ENDBRANCH  11   2
BRANCH   5  13
ATOM     13  C   UNL     1       1.949   2.462  23.305  0.00  0.00    +0.120 C 
BRANCH  13  15
ATOM     15  C   UNL     1       0.581   2.492  23.934  0.00  0.00    -0.033 A 
ATOM     16  C   UNL     1       0.443   2.317  25.310  0.00  0.00    +0.007 A 
ATOM     17  C   UNL     1      -0.548   2.695  23.139  0.00  0.00    +0.007 A 
ATOM     19  C   UNL     1      -0.824   2.347  25.894  0.00  0.00    +0.023 A 
ATOM     20  C   UNL     1      -1.815   2.725  23.721  0.00  0.00    +0.023 A 
ATOM     21  C   UNL     1      -1.953   2.550  25.099  0.00  0.00    +0.033 A 
BRANCH  21   8
ATOM      4  O   UNL     1      -4.676   2.827  23.844  0.00  0.00    -0.276 OA
ATOM      8  N   UNL     1      -3.220   2.579  25.682  0.00  0.00    -0.286 N 
ATOM     28  C   UNL     1      -4.462   2.713  25.046  0.00  0.00    +0.214 C 
ATOM     30  C   UNL     1      -5.600   2.698  26.036  0.00  0.00    +0.109 C 
ATOM     32  H   UNL     1      -3.234   2.492  26.696  0.00  0.00    +0.155 HD
ENDBRANCH  21   8
ENDBRANCH  13  15
ENDBRANCH   5  13
TORSDOF 6
ENDMDL
