MODEL 1
REMARK VINA RESULT:       1.5      0.000      0.000
REMARK  Name = 11912417
REMARK  11 active torsions:
REMARK  status: ('A' for Active; 'I' for Inactive)
REMARK    1  A    between atoms: O_3  and  C_26
REMARK    2  A    between atoms: O_3  and  C_28
REMARK    3  A    between atoms: N_6  and  C_18
REMARK    4  A    between atoms: N_7  and  C_19
REMARK    5  A    between atoms: C_8  and  C_14
REMARK    6  A    between atoms: C_9  and  C_13
REMARK    7  A    between atoms: C_13  and  C_15
REMARK    8  A    between atoms: C_14  and  C_17
REMARK    9  A    between atoms: C_19  and  C_23
REMARK   10  A    between atoms: C_22  and  C_26
REMARK   11  A    between atoms: C_28  and  C_29
REMARK                            x       y       z     vdW  Elec       q    Type
REMARK                         _______ _______ _______ _____ _____    ______ ____
ROOT
ATOM      1  O   UNL     1      -0.486  -0.111  25.433  0.00  0.00    -0.252 OA
ATOM      5  N   UNL     1      -2.599  -0.035  24.497  0.00  0.00    -0.285 N 
ATOM      6  N   UNL     1      -0.696   0.454  23.193  0.00  0.00    -0.269 N 
ATOM      8  C   UNL     1      -5.267   0.953  25.028  0.00  0.00    +0.004 C 
ATOM      9  C   UNL     1      -4.552   1.257  23.684  0.00  0.00    +0.010 C 
ATOM     10  C   UNL     1      -4.263   0.678  26.161  0.00  0.00    +0.023 C 
ATOM     11  C   UNL     1      -3.537   0.144  23.379  0.00  0.00    +0.113 C 
ATOM     12  C   UNL     1      -3.245  -0.390  25.762  0.00  0.00    +0.109 C 
ATOM     16  C   UNL     1      -1.194   0.081  24.440  0.00  0.00    +0.306 C 
ATOM     30  H   UNL     1      -1.300   0.956  22.561  0.00  0.00    +0.156 HD
ENDROOT
BRANCH   6  18
ATOM     18  C   UNL     1       0.596   0.198  22.671  0.00  0.00    +0.036 A 
ATOM     20  C   UNL     1       1.713   0.770  23.274  0.00  0.00    +0.038 A 
ATOM     21  C   UNL     1       0.742  -0.626  21.558  0.00  0.00    +0.023 A 
ATOM     22  C   UNL     1       2.984   0.517  22.760  0.00  0.00    +0.061 A 
ATOM     24  C   UNL     1       2.013  -0.879  21.044  0.00  0.00    +0.003 A 
ATOM     25  C   UNL     1       3.134  -0.308  21.645  0.00  0.00    +0.015 A 
BRANCH  22  26
ATOM      4  O   UNL     1       4.684   2.170  23.016  0.00  0.00    -0.245 OA
ATOM     26  C   UNL     1       4.154   1.113  23.385  0.00  0.00    +0.339 C 
BRANCH  26   3
ATOM      3  O   UNL     1       4.601   0.360  24.437  0.00  0.00    -0.461 OA
BRANCH   3  28
ATOM     28  C   UNL     1       5.328  -0.831  24.117  0.00  0.00    +0.229 C 
ATOM     29  C   UNL     1       6.488  -0.474  23.214  0.00  0.00    +0.048 C 
ENDBRANCH   3  28
ENDBRANCH  26   3
ENDBRANCH  22  26
ENDBRANCH   6  18
BRANCH   9  13
ATOM     13  C   UNL     1      -3.873   2.632  23.636  0.00  0.00    +0.002 C 
ATOM     15  C   UNL     1      -2.995   2.765  22.410  0.00  0.00    +0.004 C 
ENDBRANCH   9  13
BRANCH   8  14
ATOM     14  C   UNL     1      -6.260   2.040  25.439  0.00  0.00    +0.099 C 
BRANCH  14  17
ATOM      2  O   UNL     1      -6.133   4.443  25.691  0.00  0.00    -0.276 OA
ATOM      7  N   UNL     1      -4.252   3.147  26.125  0.00  0.00    -0.304 N 
ATOM     17  C   UNL     1      -5.575   3.351  25.757  0.00  0.00    +0.214 C 
ATOM     31  H   UNL     1      -3.876   2.204  26.142  0.00  0.00    +0.150 HD
BRANCH   7  19
ATOM     19  C   UNL     1      -3.357   4.225  26.480  0.00  0.00    +0.193 C 
BRANCH  19  23
ATOM     23  C   UNL     1      -2.045   4.047  25.859  0.00  0.00    -0.087 C 
ATOM     27  C   UNL     1      -0.967   3.900  25.352  0.00  0.00    +0.005 C 
ENDBRANCH  19  23
ENDBRANCH   7  19
ENDBRANCH  14  17
ENDBRANCH   8  14
TORSDOF 9
ENDMDL
MODEL 2
REMARK VINA RESULT:       2.4      1.065      1.318
REMARK  Name = 11912417
REMARK  11 active torsions:
REMARK  status: ('A' for Active; 'I' for Inactive)
REMARK    1  A    between atoms: O_3  and  C_26
REMARK    2  A    between atoms: O_3  and  C_28
REMARK    3  A    between atoms: N_6  and  C_18
REMARK    4  A    between atoms: N_7  and  C_19
REMARK    5  A    between atoms: C_8  and  C_14
REMARK    6  A    between atoms: C_9  and  C_13
REMARK    7  A    between atoms: C_13  and  C_15
REMARK    8  A    between atoms: C_14  and  C_17
REMARK    9  A    between atoms: C_19  and  C_23
REMARK   10  A    between atoms: C_22  and  C_26
REMARK   11  A    between atoms: C_28  and  C_29
REMARK                            x       y       z     vdW  Elec       q    Type
REMARK                         _______ _______ _______ _____ _____    ______ ____
ROOT
ATOM      1  O   UNL     1      -0.138  -0.486  25.409  0.00  0.00    -0.252 OA
ATOM      5  N   UNL     1      -2.194  -0.538  24.354  0.00  0.00    -0.285 N 
ATOM      6  N   UNL     1      -0.252   0.064  23.159  0.00  0.00    -0.269 N 
ATOM      8  C   UNL     1      -4.942   0.287  24.726  0.00  0.00    +0.004 C 
ATOM      9  C   UNL     1      -4.172   0.633  23.425  0.00  0.00    +0.010 C 
ATOM     10  C   UNL     1      -3.990   0.074  25.916  0.00  0.00    +0.023 C 
ATOM     11  C   UNL     1      -3.075  -0.417  23.183  0.00  0.00    +0.113 C 
ATOM     12  C   UNL     1      -2.889  -0.931  25.581  0.00  0.00    +0.109 C 
ATOM     16  C   UNL     1      -0.797  -0.338  24.376  0.00  0.00    +0.306 C 
ATOM     30  H   UNL     1      -0.848   0.528  22.491  0.00  0.00    +0.156 HD
ENDROOT
BRANCH   6  18
ATOM     18  C   UNL     1       1.081  -0.114  22.713  0.00  0.00    +0.036 A 
ATOM     20  C   UNL     1       2.077  -0.453  23.625  0.00  0.00    +0.038 A 
ATOM     21  C   UNL     1       1.387   0.052  21.365  0.00  0.00    +0.023 A 
ATOM     22  C   UNL     1       3.389  -0.628  23.185  0.00  0.00    +0.061 A 
ATOM     24  C   UNL     1       2.699  -0.124  20.925  0.00  0.00    +0.003 A 
ATOM     25  C   UNL     1       3.700  -0.464  21.835  0.00  0.00    +0.015 A 
BRANCH  22  26
ATOM      4  O   UNL     1       4.767  -2.142  24.407  0.00  0.00    -0.245 OA
ATOM     26  C   UNL     1       4.433  -0.981  24.133  0.00  0.00    +0.339 C 
BRANCH  26   3
ATOM      3  O   UNL     1       5.005   0.130  24.689  0.00  0.00    -0.461 OA
BRANCH   3  28
ATOM     28  C   UNL     1       5.984   0.818  23.901  0.00  0.00    +0.229 C 
ATOM     29  C   UNL     1       6.916  -0.197  23.276  0.00  0.00    +0.048 C 
ENDBRANCH   3  28
ENDBRANCH  26   3
ENDBRANCH  22  26
ENDBRANCH   6  18
BRANCH   9  13
ATOM     13  C   UNL     1      -3.574   2.046  23.410  0.00  0.00    +0.002 C 
ATOM     15  C   UNL     1      -2.734   2.272  22.171  0.00  0.00    +0.004 C 
ENDBRANCH   9  13
BRANCH   8  14
ATOM     14  C   UNL     1      -6.022   1.312  25.076  0.00  0.00    +0.099 C 
BRANCH  14  17
ATOM      2  O   UNL     1      -6.024   2.475  27.197  0.00  0.00    -0.276 OA
ATOM      7  N   UNL     1      -4.482   3.078  25.565  0.00  0.00    -0.304 N 
ATOM     17  C   UNL     1      -5.535   2.335  26.079  0.00  0.00    +0.214 C 
ATOM     31  H   UNL     1      -4.151   2.893  24.623  0.00  0.00    +0.150 HD
BRANCH   7  19
ATOM     19  C   UNL     1      -3.822   4.129  26.306  0.00  0.00    +0.193 C 
BRANCH  19  23
ATOM     23  C   UNL     1      -2.526   4.458  25.714  0.00  0.00    -0.087 C 
ATOM     27  C   UNL     1      -1.460   4.727  25.232  0.00  0.00    +0.005 C 
ENDBRANCH  19  23
ENDBRANCH   7  19
ENDBRANCH  14  17
ENDBRANCH   8  14
TORSDOF 9
ENDMDL
MODEL 3
REMARK VINA RESULT:       4.1      1.759      2.620
REMARK  Name = 11912417
REMARK  11 active torsions:
REMARK  status: ('A' for Active; 'I' for Inactive)
REMARK    1  A    between atoms: O_3  and  C_26
REMARK    2  A    between atoms: O_3  and  C_28
REMARK    3  A    between atoms: N_6  and  C_18
REMARK    4  A    between atoms: N_7  and  C_19
REMARK    5  A    between atoms: C_8  and  C_14
REMARK    6  A    between atoms: C_9  and  C_13
REMARK    7  A    between atoms: C_13  and  C_15
REMARK    8  A    between atoms: C_14  and  C_17
REMARK    9  A    between atoms: C_19  and  C_23
REMARK   10  A    between atoms: C_22  and  C_26
REMARK   11  A    between atoms: C_28  and  C_29
REMARK                            x       y       z     vdW  Elec       q    Type
REMARK                         _______ _______ _______ _____ _____    ______ ____
ROOT
ATOM      1  O   UNL     1       0.370   2.380  23.806  0.00  0.00    -0.252 OA
ATOM      5  N   UNL     1      -0.847   0.884  25.082  0.00  0.00    -0.285 N 
ATOM      6  N   UNL     1       0.762   0.109  23.540  0.00  0.00    -0.269 N 
ATOM      8  C   UNL     1      -3.550   0.345  25.960  0.00  0.00    +0.004 C 
ATOM      9  C   UNL     1      -2.685  -0.764  25.305  0.00  0.00    +0.010 C 
ATOM     10  C   UNL     1      -3.103   1.752  25.527  0.00  0.00    +0.023 C 
ATOM     11  C   UNL     1      -1.196  -0.466  25.549  0.00  0.00    +0.113 C 
ATOM     12  C   UNL     1      -1.603   1.953  25.736  0.00  0.00    +0.109 C 
ATOM     16  C   UNL     1       0.131   1.210  24.117  0.00  0.00    +0.306 C 
ATOM     30  H   UNL     1       0.282  -0.778  23.538  0.00  0.00    +0.156 HD
ENDROOT
BRANCH   6  18
ATOM     18  C   UNL     1       2.048   0.069  22.946  0.00  0.00    +0.036 A 
ATOM     20  C   UNL     1       3.179  -0.042  23.750  0.00  0.00    +0.038 A 
ATOM     21  C   UNL     1       2.172   0.140  21.562  0.00  0.00    +0.023 A 
ATOM     22  C   UNL     1       4.444  -0.081  23.164  0.00  0.00    +0.061 A 
ATOM     24  C   UNL     1       3.437   0.100  20.976  0.00  0.00    +0.003 A 
ATOM     25  C   UNL     1       4.573  -0.011  21.777  0.00  0.00    +0.015 A 
BRANCH  22  26
ATOM      4  O   UNL     1       5.639  -0.680  25.139  0.00  0.00    -0.245 OA
ATOM     26  C   UNL     1       5.629  -0.196  23.999  0.00  0.00    +0.339 C 
BRANCH  26   3
ATOM      3  O   UNL     1       6.738   0.299  23.370  0.00  0.00    -0.461 OA
BRANCH   3  28
ATOM     28  C   UNL     1       7.765  -0.641  23.031  0.00  0.00    +0.229 C 
ATOM     29  C   UNL     1       9.108   0.054  23.089  0.00  0.00    +0.048 C 
ENDBRANCH   3  28
ENDBRANCH  26   3
ENDBRANCH  22  26
ENDBRANCH   6  18
BRANCH   9  13
ATOM     13  C   UNL     1      -2.955  -0.962  23.808  0.00  0.00    +0.002 C 
ATOM     15  C   UNL     1      -4.016  -2.017  23.578  0.00  0.00    +0.004 C 
ENDBRANCH   9  13
BRANCH   8  14
ATOM     14  C   UNL     1      -5.049   0.158  25.721  0.00  0.00    +0.099 C 
BRANCH  14  17
ATOM      2  O   UNL     1      -6.527   1.437  24.295  0.00  0.00    -0.276 OA
ATOM      7  N   UNL     1      -5.265   2.534  25.911  0.00  0.00    -0.304 N 
ATOM     17  C   UNL     1      -5.709   1.421  25.211  0.00  0.00    +0.214 C 
ATOM     31  H   UNL     1      -4.578   2.421  26.650  0.00  0.00    +0.150 HD
BRANCH   7  19
ATOM     19  C   UNL     1      -5.726   3.875  25.633  0.00  0.00    +0.193 C 
BRANCH  19  23
ATOM     23  C   UNL     1      -4.841   4.553  24.686  0.00  0.00    -0.087 C 
ATOM     27  C   UNL     1      -4.114   5.111  23.911  0.00  0.00    +0.005 C 
ENDBRANCH  19  23
ENDBRANCH   7  19
ENDBRANCH  14  17
ENDBRANCH   8  14
TORSDOF 9
ENDMDL
MODEL 4
REMARK VINA RESULT:       4.5      1.792      3.290
REMARK  Name = 11912417
REMARK  11 active torsions:
REMARK  status: ('A' for Active; 'I' for Inactive)
REMARK    1  A    between atoms: O_3  and  C_26
REMARK    2  A    between atoms: O_3  and  C_28
REMARK    3  A    between atoms: N_6  and  C_18
REMARK    4  A    between atoms: N_7  and  C_19
REMARK    5  A    between atoms: C_8  and  C_14
REMARK    6  A    between atoms: C_9  and  C_13
REMARK    7  A    between atoms: C_13  and  C_15
REMARK    8  A    between atoms: C_14  and  C_17
REMARK    9  A    between atoms: C_19  and  C_23
REMARK   10  A    between atoms: C_22  and  C_26
REMARK   11  A    between atoms: C_28  and  C_29
REMARK                            x       y       z     vdW  Elec       q    Type
REMARK                         _______ _______ _______ _____ _____    ______ ____
ROOT
ATOM      1  O   UNL     1       0.479   3.813  22.886  0.00  0.00    -0.252 OA
ATOM      5  N   UNL     1      -0.433   3.604  25.000  0.00  0.00    -0.285 N 
ATOM      6  N   UNL     1       0.562   1.748  23.939  0.00  0.00    -0.269 N 
ATOM      8  C   UNL     1      -2.789   4.318  26.522  0.00  0.00    +0.004 C 
ATOM      9  C   UNL     1      -2.265   2.857  26.495  0.00  0.00    +0.010 C 
ATOM     10  C   UNL     1      -2.363   5.102  25.268  0.00  0.00    +0.023 C 
ATOM     11  C   UNL     1      -0.750   2.860  26.228  0.00  0.00    +0.113 C 
ATOM     12  C   UNL     1      -0.857   5.004  25.029  0.00  0.00    +0.109 C 
ATOM     16  C   UNL     1       0.237   3.100  23.864  0.00  0.00    +0.306 C 
ATOM     30  H   UNL     1       0.024   1.153  24.550  0.00  0.00    +0.156 HD
ENDROOT
BRANCH   6  18
ATOM     18  C   UNL     1       1.603   1.075  23.251  0.00  0.00    +0.036 A 
ATOM     20  C   UNL     1       2.922   1.235  23.663  0.00  0.00    +0.038 A 
ATOM     21  C   UNL     1       1.298   0.256  22.167  0.00  0.00    +0.023 A 
ATOM     22  C   UNL     1       3.946   0.572  22.986  0.00  0.00    +0.061 A 
ATOM     24  C   UNL     1       2.321  -0.408  21.490  0.00  0.00    +0.003 A 
ATOM     25  C   UNL     1       3.645  -0.249  21.899  0.00  0.00    +0.015 A 
BRANCH  22  26
ATOM      4  O   UNL     1       5.805   1.795  23.842  0.00  0.00    -0.245 OA
ATOM     26  C   UNL     1       5.326   0.737  23.412  0.00  0.00    +0.339 C 
BRANCH  26   3
ATOM      3  O   UNL     1       6.036  -0.426  23.278  0.00  0.00    -0.461 OA
BRANCH   3  28
ATOM     28  C   UNL     1       5.889  -1.398  24.319  0.00  0.00    +0.229 C 
ATOM     29  C   UNL     1       4.688  -2.268  24.015  0.00  0.00    +0.048 C 
ENDBRANCH   3  28
ENDBRANCH  26   3
ENDBRANCH  22  26
ENDBRANCH   6  18
BRANCH   9  13
ATOM     13  C   UNL     1      -2.986   1.954  25.486  0.00  0.00    +0.002 C 
ATOM     15  C   UNL     1      -2.257   0.640  25.310  0.00  0.00    +0.004 C 
ENDBRANCH   9  13
BRANCH   8  14
ATOM     14  C   UNL     1      -4.301   4.410  26.728  0.00  0.00    +0.099 C 
BRANCH  14  17
ATOM      2  O   UNL     1      -5.040   4.055  24.453  0.00  0.00    -0.276 OA
ATOM      7  N   UNL     1      -5.806   2.646  26.136  0.00  0.00    -0.304 N 
ATOM     17  C   UNL     1      -5.072   3.710  25.631  0.00  0.00    +0.214 C 
ATOM     31  H   UNL     1      -5.775   2.443  27.131  0.00  0.00    +0.150 HD
BRANCH   7  19
ATOM     19  C   UNL     1      -6.640   1.801  25.312  0.00  0.00    +0.193 C 
BRANCH  19  23
ATOM     23  C   UNL     1      -5.875   0.684  24.758  0.00  0.00    -0.087 C 
ATOM     27  C   UNL     1      -5.250  -0.233  24.301  0.00  0.00    +0.005 C 
ENDBRANCH  19  23
ENDBRANCH   7  19
ENDBRANCH  14  17
ENDBRANCH   8  14
TORSDOF 9
ENDMDL
MODEL 5
REMARK VINA RESULT:       5.2      2.117      8.607
REMARK  Name = 11912417
REMARK  11 active torsions:
REMARK  status: ('A' for Active; 'I' for Inactive)
REMARK    1  A    between atoms: O_3  and  C_26
REMARK    2  A    between atoms: O_3  and  C_28
REMARK    3  A    between atoms: N_6  and  C_18
REMARK    4  A    between atoms: N_7  and  C_19
REMARK    5  A    between atoms: C_8  and  C_14
REMARK    6  A    between atoms: C_9  and  C_13
REMARK    7  A    between atoms: C_13  and  C_15
REMARK    8  A    between atoms: C_14  and  C_17
REMARK    9  A    between atoms: C_19  and  C_23
REMARK   10  A    between atoms: C_22  and  C_26
REMARK   11  A    between atoms: C_28  and  C_29
REMARK                            x       y       z     vdW  Elec       q    Type
REMARK                         _______ _______ _______ _____ _____    ______ ____
ROOT
ATOM      1  O   UNL     1      -0.426   2.506  24.589  0.00  0.00    -0.252 OA
ATOM      5  N   UNL     1       0.582   0.877  23.294  0.00  0.00    -0.285 N 
ATOM      6  N   UNL     1      -1.545   0.504  24.243  0.00  0.00    -0.269 N 
ATOM      8  C   UNL     1       3.128  -0.444  22.910  0.00  0.00    +0.004 C 
ATOM      9  C   UNL     1       1.822  -1.261  23.098  0.00  0.00    +0.010 C 
ATOM     10  C   UNL     1       3.026   0.954  23.547  0.00  0.00    +0.023 C 
ATOM     11  C   UNL     1       0.621  -0.428  22.618  0.00  0.00    +0.113 C 
ATOM     12  C   UNL     1       1.776   1.695  23.075  0.00  0.00    +0.109 C 
ATOM     16  C   UNL     1      -0.477   1.383  24.078  0.00  0.00    +0.306 C 
ATOM     30  H   UNL     1      -1.376  -0.486  24.146  0.00  0.00    +0.156 HD
ENDROOT
BRANCH   6  18
ATOM     18  C   UNL     1      -2.894   0.832  24.526  0.00  0.00    +0.036 A 
ATOM     20  C   UNL     1      -3.248   2.157  24.766  0.00  0.00    +0.038 A 
ATOM     21  C   UNL     1      -3.857  -0.172  24.562  0.00  0.00    +0.023 A 
ATOM     22  C   UNL     1      -4.577   2.479  25.044  0.00  0.00    +0.061 A 
ATOM     24  C   UNL     1      -5.186   0.150  24.839  0.00  0.00    +0.003 A 
ATOM     25  C   UNL     1      -5.545   1.476  25.080  0.00  0.00    +0.015 A 
BRANCH  22  26
ATOM      4  O   UNL     1      -6.042   4.216  25.767  0.00  0.00    -0.245 OA
ATOM     26  C   UNL     1      -4.952   3.861  25.297  0.00  0.00    +0.339 C 
BRANCH  26   3
ATOM      3  O   UNL     1      -3.951   4.726  24.949  0.00  0.00    -0.461 OA
BRANCH   3  28
ATOM     28  C   UNL     1      -2.894   4.908  25.897  0.00  0.00    +0.229 C 
ATOM     29  C   UNL     1      -1.646   5.353  25.166  0.00  0.00    +0.048 C 
ENDBRANCH   3  28
ENDBRANCH  26   3
ENDBRANCH  22  26
ENDBRANCH   6  18
BRANCH   9  13
ATOM     13  C   UNL     1       1.595  -1.752  24.534  0.00  0.00    +0.002 C 
ATOM     15  C   UNL     1       0.139  -2.092  24.771  0.00  0.00    +0.004 C 
ENDBRANCH   9  13
BRANCH   8  14
ATOM     14  C   UNL     1       4.372  -1.176  23.413  0.00  0.00    +0.099 C 
BRANCH  14  17
ATOM      2  O   UNL     1       5.193   0.398  25.057  0.00  0.00    -0.276 OA
ATOM      7  N   UNL     1       6.541  -0.176  23.251  0.00  0.00    -0.304 N 
ATOM     17  C   UNL     1       5.386  -0.231  24.020  0.00  0.00    +0.214 C 
ATOM     31  H   UNL     1       6.604  -0.729  22.402  0.00  0.00    +0.150 HD
BRANCH   7  19
ATOM     19  C   UNL     1       7.677   0.650  23.593  0.00  0.00    +0.193 C 
BRANCH  19  23
ATOM     23  C   UNL     1       8.926   0.046  23.129  0.00  0.00    -0.087 C 
ATOM     27  C   UNL     1       9.953  -0.446  22.749  0.00  0.00    +0.005 C 
ENDBRANCH  19  23
ENDBRANCH   7  19
ENDBRANCH  14  17
ENDBRANCH   8  14
TORSDOF 9
ENDMDL
