MODEL 1
REMARK VINA RESULT:       2.9      0.000      0.000
REMARK  Name = 26742472
REMARK  13 active torsions:
REMARK  status: ('A' for Active; 'I' for Inactive)
REMARK    1  A    between atoms: N_3  and  C_14
REMARK    2  A    between atoms: N_6  and  C_31
REMARK    3  A    between atoms: N_6  and  C_32
REMARK    4  A    between atoms: N_6  and  C_33
REMARK    5  A    between atoms: C_8  and  C_15
REMARK    6  A    between atoms: C_9  and  C_14
REMARK    7  A    between atoms: C_17  and  C_20
REMARK    8  A    between atoms: C_18  and  C_21
REMARK    9  A    between atoms: C_19  and  C_24
REMARK   10  A    between atoms: C_20  and  C_22
REMARK   11  A    between atoms: C_20  and  C_23
REMARK   12  A    between atoms: C_22  and  C_25
REMARK   13  A    between atoms: C_23  and  C_26
REMARK                            x       y       z     vdW  Elec       q    Type
REMARK                         _______ _______ _______ _____ _____    ______ ____
ROOT
ATOM      2  N   UNL     1      -4.675   3.104  25.686  0.00  0.00    -0.297 NA
ATOM      7  C   UNL     1      -5.797   0.795  25.243  0.00  0.00    +0.002 C 
ATOM      8  C   UNL     1      -4.373   0.603  25.835  0.00  0.00    +0.055 C 
ATOM      9  C   UNL     1      -5.221   3.061  24.305  0.00  0.00    +0.074 C 
ATOM     10  C   UNL     1      -5.704   1.637  23.953  0.00  0.00    +0.024 C 
ATOM     11  C   UNL     1      -6.598   1.625  26.270  0.00  0.00    +0.019 C 
ATOM     12  C   UNL     1      -3.698   2.004  25.881  0.00  0.00    +0.094 C 
ATOM     13  C   UNL     1      -5.802   2.892  26.627  0.00  0.00    +0.085 C 
ENDROOT
BRANCH   8  15
ATOM      4  N   UNL     1      -4.030  -1.653  24.956  0.00  0.00    -0.237 NA
ATOM      5  N   UNL     1      -1.903  -2.385  24.092  0.00  0.00    -0.232 NA
ATOM     15  C   UNL     1      -3.471  -0.452  25.209  0.00  0.00    +0.050 A 
ATOM     16  C   UNL     1      -2.154  -0.145  24.937  0.00  0.00    +0.052 A 
ATOM     18  C   UNL     1      -1.409  -1.160  24.372  0.00  0.00    +0.075 A 
ATOM     19  C   UNL     1      -3.200  -2.560  24.405  0.00  0.00    +0.127 A 
ATOM     24  C   UNL     1      -3.781  -3.902  24.111  0.00  0.00    +0.088 C 
BRANCH  18  21
ATOM     21  C   UNL     1      -0.018  -0.969  24.040  0.00  0.00    +0.001 A 
ATOM     27  C   UNL     1       0.347  -0.026  23.079  0.00  0.00    +0.012 A 
ATOM     28  C   UNL     1       0.964  -1.725  24.682  0.00  0.00    +0.012 A 
ATOM     29  C   UNL     1       1.691   0.160  22.758  0.00  0.00    +0.024 A 
ATOM     30  C   UNL     1       2.308  -1.539  24.361  0.00  0.00    +0.024 A 
ATOM     31  C   UNL     1       2.672  -0.597  23.399  0.00  0.00    +0.029 A 
BRANCH  31   6
ATOM      6  N   UNL     1       4.032  -0.410  23.075  0.00  0.00    -0.336 N 
ATOM     32  C   UNL     1       4.421   0.576  22.086  0.00  0.00    +0.129 C 
ATOM     33  C   UNL     1       5.058  -1.195  23.732  0.00  0.00    +0.129 C 
ENDBRANCH  31   6
ENDBRANCH  18  21
ENDBRANCH   8  15
BRANCH   9  14
ATOM     14  C   UNL     1      -4.231   3.599  23.270  0.00  0.00    +0.123 C 
BRANCH  14   3
ATOM      1  O   UNL     1      -1.799   2.139  22.811  0.00  0.00    -0.276 OA
ATOM      3  N   UNL     1      -2.955   3.852  23.866  0.00  0.00    -0.314 N 
ATOM     17  C   UNL     1      -1.820   3.092  23.587  0.00  0.00    +0.216 C 
ATOM     34  H   UNL     1      -2.892   4.623  24.523  0.00  0.00    +0.149 HD
BRANCH  17  20
ATOM     20  C   UNL     1      -0.584   3.555  24.367  0.00  0.00    +0.074 C 
BRANCH  20  22
ATOM     22  C   UNL     1       0.148   2.384  25.045  0.00  0.00    +0.009 C 
ATOM     25  C   UNL     1       0.011   2.413  26.564  0.00  0.00    +0.004 C 
ENDBRANCH  20  22
BRANCH  20  23
ATOM     23  C   UNL     1      -0.975   4.654  25.377  0.00  0.00    +0.009 C 
ATOM     26  C   UNL     1      -1.006   6.065  24.803  0.00  0.00    +0.004 C 
ENDBRANCH  20  23
ENDBRANCH  17  20
ENDBRANCH  14   3
ENDBRANCH   9  14
TORSDOF 8
ENDMDL
MODEL 2
REMARK VINA RESULT:       4.3      0.993      1.804
REMARK  Name = 26742472
REMARK  13 active torsions:
REMARK  status: ('A' for Active; 'I' for Inactive)
REMARK    1  A    between atoms: N_3  and  C_14
REMARK    2  A    between atoms: N_6  and  C_31
REMARK    3  A    between atoms: N_6  and  C_32
REMARK    4  A    between atoms: N_6  and  C_33
REMARK    5  A    between atoms: C_8  and  C_15
REMARK    6  A    between atoms: C_9  and  C_14
REMARK    7  A    between atoms: C_17  and  C_20
REMARK    8  A    between atoms: C_18  and  C_21
REMARK    9  A    between atoms: C_19  and  C_24
REMARK   10  A    between atoms: C_20  and  C_22
REMARK   11  A    between atoms: C_20  and  C_23
REMARK   12  A    between atoms: C_22  and  C_25
REMARK   13  A    between atoms: C_23  and  C_26
REMARK                            x       y       z     vdW  Elec       q    Type
REMARK                         _______ _______ _______ _____ _____    ______ ____
ROOT
ATOM      2  N   UNL     1      -4.620   3.311  25.864  0.00  0.00    -0.297 NA
ATOM      7  C   UNL     1      -5.811   1.167  24.989  0.00  0.00    +0.002 C 
ATOM      8  C   UNL     1      -4.503   0.794  25.740  0.00  0.00    +0.055 C 
ATOM      9  C   UNL     1      -4.962   3.471  24.427  0.00  0.00    +0.074 C 
ATOM     10  C   UNL     1      -5.479   2.141  23.838  0.00  0.00    +0.024 C 
ATOM     11  C   UNL     1      -6.697   1.936  25.992  0.00  0.00    +0.019 C 
ATOM     12  C   UNL     1      -3.753   2.121  26.051  0.00  0.00    +0.094 C 
ATOM     13  C   UNL     1      -5.882   3.085  26.609  0.00  0.00    +0.085 C 
ENDROOT
BRANCH   8  15
ATOM      4  N   UNL     1      -4.141  -1.452  24.843  0.00  0.00    -0.237 NA
ATOM      5  N   UNL     1      -2.000  -2.169  24.001  0.00  0.00    -0.232 NA
ATOM     15  C   UNL     1      -3.589  -0.252  25.116  0.00  0.00    +0.050 A 
ATOM     16  C   UNL     1      -2.270   0.061  24.865  0.00  0.00    +0.052 A 
ATOM     18  C   UNL     1      -1.513  -0.946  24.300  0.00  0.00    +0.075 A 
ATOM     19  C   UNL     1      -3.301  -2.351  24.294  0.00  0.00    +0.127 A 
ATOM     24  C   UNL     1      -3.874  -3.691  23.978  0.00  0.00    +0.088 C 
BRANCH  18  21
ATOM     21  C   UNL     1      -0.119  -0.747  23.989  0.00  0.00    +0.001 A 
ATOM     27  C   UNL     1       0.847  -1.587  24.543  0.00  0.00    +0.012 A 
ATOM     28  C   UNL     1       0.265   0.284  23.131  0.00  0.00    +0.012 A 
ATOM     29  C   UNL     1       2.195  -1.396  24.242  0.00  0.00    +0.024 A 
ATOM     30  C   UNL     1       1.613   0.476  22.830  0.00  0.00    +0.024 A 
ATOM     31  C   UNL     1       2.578  -0.364  23.386  0.00  0.00    +0.029 A 
BRANCH  31   6
ATOM      6  N   UNL     1       3.941  -0.169  23.081  0.00  0.00    -0.336 N 
ATOM     32  C   UNL     1       4.956  -1.007  23.690  0.00  0.00    +0.129 C 
ATOM     33  C   UNL     1       4.346   0.865  22.150  0.00  0.00    +0.129 C 
ENDBRANCH  31   6
ENDBRANCH  18  21
ENDBRANCH   8  15
BRANCH   9  14
ATOM     14  C   UNL     1      -3.801   4.042  23.611  0.00  0.00    +0.123 C 
BRANCH  14   3
ATOM      1  O   UNL     1      -2.066   5.637  25.257  0.00  0.00    -0.276 OA
ATOM      3  N   UNL     1      -2.543   3.646  24.166  0.00  0.00    -0.314 N 
ATOM     17  C   UNL     1      -1.760   4.485  24.958  0.00  0.00    +0.216 C 
ATOM     34  H   UNL     1      -2.219   2.706  23.961  0.00  0.00    +0.149 HD
BRANCH  17  20
ATOM     20  C   UNL     1      -0.452   3.828  25.413  0.00  0.00    +0.074 C 
BRANCH  20  22
ATOM     22  C   UNL     1       0.409   3.362  24.226  0.00  0.00    +0.009 C 
ATOM     25  C   UNL     1       0.423   4.374  23.086  0.00  0.00    +0.004 C 
ENDBRANCH  20  22
BRANCH  20  23
ATOM     23  C   UNL     1      -0.750   2.679  26.397  0.00  0.00    +0.009 C 
ATOM     26  C   UNL     1       0.416   2.293  27.299  0.00  0.00    +0.004 C 
ENDBRANCH  20  23
ENDBRANCH  17  20
ENDBRANCH  14   3
ENDBRANCH   9  14
TORSDOF 8
ENDMDL
MODEL 3
REMARK VINA RESULT:       5.5      1.375      2.121
REMARK  Name = 26742472
REMARK  13 active torsions:
REMARK  status: ('A' for Active; 'I' for Inactive)
REMARK    1  A    between atoms: N_3  and  C_14
REMARK    2  A    between atoms: N_6  and  C_31
REMARK    3  A    between atoms: N_6  and  C_32
REMARK    4  A    between atoms: N_6  and  C_33
REMARK    5  A    between atoms: C_8  and  C_15
REMARK    6  A    between atoms: C_9  and  C_14
REMARK    7  A    between atoms: C_17  and  C_20
REMARK    8  A    between atoms: C_18  and  C_21
REMARK    9  A    between atoms: C_19  and  C_24
REMARK   10  A    between atoms: C_20  and  C_22
REMARK   11  A    between atoms: C_20  and  C_23
REMARK   12  A    between atoms: C_22  and  C_25
REMARK   13  A    between atoms: C_23  and  C_26
REMARK                            x       y       z     vdW  Elec       q    Type
REMARK                         _______ _______ _______ _____ _____    ______ ____
ROOT
ATOM      2  N   UNL     1      -5.655   2.400  26.499  0.00  0.00    -0.297 NA
ATOM      7  C   UNL     1      -5.354   1.711  24.006  0.00  0.00    +0.002 C 
ATOM      8  C   UNL     1      -5.127   0.489  24.938  0.00  0.00    +0.055 C 
ATOM      9  C   UNL     1      -4.736   3.349  25.817  0.00  0.00    +0.074 C 
ATOM     10  C   UNL     1      -4.383   2.843  24.402  0.00  0.00    +0.024 C 
ATOM     11  C   UNL     1      -6.784   2.223  24.282  0.00  0.00    +0.019 C 
ATOM     12  C   UNL     1      -5.122   1.018  26.401  0.00  0.00    +0.094 C 
ATOM     13  C   UNL     1      -6.959   2.444  25.794  0.00  0.00    +0.085 C 
ENDROOT
BRANCH   8  15
ATOM      4  N   UNL     1      -4.175  -1.752  24.708  0.00  0.00    -0.237 NA
ATOM      5  N   UNL     1      -1.858  -2.111  24.148  0.00  0.00    -0.232 NA
ATOM     15  C   UNL     1      -3.943  -0.424  24.651  0.00  0.00    +0.050 A 
ATOM     16  C   UNL     1      -2.715   0.129  24.354  0.00  0.00    +0.052 A 
ATOM     18  C   UNL     1      -1.698  -0.771  24.108  0.00  0.00    +0.075 A 
ATOM     19  C   UNL     1      -3.103  -2.526  24.450  0.00  0.00    +0.127 A 
ATOM     24  C   UNL     1      -3.318  -4.000  24.504  0.00  0.00    +0.088 C 
BRANCH  18  21
ATOM     21  C   UNL     1      -0.365  -0.322  23.787  0.00  0.00    +0.001 A 
ATOM     27  C   UNL     1       0.276  -0.800  22.645  0.00  0.00    +0.012 A 
ATOM     28  C   UNL     1       0.282   0.593  24.618  0.00  0.00    +0.012 A 
ATOM     29  C   UNL     1       1.564  -0.365  22.333  0.00  0.00    +0.024 A 
ATOM     30  C   UNL     1       1.570   1.028  24.308  0.00  0.00    +0.024 A 
ATOM     31  C   UNL     1       2.212   0.549  23.165  0.00  0.00    +0.029 A 
BRANCH  31   6
ATOM      6  N   UNL     1       3.514   0.989  22.852  0.00  0.00    -0.336 N 
ATOM     32  C   UNL     1       4.658   0.138  23.114  0.00  0.00    +0.129 C 
ATOM     33  C   UNL     1       3.726   2.293  22.256  0.00  0.00    +0.129 C 
ENDBRANCH  31   6
ENDBRANCH  18  21
ENDBRANCH   8  15
BRANCH   9  14
ATOM     14  C   UNL     1      -3.485   3.645  26.646  0.00  0.00    +0.123 C 
BRANCH  14   3
ATOM      1  O   UNL     1      -0.812   2.603  26.474  0.00  0.00    -0.276 OA
ATOM      3  N   UNL     1      -2.426   4.134  25.816  0.00  0.00    -0.314 N 
ATOM     17  C   UNL     1      -1.152   3.568  25.792  0.00  0.00    +0.216 C 
ATOM     34  H   UNL     1      -2.630   4.934  25.224  0.00  0.00    +0.149 HD
BRANCH  17  20
ATOM     20  C   UNL     1      -0.197   4.286  24.833  0.00  0.00    +0.074 C 
BRANCH  20  22
ATOM     22  C   UNL     1      -0.468   5.800  24.767  0.00  0.00    +0.009 C 
ATOM     25  C   UNL     1      -1.957   6.123  24.732  0.00  0.00    +0.004 C 
ENDBRANCH  20  22
BRANCH  20  23
ATOM     23  C   UNL     1      -0.251   3.629  23.439  0.00  0.00    +0.009 C 
ATOM     26  C   UNL     1      -1.590   2.994  23.084  0.00  0.00    +0.004 C 
ENDBRANCH  20  23
ENDBRANCH  17  20
ENDBRANCH  14   3
ENDBRANCH   9  14
TORSDOF 8
ENDMDL
MODEL 4
REMARK VINA RESULT:       5.5      1.894      4.278
REMARK  Name = 26742472
REMARK  13 active torsions:
REMARK  status: ('A' for Active; 'I' for Inactive)
REMARK    1  A    between atoms: N_3  and  C_14
REMARK    2  A    between atoms: N_6  and  C_31
REMARK    3  A    between atoms: N_6  and  C_32
REMARK    4  A    between atoms: N_6  and  C_33
REMARK    5  A    between atoms: C_8  and  C_15
REMARK    6  A    between atoms: C_9  and  C_14
REMARK    7  A    between atoms: C_17  and  C_20
REMARK    8  A    between atoms: C_18  and  C_21
REMARK    9  A    between atoms: C_19  and  C_24
REMARK   10  A    between atoms: C_20  and  C_22
REMARK   11  A    between atoms: C_20  and  C_23
REMARK   12  A    between atoms: C_22  and  C_25
REMARK   13  A    between atoms: C_23  and  C_26
REMARK                            x       y       z     vdW  Elec       q    Type
REMARK                         _______ _______ _______ _____ _____    ______ ____
ROOT
ATOM      2  N   UNL     1      -3.582  -1.773  25.923  0.00  0.00    -0.297 NA
ATOM      7  C   UNL     1      -2.680  -1.622  23.484  0.00  0.00    +0.002 C 
ATOM      8  C   UNL     1      -1.516  -1.478  24.504  0.00  0.00    +0.055 C 
ATOM      9  C   UNL     1      -4.384  -0.794  25.144  0.00  0.00    +0.074 C 
ATOM     10  C   UNL     1      -3.741  -0.537  23.764  0.00  0.00    +0.024 C 
ATOM     11  C   UNL     1      -3.346  -2.989  23.758  0.00  0.00    +0.019 C 
ATOM     12  C   UNL     1      -2.151  -1.375  25.920  0.00  0.00    +0.094 C 
ATOM     13  C   UNL     1      -3.696  -3.090  25.252  0.00  0.00    +0.085 C 
ENDROOT
BRANCH   8  15
ATOM      4  N   UNL     1      -0.913   0.881  24.275  0.00  0.00    -0.237 NA
ATOM      5  N   UNL     1       1.345   1.590  23.818  0.00  0.00    -0.232 NA
ATOM     15  C   UNL     1      -0.475  -0.395  24.258  0.00  0.00    +0.050 A 
ATOM     16  C   UNL     1       0.838  -0.753  24.031  0.00  0.00    +0.052 A 
ATOM     18  C   UNL     1       1.713   0.291  23.816  0.00  0.00    +0.075 A 
ATOM     19  C   UNL     1       0.037   1.809  24.050  0.00  0.00    +0.127 A 
ATOM     24  C   UNL     1      -0.408   3.232  24.060  0.00  0.00    +0.088 C 
BRANCH  18  21
ATOM     21  C   UNL     1       3.114   0.052  23.565  0.00  0.00    +0.001 A 
ATOM     27  C   UNL     1       3.674  -1.190  23.865  0.00  0.00    +0.012 A 
ATOM     28  C   UNL     1       3.909   1.061  23.021  0.00  0.00    +0.012 A 
ATOM     29  C   UNL     1       5.027  -1.423  23.623  0.00  0.00    +0.024 A 
ATOM     30  C   UNL     1       5.262   0.828  22.779  0.00  0.00    +0.024 A 
ATOM     31  C   UNL     1       5.822  -0.414  23.080  0.00  0.00    +0.029 A 
BRANCH  31   6
ATOM      6  N   UNL     1       7.191  -0.648  22.835  0.00  0.00    -0.336 N 
ATOM     32  C   UNL     1       8.198   0.212  23.424  0.00  0.00    +0.129 C 
ATOM     33  C   UNL     1       7.609  -1.755  21.998  0.00  0.00    +0.129 C 
ENDBRANCH  31   6
ENDBRANCH  18  21
ENDBRANCH   8  15
BRANCH   9  14
ATOM     14  C   UNL     1      -4.622   0.507  25.913  0.00  0.00    +0.123 C 
BRANCH  14   3
ATOM      1  O   UNL     1      -5.823   3.119  25.895  0.00  0.00    -0.276 OA
ATOM      3  N   UNL     1      -4.200   1.639  25.146  0.00  0.00    -0.314 N 
ATOM     17  C   UNL     1      -4.841   2.876  25.196  0.00  0.00    +0.216 C 
ATOM     34  H   UNL     1      -3.395   1.517  24.539  0.00  0.00    +0.149 HD
BRANCH  17  20
ATOM     20  C   UNL     1      -4.205   3.917  24.267  0.00  0.00    +0.074 C 
BRANCH  20  22
ATOM     22  C   UNL     1      -4.241   3.480  22.793  0.00  0.00    +0.009 C 
ATOM     25  C   UNL     1      -2.993   2.704  22.385  0.00  0.00    +0.004 C 
ENDBRANCH  20  22
BRANCH  20  23
ATOM     23  C   UNL     1      -2.773   4.244  24.738  0.00  0.00    +0.009 C 
ATOM     26  C   UNL     1      -2.653   4.598  26.215  0.00  0.00    +0.004 C 
ENDBRANCH  20  23
ENDBRANCH  17  20
ENDBRANCH  14   3
ENDBRANCH   9  14
TORSDOF 8
ENDMDL
MODEL 5
REMARK VINA RESULT:       5.7      1.799      4.379
REMARK  Name = 26742472
REMARK  13 active torsions:
REMARK  status: ('A' for Active; 'I' for Inactive)
REMARK    1  A    between atoms: N_3  and  C_14
REMARK    2  A    between atoms: N_6  and  C_31
REMARK    3  A    between atoms: N_6  and  C_32
REMARK    4  A    between atoms: N_6  and  C_33
REMARK    5  A    between atoms: C_8  and  C_15
REMARK    6  A    between atoms: C_9  and  C_14
REMARK    7  A    between atoms: C_17  and  C_20
REMARK    8  A    between atoms: C_18  and  C_21
REMARK    9  A    between atoms: C_19  and  C_24
REMARK   10  A    between atoms: C_20  and  C_22
REMARK   11  A    between atoms: C_20  and  C_23
REMARK   12  A    between atoms: C_22  and  C_25
REMARK   13  A    between atoms: C_23  and  C_26
REMARK                            x       y       z     vdW  Elec       q    Type
REMARK                         _______ _______ _______ _____ _____    ______ ____
ROOT
ATOM      2  N   UNL     1      -3.380   3.902  23.873  0.00  0.00    -0.297 NA
ATOM      7  C   UNL     1      -1.396   3.378  25.477  0.00  0.00    +0.002 C 
ATOM      8  C   UNL     1      -1.039   2.973  24.020  0.00  0.00    +0.055 C 
ATOM      9  C   UNL     1      -3.868   3.143  25.053  0.00  0.00    +0.074 C 
ATOM     10  C   UNL     1      -2.684   2.645  25.909  0.00  0.00    +0.024 C 
ATOM     11  C   UNL     1      -1.721   4.888  25.453  0.00  0.00    +0.019 C 
ATOM     12  C   UNL     1      -2.330   3.125  23.166  0.00  0.00    +0.094 C 
ATOM     13  C   UNL     1      -2.771   5.162  24.363  0.00  0.00    +0.085 C 
ENDROOT
BRANCH   8  15
ATOM      4  N   UNL     1      -1.152   0.550  23.705  0.00  0.00    -0.237 NA
ATOM      5  N   UNL     1       0.821  -0.798  23.395  0.00  0.00    -0.232 NA
ATOM     15  C   UNL     1      -0.353   1.633  23.794  0.00  0.00    +0.050 A 
ATOM     16  C   UNL     1       1.022   1.582  23.696  0.00  0.00    +0.052 A 
ATOM     18  C   UNL     1       1.561   0.327  23.493  0.00  0.00    +0.075 A 
ATOM     19  C   UNL     1      -0.508  -0.617  23.509  0.00  0.00    +0.127 A 
ATOM     24  C   UNL     1      -1.358  -1.837  23.406  0.00  0.00    +0.088 C 
BRANCH  18  21
ATOM     21  C   UNL     1       2.986   0.137  23.374  0.00  0.00    +0.001 A 
ATOM     27  C   UNL     1       3.573  -1.043  23.831  0.00  0.00    +0.012 A 
ATOM     28  C   UNL     1       3.777   1.131  22.799  0.00  0.00    +0.012 A 
ATOM     29  C   UNL     1       4.950  -1.228  23.715  0.00  0.00    +0.024 A 
ATOM     30  C   UNL     1       5.154   0.947  22.683  0.00  0.00    +0.024 A 
ATOM     31  C   UNL     1       5.742  -0.233  23.141  0.00  0.00    +0.029 A 
BRANCH  31   6
ATOM      6  N   UNL     1       7.135  -0.418  23.024  0.00  0.00    -0.336 N 
ATOM     32  C   UNL     1       7.666  -1.474  22.185  0.00  0.00    +0.129 C 
ATOM     33  C   UNL     1       8.054   0.450  23.733  0.00  0.00    +0.129 C 
ENDBRANCH  31   6
ENDBRANCH  18  21
ENDBRANCH   8  15
BRANCH   9  14
ATOM     14  C   UNL     1      -4.809   2.001  24.663  0.00  0.00    +0.123 C 
BRANCH  14   3
ATOM      1  O   UNL     1      -4.260  -0.580  23.523  0.00  0.00    -0.276 OA
ATOM      3  N   UNL     1      -4.481   0.803  25.374  0.00  0.00    -0.314 N 
ATOM     17  C   UNL     1      -4.228  -0.414  24.741  0.00  0.00    +0.216 C 
ATOM     34  H   UNL     1      -4.438   0.859  26.386  0.00  0.00    +0.149 HD
BRANCH  17  20
ATOM     20  C   UNL     1      -3.917  -1.546  25.726  0.00  0.00    +0.074 C 
BRANCH  20  22
ATOM     22  C   UNL     1      -2.998  -1.085  26.871  0.00  0.00    +0.009 C 
ATOM     25  C   UNL     1      -1.532  -1.036  26.455  0.00  0.00    +0.004 C 
ENDBRANCH  20  22
BRANCH  20  23
ATOM     23  C   UNL     1      -3.337  -2.761  24.973  0.00  0.00    +0.009 C 
ATOM     26  C   UNL     1      -4.246  -3.335  23.894  0.00  0.00    +0.004 C 
ENDBRANCH  20  23
ENDBRANCH  17  20
ENDBRANCH  14   3
ENDBRANCH   9  14
TORSDOF 8
ENDMDL
MODEL 6
REMARK VINA RESULT:       6.0      1.878      4.381
REMARK  Name = 26742472
REMARK  13 active torsions:
REMARK  status: ('A' for Active; 'I' for Inactive)
REMARK    1  A    between atoms: N_3  and  C_14
REMARK    2  A    between atoms: N_6  and  C_31
REMARK    3  A    between atoms: N_6  and  C_32
REMARK    4  A    between atoms: N_6  and  C_33
REMARK    5  A    between atoms: C_8  and  C_15
REMARK    6  A    between atoms: C_9  and  C_14
REMARK    7  A    between atoms: C_17  and  C_20
REMARK    8  A    between atoms: C_18  and  C_21
REMARK    9  A    between atoms: C_19  and  C_24
REMARK   10  A    between atoms: C_20  and  C_22
REMARK   11  A    between atoms: C_20  and  C_23
REMARK   12  A    between atoms: C_22  and  C_25
REMARK   13  A    between atoms: C_23  and  C_26
REMARK                            x       y       z     vdW  Elec       q    Type
REMARK                         _______ _______ _______ _____ _____    ______ ____
ROOT
ATOM      2  N   UNL     1      -3.284   3.971  24.099  0.00  0.00    -0.297 NA
ATOM      7  C   UNL     1      -1.043   3.638  25.383  0.00  0.00    +0.002 C 
ATOM      8  C   UNL     1      -0.932   3.071  23.941  0.00  0.00    +0.055 C 
ATOM      9  C   UNL     1      -3.545   3.349  25.423  0.00  0.00    +0.074 C 
ATOM     10  C   UNL     1      -2.220   2.955  26.111  0.00  0.00    +0.024 C 
ATOM     11  C   UNL     1      -1.401   5.134  25.248  0.00  0.00    +0.019 C 
ATOM     12  C   UNL     1      -2.354   3.121  23.313  0.00  0.00    +0.094 C 
ATOM     13  C   UNL     1      -2.628   5.280  24.333  0.00  0.00    +0.085 C 
ENDROOT
BRANCH   8  15
ATOM      4  N   UNL     1      -1.080   0.642  23.695  0.00  0.00    -0.237 NA
ATOM      5  N   UNL     1       0.874  -0.741  23.416  0.00  0.00    -0.232 NA
ATOM     15  C   UNL     1      -0.265   1.716  23.751  0.00  0.00    +0.050 A 
ATOM     16  C   UNL     1       1.109   1.643  23.649  0.00  0.00    +0.052 A 
ATOM     18  C   UNL     1       1.629   0.376  23.480  0.00  0.00    +0.075 A 
ATOM     19  C   UNL     1      -0.452  -0.539  23.529  0.00  0.00    +0.127 A 
ATOM     24  C   UNL     1      -1.319  -1.750  23.464  0.00  0.00    +0.088 C 
BRANCH  18  21
ATOM     21  C   UNL     1       3.051   0.163  23.361  0.00  0.00    +0.001 A 
ATOM     27  C   UNL     1       3.856   1.140  22.775  0.00  0.00    +0.012 A 
ATOM     28  C   UNL     1       3.622  -1.019  23.834  0.00  0.00    +0.012 A 
ATOM     29  C   UNL     1       5.231   0.936  22.661  0.00  0.00    +0.024 A 
ATOM     30  C   UNL     1       4.996  -1.224  23.719  0.00  0.00    +0.024 A 
ATOM     31  C   UNL     1       5.801  -0.247  23.132  0.00  0.00    +0.029 A 
BRANCH  31   6
ATOM      6  N   UNL     1       7.191  -0.455  23.016  0.00  0.00    -0.336 N 
ATOM     32  C   UNL     1       8.122   0.397  23.729  0.00  0.00    +0.129 C 
ATOM     33  C   UNL     1       7.707  -1.529  22.190  0.00  0.00    +0.129 C 
ENDBRANCH  31   6
ENDBRANCH  18  21
ENDBRANCH   8  15
BRANCH   9  14
ATOM     14  C   UNL     1      -4.514   2.168  25.332  0.00  0.00    +0.123 C 
BRANCH  14   3
ATOM      1  O   UNL     1      -5.295  -0.375  24.244  0.00  0.00    -0.276 OA
ATOM      3  N   UNL     1      -3.819   0.925  25.475  0.00  0.00    -0.314 N 
ATOM     17  C   UNL     1      -4.268  -0.269  24.912  0.00  0.00    +0.216 C 
ATOM     34  H   UNL     1      -2.961   0.930  26.017  0.00  0.00    +0.149 HD
BRANCH  17  20
ATOM     20  C   UNL     1      -3.354  -1.459  25.226  0.00  0.00    +0.074 C 
BRANCH  20  22
ATOM     22  C   UNL     1      -4.039  -2.808  24.946  0.00  0.00    +0.009 C 
ATOM     25  C   UNL     1      -4.386  -2.990  23.473  0.00  0.00    +0.004 C 
ENDBRANCH  20  22
BRANCH  20  23
ATOM     23  C   UNL     1      -2.837  -1.363  26.675  0.00  0.00    +0.009 C 
ATOM     26  C   UNL     1      -1.411  -0.845  26.810  0.00  0.00    +0.004 C 
ENDBRANCH  20  23
ENDBRANCH  17  20
ENDBRANCH  14   3
ENDBRANCH   9  14
TORSDOF 8
ENDMDL
