MODEL 1
REMARK VINA RESULT:      -3.6      0.000      0.000
REMARK  Name = 75368502
REMARK  3 active torsions:
REMARK  status: ('A' for Active; 'I' for Inactive)
REMARK    1  A    between atoms: N_4  and  C_10
REMARK    2  A    between atoms: N_7  and  C_20
REMARK    3  A    between atoms: C_20  and  C_21
REMARK                            x       y       z     vdW  Elec       q    Type
REMARK                         _______ _______ _______ _____ _____    ______ ____
ROOT
ATOM      2  O   UNL     1      -4.707  -9.859  12.843  0.00  0.00    -0.252 OA
ATOM      3  O   UNL     1      -7.933 -10.150  18.952  0.00  0.00    -0.253 OA
ATOM      4  N   UNL     1      -6.978  -9.923  12.216  0.00  0.00    -0.280 N 
ATOM      5  N   UNL     1      -6.465  -9.860  14.403  0.00  0.00    -0.278 N 
ATOM      6  N   UNL     1      -7.894 -10.583  16.676  0.00  0.00    -0.282 N 
ATOM      7  N   UNL     1      -9.915 -10.095  17.801  0.00  0.00    -0.300 N 
ATOM      8  C   UNL     1      -7.916  -9.770  14.363  0.00  0.00    +0.112 C 
ATOM      9  C   UNL     1      -8.255 -10.037  12.899  0.00  0.00    +0.133 C 
ATOM     11  C   UNL     1      -8.530 -10.755  15.354  0.00  0.00    +0.133 C 
ATOM     12  C   UNL     1      -5.770  -9.822  15.678  0.00  0.00    +0.128 C 
ATOM     13  C   UNL     1      -5.899  -9.874  13.120  0.00  0.00    +0.305 C 
ATOM     14  C   UNL     1      -6.435 -10.781  16.665  0.00  0.00    +0.128 C 
ATOM     19  C   UNL     1      -8.540 -10.270  17.882  0.00  0.00    +0.302 C 
ATOM     22  H   UNL     1     -10.408 -10.156  16.921  0.00  0.00    +0.150 HD
ENDROOT
BRANCH   4  10
ATOM      1  O   UNL     1      -7.860  -9.245   8.185  0.00  0.00    -0.380 OA
ATOM     10  C   UNL     1      -6.873 -10.003  10.780  0.00  0.00    +0.082 C 
ATOM     15  C   UNL     1      -6.610  -8.624  10.174  0.00  0.00    +0.050 C 
ATOM     16  C   UNL     1      -8.128 -10.622  10.167  0.00  0.00    +0.050 C 
ATOM     17  C   UNL     1      -6.629  -8.692   8.653  0.00  0.00    +0.161 C 
ATOM     18  C   UNL     1      -8.060 -10.580   8.646  0.00  0.00    +0.161 C 
ENDBRANCH   4  10
BRANCH   7  20
ATOM     20  C   UNL     1     -10.718  -9.764  18.956  0.00  0.00    +0.102 C 
ATOM     21  C   UNL     1     -10.505 -10.754  20.082  0.00  0.00    +0.024 C 
ENDBRANCH   7  20
TORSDOF 2
ENDMDL
MODEL 2
REMARK VINA RESULT:      -2.8     15.108     17.480
REMARK  Name = 75368502
REMARK  3 active torsions:
REMARK  status: ('A' for Active; 'I' for Inactive)
REMARK    1  A    between atoms: N_4  and  C_10
REMARK    2  A    between atoms: N_7  and  C_20
REMARK    3  A    between atoms: C_20  and  C_21
REMARK                            x       y       z     vdW  Elec       q    Type
REMARK                         _______ _______ _______ _____ _____    ______ ____
ROOT
ATOM      2  O   UNL     1      -3.998  -0.647  24.126  0.00  0.00    -0.252 OA
ATOM      3  O   UNL     1       2.823  -1.239  23.158  0.00  0.00    -0.253 OA
ATOM      4  N   UNL     1      -3.298   1.602  24.052  0.00  0.00    -0.280 N 
ATOM      5  N   UNL     1      -1.774  -0.013  23.712  0.00  0.00    -0.278 N 
ATOM      6  N   UNL     1       0.999  -0.039  23.933  0.00  0.00    -0.282 N 
ATOM      7  N   UNL     1       2.914   1.050  23.077  0.00  0.00    -0.300 N 
ATOM      8  C   UNL     1      -1.051   1.228  23.481  0.00  0.00    +0.112 C 
ATOM      9  C   UNL     1      -2.033   2.307  23.931  0.00  0.00    +0.133 C 
ATOM     11  C   UNL     1       0.274   1.212  24.237  0.00  0.00    +0.133 C 
ATOM     12  C   UNL     1      -1.095  -1.288  23.552  0.00  0.00    +0.128 C 
ATOM     13  C   UNL     1      -3.133   0.205  23.977  0.00  0.00    +0.305 C 
ATOM     14  C   UNL     1       0.250  -1.259  24.278  0.00  0.00    +0.128 C 
ATOM     19  C   UNL     1       2.282  -0.150  23.377  0.00  0.00    +0.302 C 
ATOM     22  H   UNL     1       2.460   1.941  23.220  0.00  0.00    +0.150 HD
ENDROOT
BRANCH   4  10
ATOM      1  O   UNL     1      -6.233   3.554  26.304  0.00  0.00    -0.380 OA
ATOM     10  C   UNL     1      -4.527   2.291  24.359  0.00  0.00    +0.082 C 
ATOM     15  C   UNL     1      -4.247   3.690  24.909  0.00  0.00    +0.050 C 
ATOM     16  C   UNL     1      -5.377   1.492  25.347  0.00  0.00    +0.050 C 
ATOM     17  C   UNL     1      -5.540   4.362  25.352  0.00  0.00    +0.161 C 
ATOM     18  C   UNL     1      -6.607   2.288  25.762  0.00  0.00    +0.161 C 
ENDBRANCH   4  10
BRANCH   7  20
ATOM     20  C   UNL     1       4.236   1.099  22.495  0.00  0.00    +0.102 C 
ATOM     21  C   UNL     1       5.283   0.565  23.450  0.00  0.00    +0.024 C 
ENDBRANCH   7  20
TORSDOF 2
ENDMDL
MODEL 3
REMARK VINA RESULT:      -0.6     15.443     16.610
REMARK  Name = 75368502
REMARK  3 active torsions:
REMARK  status: ('A' for Active; 'I' for Inactive)
REMARK    1  A    between atoms: N_4  and  C_10
REMARK    2  A    between atoms: N_7  and  C_20
REMARK    3  A    between atoms: C_20  and  C_21
REMARK                            x       y       z     vdW  Elec       q    Type
REMARK                         _______ _______ _______ _____ _____    ______ ____
ROOT
ATOM      2  O   UNL     1      -0.321  -2.067  24.839  0.00  0.00    -0.252 OA
ATOM      3  O   UNL     1      -6.271   1.232  26.073  0.00  0.00    -0.253 OA
ATOM      4  N   UNL     1       0.105   0.088  23.983  0.00  0.00    -0.280 N 
ATOM      5  N   UNL     1      -1.866  -0.303  24.988  0.00  0.00    -0.278 N 
ATOM      6  N   UNL     1      -4.323   0.992  24.841  0.00  0.00    -0.282 N 
ATOM      7  N   UNL     1      -5.299   3.115  25.198  0.00  0.00    -0.300 N 
ATOM      8  C   UNL     1      -1.880   1.121  24.694  0.00  0.00    +0.112 C 
ATOM      9  C   UNL     1      -0.643   1.322  23.821  0.00  0.00    +0.133 C 
ATOM     11  C   UNL     1      -3.199   1.509  24.034  0.00  0.00    +0.133 C 
ATOM     12  C   UNL     1      -2.993  -0.912  25.674  0.00  0.00    +0.128 C 
ATOM     13  C   UNL     1      -0.651  -0.906  24.634  0.00  0.00    +0.305 C 
ATOM     14  C   UNL     1      -4.303  -0.470  25.023  0.00  0.00    +0.128 C 
ATOM     19  C   UNL     1      -5.360   1.744  25.413  0.00  0.00    +0.302 C 
ATOM     22  H   UNL     1      -4.536   3.540  24.691  0.00  0.00    +0.150 HD
ENDROOT
BRANCH   4  10
ATOM      1  O   UNL     1       3.430   0.780  21.541  0.00  0.00    -0.380 OA
ATOM     10  C   UNL     1       1.411  -0.093  23.399  0.00  0.00    +0.082 C 
ATOM     15  C   UNL     1       2.303   1.119  23.668  0.00  0.00    +0.050 C 
ATOM     16  C   UNL     1       1.313  -0.358  21.897  0.00  0.00    +0.050 C 
ATOM     17  C   UNL     1       3.634   0.980  22.940  0.00  0.00    +0.161 C 
ATOM     18  C   UNL     1       2.700  -0.417  21.270  0.00  0.00    +0.161 C 
ENDBRANCH   4  10
BRANCH   7  20
ATOM     20  C   UNL     1      -6.291   4.022  25.728  0.00  0.00    +0.102 C 
ATOM     21  C   UNL     1      -6.013   5.452  25.313  0.00  0.00    +0.024 C 
ENDBRANCH   7  20
TORSDOF 2
ENDMDL
