MODEL 1
REMARK VINA RESULT:      -1.2      0.000      0.000
REMARK  Name = 45784271
REMARK  3 active torsions:
REMARK  status: ('A' for Active; 'I' for Inactive)
REMARK    1  A    between atoms: N_5  and  C_9
REMARK    2  A    between atoms: C_8  and  C_15
REMARK    3  A    between atoms: C_22  and  C_24
REMARK                            x       y       z     vdW  Elec       q    Type
REMARK                         _______ _______ _______ _____ _____    ______ ____
ROOT
ATOM      6  N   UNL     1      -2.248   0.149  23.887  0.00  0.00    -0.342 N 
ATOM      7  N   UNL     1      -0.622   1.618  24.255  0.00  0.00    -0.232 NA
ATOM     15  C   UNL     1      -0.913   0.423  23.792  0.00  0.00    +0.113 A 
ATOM     18  C   UNL     1      -2.861   1.239  24.448  0.00  0.00    +0.067 A 
ATOM     19  C   UNL     1      -1.825   2.143  24.669  0.00  0.00    +0.089 A 
ATOM     20  C   UNL     1      -4.192   1.505  24.773  0.00  0.00    +0.040 A 
ATOM     21  C   UNL     1      -2.116   3.391  25.246  0.00  0.00    +0.030 A 
ATOM     22  C   UNL     1      -4.463   2.752  25.347  0.00  0.00    +0.057 A 
ATOM     23  C   UNL     1      -3.444   3.679  25.579  0.00  0.00    +0.014 A 
ATOM     25  H   UNL     1      -2.707  -0.705  23.596  0.00  0.00    +0.167 HD
ENDROOT
BRANCH  15   8
ATOM      5  N   UNL     1       2.312  -0.892  22.652  0.00  0.00    -0.299 NA
ATOM      8  C   UNL     1       0.056  -0.582  23.212  0.00  0.00    +0.070 C 
ATOM     10  C   UNL     1       1.480  -0.428  23.764  0.00  0.00    +0.096 C 
ATOM     11  C   UNL     1       1.712  -0.296  21.458  0.00  0.00    +0.085 C 
ATOM     12  C   UNL     1       0.221  -0.513  21.683  0.00  0.00    +0.028 C 
BRANCH   5   9
ATOM      4  O   UNL     1       5.798   0.585  24.466  0.00  0.00    -0.380 OA
ATOM      9  C   UNL     1       3.716  -0.520  22.814  0.00  0.00    +0.061 C 
ATOM     13  C   UNL     1       3.841   0.982  23.081  0.00  0.00    +0.047 C 
ATOM     14  C   UNL     1       4.367  -1.311  23.953  0.00  0.00    +0.047 C 
ATOM     16  C   UNL     1       5.293   1.350  23.371  0.00  0.00    +0.161 C 
ATOM     17  C   UNL     1       5.789  -0.816  24.195  0.00  0.00    +0.161 C 
ENDBRANCH   5   9
ENDBRANCH  15   8
BRANCH  22  24
ATOM      1  F   UNL     1      -6.784   2.507  24.894  0.00  0.00    -0.166 F 
ATOM      2  F   UNL     1      -6.209   2.712  26.980  0.00  0.00    -0.166 F 
ATOM      3  F   UNL     1      -6.133   4.434  25.665  0.00  0.00    -0.166 F 
ATOM     24  C   UNL     1      -5.869   3.096  25.716  0.00  0.00    +0.417 C 
ENDBRANCH  22  24
TORSDOF 3
ENDMDL
MODEL 2
REMARK VINA RESULT:      -0.7      5.485      8.701
REMARK  Name = 45784271
REMARK  3 active torsions:
REMARK  status: ('A' for Active; 'I' for Inactive)
REMARK    1  A    between atoms: N_5  and  C_9
REMARK    2  A    between atoms: C_8  and  C_15
REMARK    3  A    between atoms: C_22  and  C_24
REMARK                            x       y       z     vdW  Elec       q    Type
REMARK                         _______ _______ _______ _____ _____    ______ ____
ROOT
ATOM      6  N   UNL     1       0.926  -1.187  23.872  0.00  0.00    -0.342 N 
ATOM      7  N   UNL     1       0.409   0.844  23.133  0.00  0.00    -0.232 NA
ATOM     15  C   UNL     1      -0.068  -0.298  23.576  0.00  0.00    +0.113 A 
ATOM     18  C   UNL     1       2.125  -0.579  23.602  0.00  0.00    +0.067 A 
ATOM     19  C   UNL     1       1.776   0.688  23.143  0.00  0.00    +0.089 A 
ATOM     20  C   UNL     1       3.446  -1.014  23.717  0.00  0.00    +0.040 A 
ATOM     21  C   UNL     1       2.791   1.586  22.772  0.00  0.00    +0.030 A 
ATOM     22  C   UNL     1       4.443  -0.107  23.344  0.00  0.00    +0.057 A 
ATOM     23  C   UNL     1       4.123   1.171  22.879  0.00  0.00    +0.014 A 
ATOM     25  H   UNL     1       0.804  -2.126  24.227  0.00  0.00    +0.167 HD
ENDROOT
BRANCH  15   8
ATOM      5  N   UNL     1      -3.606   0.234  24.369  0.00  0.00    -0.299 NA
ATOM      8  C   UNL     1      -1.524  -0.658  23.761  0.00  0.00    +0.070 C 
ATOM     10  C   UNL     1      -2.472   0.519  23.487  0.00  0.00    +0.096 C 
ATOM     11  C   UNL     1      -3.005  -0.197  25.631  0.00  0.00    +0.085 C 
ATOM     12  C   UNL     1      -1.897  -1.138  25.175  0.00  0.00    +0.028 C 
BRANCH   5   9
ATOM      4  O   UNL     1      -5.494   3.493  26.223  0.00  0.00    -0.380 OA
ATOM      9  C   UNL     1      -4.484   1.391  24.537  0.00  0.00    +0.061 C 
ATOM     13  C   UNL     1      -5.498   1.130  25.655  0.00  0.00    +0.047 C 
ATOM     14  C   UNL     1      -3.677   2.655  24.845  0.00  0.00    +0.047 C 
ATOM     16  C   UNL     1      -6.333   2.380  25.915  0.00  0.00    +0.161 C 
ATOM     17  C   UNL     1      -4.613   3.820  25.149  0.00  0.00    +0.161 C 
ENDBRANCH   5   9
ENDBRANCH  15   8
BRANCH  22  24
ATOM      1  F   UNL     1       6.027  -1.786  23.915  0.00  0.00    -0.166 F 
ATOM      2  F   UNL     1       6.537  -0.484  22.251  0.00  0.00    -0.166 F 
ATOM      3  F   UNL     1       6.610   0.277  24.280  0.00  0.00    -0.166 F 
ATOM     24  C   UNL     1       5.877  -0.515  23.444  0.00  0.00    +0.417 C 
ENDBRANCH  22  24
TORSDOF 3
ENDMDL
MODEL 3
REMARK VINA RESULT:       0.4      0.951      2.031
REMARK  Name = 45784271
REMARK  3 active torsions:
REMARK  status: ('A' for Active; 'I' for Inactive)
REMARK    1  A    between atoms: N_5  and  C_9
REMARK    2  A    between atoms: C_8  and  C_15
REMARK    3  A    between atoms: C_22  and  C_24
REMARK                            x       y       z     vdW  Elec       q    Type
REMARK                         _______ _______ _______ _____ _____    ______ ____
ROOT
ATOM      6  N   UNL     1      -1.434   1.168  23.852  0.00  0.00    -0.342 N 
ATOM      7  N   UNL     1      -2.590  -0.712  24.115  0.00  0.00    -0.232 NA
ATOM     15  C   UNL     1      -1.441  -0.193  23.739  0.00  0.00    +0.113 A 
ATOM     18  C   UNL     1      -2.658   1.555  24.332  0.00  0.00    +0.067 A 
ATOM     19  C   UNL     1      -3.362   0.364  24.488  0.00  0.00    +0.089 A 
ATOM     20  C   UNL     1      -3.196   2.807  24.635  0.00  0.00    +0.040 A 
ATOM     21  C   UNL     1      -4.680   0.405  24.974  0.00  0.00    +0.030 A 
ATOM     22  C   UNL     1      -4.509   2.830  25.116  0.00  0.00    +0.057 A 
ATOM     23  C   UNL     1      -5.239   1.650  25.284  0.00  0.00    +0.014 A 
ATOM     25  H   UNL     1      -0.665   1.784  23.623  0.00  0.00    +0.167 HD
ENDROOT
BRANCH  15   8
ATOM      5  N   UNL     1       2.109  -0.880  23.149  0.00  0.00    -0.299 NA
ATOM      8  C   UNL     1      -0.233  -0.946  23.233  0.00  0.00    +0.070 C 
ATOM     10  C   UNL     1       1.011  -0.741  24.108  0.00  0.00    +0.096 C 
ATOM     11  C   UNL     1       1.675  -0.134  21.967  0.00  0.00    +0.085 C 
ATOM     12  C   UNL     1       0.220  -0.560  21.813  0.00  0.00    +0.028 C 
BRANCH   5   9
ATOM      4  O   UNL     1       6.216  -0.031  23.353  0.00  0.00    -0.380 OA
ATOM      9  C   UNL     1       3.379  -0.388  23.681  0.00  0.00    +0.061 C 
ATOM     13  C   UNL     1       4.374  -1.542  23.834  0.00  0.00    +0.047 C 
ATOM     14  C   UNL     1       3.971   0.699  22.778  0.00  0.00    +0.047 C 
ATOM     16  C   UNL     1       5.736  -1.012  24.272  0.00  0.00    +0.161 C 
ATOM     17  C   UNL     1       5.354   1.105  23.276  0.00  0.00    +0.161 C 
ENDBRANCH   5   9
ENDBRANCH  15   8
BRANCH  22  24
ATOM      1  F   UNL     1      -4.558   4.734  26.539  0.00  0.00    -0.166 F 
ATOM      2  F   UNL     1      -5.070   5.057  24.451  0.00  0.00    -0.166 F 
ATOM      3  F   UNL     1      -6.467   4.041  25.761  0.00  0.00    -0.166 F 
ATOM     24  C   UNL     1      -5.140   4.139  25.458  0.00  0.00    +0.417 C 
ENDBRANCH  22  24
TORSDOF 3
ENDMDL
MODEL 4
REMARK VINA RESULT:       2.0      5.088      8.429
REMARK  Name = 45784271
REMARK  3 active torsions:
REMARK  status: ('A' for Active; 'I' for Inactive)
REMARK    1  A    between atoms: N_5  and  C_9
REMARK    2  A    between atoms: C_8  and  C_15
REMARK    3  A    between atoms: C_22  and  C_24
REMARK                            x       y       z     vdW  Elec       q    Type
REMARK                         _______ _______ _______ _____ _____    ______ ____
ROOT
ATOM      6  N   UNL     1      -0.388   0.200  23.389  0.00  0.00    -0.342 N 
ATOM      7  N   UNL     1      -0.224  -1.826  24.288  0.00  0.00    -0.232 NA
ATOM     15  C   UNL     1      -1.050  -0.878  23.904  0.00  0.00    +0.113 A 
ATOM     18  C   UNL     1       0.955  -0.069  23.442  0.00  0.00    +0.067 A 
ATOM     19  C   UNL     1       1.032  -1.339  24.007  0.00  0.00    +0.089 A 
ATOM     20  C   UNL     1       2.077   0.667  23.057  0.00  0.00    +0.040 A 
ATOM     21  C   UNL     1       2.293  -1.925  24.207  0.00  0.00    +0.030 A 
ATOM     22  C   UNL     1       3.324   0.068  23.263  0.00  0.00    +0.057 A 
ATOM     23  C   UNL     1       3.432  -1.205  23.828  0.00  0.00    +0.014 A 
ATOM     25  H   UNL     1      -0.809   1.047  23.030  0.00  0.00    +0.167 HD
ENDROOT
BRANCH  15   8
ATOM      5  N   UNL     1      -4.428   0.440  24.436  0.00  0.00    -0.299 NA
ATOM      8  C   UNL     1      -2.559  -0.905  23.993  0.00  0.00    +0.070 C 
ATOM     10  C   UNL     1      -3.205   0.440  23.631  0.00  0.00    +0.096 C 
ATOM     11  C   UNL     1      -4.020  -0.069  25.745  0.00  0.00    +0.085 C 
ATOM     12  C   UNL     1      -3.119  -1.245  25.386  0.00  0.00    +0.028 C 
BRANCH   5   9
ATOM      4  O   UNL     1      -5.276   4.287  25.888  0.00  0.00    -0.380 OA
ATOM      9  C   UNL     1      -5.039   1.765  24.521  0.00  0.00    +0.061 C 
ATOM     13  C   UNL     1      -5.803   1.915  25.839  0.00  0.00    +0.047 C 
ATOM     14  C   UNL     1      -3.983   2.868  24.399  0.00  0.00    +0.047 C 
ATOM     16  C   UNL     1      -6.337   3.337  25.983  0.00  0.00    +0.161 C 
ATOM     17  C   UNL     1      -4.618   4.236  24.622  0.00  0.00    +0.161 C 
ENDBRANCH   5   9
ENDBRANCH  15   8
BRANCH  22  24
ATOM      1  F   UNL     1       4.293   2.037  22.348  0.00  0.00    -0.166 F 
ATOM      2  F   UNL     1       5.417   1.028  23.912  0.00  0.00    -0.166 F 
ATOM      3  F   UNL     1       5.306   0.158  21.929  0.00  0.00    -0.166 F 
ATOM     24  C   UNL     1       4.562   0.806  22.872  0.00  0.00    +0.417 C 
ENDBRANCH  22  24
TORSDOF 3
ENDMDL
