MODEL 1
REMARK VINA RESULT:       9.8      0.000      0.000
REMARK  Name = 7164727
REMARK  5 active torsions:
REMARK  status: ('A' for Active; 'I' for Inactive)
REMARK    1  A    between atoms: O_4  and  C_28
REMARK    2  A    between atoms: O_4  and  C_34
REMARK    3  A    between atoms: N_7  and  C_21
REMARK    4  A    between atoms: N_8  and  C_19
REMARK    5  A    between atoms: C_22  and  C_25
REMARK                            x       y       z     vdW  Elec       q    Type
REMARK                         _______ _______ _______ _____ _____    ______ ____
ROOT
ATOM      1  O   UNL     1       0.068   2.513  26.301  0.00  0.00    -0.266 OA
ATOM      2  O   UNL     1      -4.595   0.178  26.610  0.00  0.00    -0.252 OA
ATOM      5  N   UNL     1      -4.838   2.110  25.363  0.00  0.00    -0.284 N 
ATOM      6  N   UNL     1      -1.863   3.257  25.217  0.00  0.00    -0.310 N 
ATOM      7  N   UNL     1      -4.672   0.010  24.299  0.00  0.00    -0.269 N 
ATOM      9  C   UNL     1      -3.905   4.144  26.478  0.00  0.00    +0.027 C 
ATOM     10  C   UNL     1      -3.950   4.015  24.024  0.00  0.00    +0.054 C 
ATOM     11  C   UNL     1      -4.166   4.949  25.211  0.00  0.00    +0.018 C 
ATOM     12  C   UNL     1      -4.872   2.952  26.562  0.00  0.00    +0.114 C 
ATOM     13  C   UNL     1      -2.439   3.700  26.494  0.00  0.00    +0.130 C 
ATOM     14  C   UNL     1      -4.955   2.845  24.090  0.00  0.00    +0.119 C 
ATOM     15  C   UNL     1      -2.533   3.470  24.009  0.00  0.00    +0.027 A 
ATOM     16  C   UNL     1      -1.939   3.163  22.843  0.00  0.00    +0.024 A 
ATOM     17  C   UNL     1      -0.567   2.704  25.263  0.00  0.00    +0.273 A 
ATOM     18  C   UNL     1      -4.687   0.713  25.503  0.00  0.00    +0.306 C 
ATOM     19  C   UNL     1       0.049   2.351  23.946  0.00  0.00    +0.099 A 
ATOM     20  C   UNL     1      -0.623   2.591  22.814  0.00  0.00    +0.030 A 
ATOM     35  H   UNL     1      -5.169   0.403  23.507  0.00  0.00    +0.156 HD
ENDROOT
BRANCH   7  21
ATOM     21  C   UNL     1      -4.072  -1.249  24.051  0.00  0.00    +0.035 A 
ATOM     23  C   UNL     1      -2.719  -1.436  24.321  0.00  0.00    +0.027 A 
ATOM     24  C   UNL     1      -4.839  -2.291  23.538  0.00  0.00    +0.027 A 
ATOM     26  C   UNL     1      -2.128  -2.675  24.076  0.00  0.00    +0.047 A 
ATOM     27  C   UNL     1      -4.248  -3.531  23.293  0.00  0.00    +0.047 A 
ATOM     28  C   UNL     1      -2.893  -3.723  23.563  0.00  0.00    +0.120 A 
BRANCH  28   4
ATOM      4  O   UNL     1      -2.316  -4.933  23.326  0.00  0.00    -0.495 OA
ATOM     34  C   UNL     1      -1.136  -4.944  22.523  0.00  0.00    +0.277 C 
ENDBRANCH  28   4
ENDBRANCH   7  21
BRANCH  19   8
ATOM      3  O   UNL     1       0.818  -0.080  22.664  0.00  0.00    -0.270 OA
ATOM      8  N   UNL     1       1.295   1.799  23.949  0.00  0.00    -0.277 N 
ATOM     22  C   UNL     1       1.607   0.609  23.305  0.00  0.00    +0.248 C 
ATOM     36  H   UNL     1       1.958   2.235  24.580  0.00  0.00    +0.155 HD
BRANCH  22  25
ATOM     25  C   UNL     1       3.026   0.176  23.401  0.00  0.00    +0.037 A 
ATOM     29  C   UNL     1       3.301  -1.139  23.713  0.00  0.00    +0.013 A 
ATOM     30  C   UNL     1       4.021   1.104  23.176  0.00  0.00    +0.013 A 
ATOM     31  C   UNL     1       4.632  -1.545  23.802  0.00  0.00    +0.001 A 
ATOM     32  C   UNL     1       5.352   0.698  23.267  0.00  0.00    +0.001 A 
ATOM     33  C   UNL     1       5.658  -0.625  23.581  0.00  0.00    +0.000 A 
ENDBRANCH  22  25
ENDBRANCH  19   8
TORSDOF 4
ENDMDL
