MODEL 1
REMARK VINA RESULT:      -2.3      0.000      0.000
REMARK  Name = 26744513
REMARK  9 active torsions:
REMARK  status: ('A' for Active; 'I' for Inactive)
REMARK    1  A    between atoms: O_4  and  C_14
REMARK    2  A    between atoms: O_6  and  C_28
REMARK    3  A    between atoms: O_7  and  C_31
REMARK    4  A    between atoms: O_7  and  C_32
REMARK    5  A    between atoms: N_9  and  C_16
REMARK    6  A    between atoms: C_12  and  C_17
REMARK    7  A    between atoms: C_16  and  C_18
REMARK    8  A    between atoms: C_21  and  C_24
REMARK    9  A    between atoms: C_25  and  C_28
REMARK                            x       y       z     vdW  Elec       q    Type
REMARK                         _______ _______ _______ _____ _____    ______ ____
ROOT
ATOM      9  N   UNL     1      -5.233   2.221  25.509  0.00  0.00    -0.285 NA
ATOM     12  C   UNL     1      -4.374   2.855  24.489  0.00  0.00    +0.149 C 
ATOM     13  C   UNL     1      -4.631   4.365  24.640  0.00  0.00    +0.061 C 
ATOM     14  C   UNL     1      -5.682   4.479  25.737  0.00  0.00    +0.130 C 
ATOM     15  C   UNL     1      -6.364   3.124  25.717  0.00  0.00    +0.116 C 
ENDROOT
BRANCH  12  17
ATOM      5  O   UNL     1      -2.370   2.693  25.879  0.00  0.00    -0.336 OA
ATOM     10  N   UNL     1      -2.076   2.004  23.768  0.00  0.00    -0.190 NA
ATOM     11  N   UNL     1      -1.032   2.290  25.783  0.00  0.00    -0.056 NA
ATOM     17  C   UNL     1      -2.912   2.491  24.650  0.00  0.00    +0.245 A 
ATOM     21  C   UNL     1      -0.936   1.897  24.510  0.00  0.00    +0.202 A 
BRANCH  21  24
ATOM     24  C   UNL     1       0.283   1.392  23.948  0.00  0.00    +0.023 A 
ATOM     26  C   UNL     1       0.345   0.081  23.475  0.00  0.00    +0.015 A 
ATOM     27  C   UNL     1       1.409   2.213  23.875  0.00  0.00    +0.015 A 
ATOM     29  C   UNL     1       1.530  -0.409  22.930  0.00  0.00    +0.046 A 
ATOM     30  C   UNL     1       2.596   1.723  23.330  0.00  0.00    +0.046 A 
ATOM     31  C   UNL     1       2.656   0.411  22.859  0.00  0.00    +0.130 A 
BRANCH  31   7
ATOM      7  O   UNL     1       3.814  -0.067  22.327  0.00  0.00    -0.406 OA
BRANCH   7  32
ATOM      1  F   UNL     1       5.030   0.828  24.006  0.00  0.00    -0.133 F 
ATOM      2  F   UNL     1       4.769  -1.341  23.969  0.00  0.00    -0.133 F 
ATOM      3  F   UNL     1       6.079  -0.348  22.492  0.00  0.00    -0.133 F 
ATOM     32  C   UNL     1       4.929  -0.249  23.193  0.00  0.00    +0.575 C 
ENDBRANCH   7  32
ENDBRANCH  31   7
ENDBRANCH  21  24
ENDBRANCH  12  17
BRANCH  14   4
ATOM      4  O   UNL     1      -6.589   5.528  25.457  0.00  0.00    -0.390 OA
ATOM     33  H   UNL     1      -7.315   5.153  24.929  0.00  0.00    +0.210 HD
ENDBRANCH  14   4
BRANCH   9  16
ATOM     16  C   UNL     1      -5.663   0.878  25.145  0.00  0.00    +0.120 C 
BRANCH  16  18
ATOM     18  C   UNL     1      -4.499  -0.066  25.010  0.00  0.00    -0.033 A 
ATOM     19  C   UNL     1      -4.255  -0.704  23.793  0.00  0.00    +0.006 A 
ATOM     20  C   UNL     1      -3.663  -0.305  26.101  0.00  0.00    +0.006 A 
ATOM     22  C   UNL     1      -3.177  -1.579  23.667  0.00  0.00    +0.015 A 
ATOM     23  C   UNL     1      -2.584  -1.180  25.975  0.00  0.00    +0.015 A 
ATOM     25  C   UNL     1      -2.341  -1.817  24.758  0.00  0.00    +0.059 A 
BRANCH  25  28
ATOM      8  O   UNL     1      -0.257  -2.800  25.403  0.00  0.00    -0.245 OA
ATOM     28  C   UNL     1      -1.215  -2.728  24.627  0.00  0.00    +0.337 C 
BRANCH  28   6
ATOM      6  O   UNL     1      -1.317  -3.525  23.528  0.00  0.00    -0.477 OA
ATOM     34  H   UNL     1      -1.928  -4.278  23.679  0.00  0.00    +0.295 HD
ENDBRANCH  28   6
ENDBRANCH  25  28
ENDBRANCH  16  18
ENDBRANCH   9  16
TORSDOF 9
ENDMDL
