MODEL 1
REMARK VINA RESULT:      -3.5      0.000      0.000
REMARK  Name = 45361598
REMARK  13 active torsions:
REMARK  status: ('A' for Active; 'I' for Inactive)
REMARK    1  A    between atoms: O_2  and  C_11
REMARK    2  A    between atoms: O_5  and  C_26
REMARK    3  A    between atoms: O_5  and  C_29
REMARK    4  A    between atoms: N_6  and  C_15
REMARK    5  A    between atoms: N_7  and  C_25
REMARK    6  A    between atoms: C_8  and  C_18
REMARK    7  A    between atoms: C_10  and  C_20
REMARK    8  A    between atoms: C_14  and  C_19
REMARK    9  A    between atoms: C_19  and  C_21
REMARK   10  A    between atoms: C_19  and  C_22
REMARK   11  A    between atoms: C_23  and  C_24
REMARK   12  A    between atoms: C_24  and  C_26
REMARK   13  A    between atoms: C_25  and  C_27
REMARK                            x       y       z     vdW  Elec       q    Type
REMARK                         _______ _______ _______ _____ _____    ______ ____
ROOT
ATOM      8  C   UNL     1      -2.206  -1.001  25.210  0.00  0.00    -0.027 C 
ATOM      9  C   UNL     1      -2.270   0.130  24.130  0.00  0.00    +0.028 C 
ATOM     10  C   UNL     1      -0.832   0.659  23.788  0.00  0.00    +0.012 C 
ATOM     11  C   UNL     1      -3.309   1.222  24.518  0.00  0.00    +0.122 C 
ATOM     12  C   UNL     1      -3.625  -1.576  25.439  0.00  0.00    +0.007 C 
ATOM     13  C   UNL     1      -1.313  -2.149  24.684  0.00  0.00    +0.009 C 
ATOM     14  C   UNL     1      -4.699   0.630  24.849  0.00  0.00    +0.029 C 
ATOM     15  C   UNL     1       0.080  -0.515  23.334  0.00  0.00    +0.076 C 
ATOM     16  C   UNL     1      -4.635  -0.516  25.858  0.00  0.00    +0.007 C 
ATOM     17  C   UNL     1       0.090  -1.691  24.311  0.00  0.00    +0.023 C 
ATOM     18  C   UNL     1      -1.648  -0.499  26.565  0.00  0.00    +0.011 C 
ATOM     20  C   UNL     1      -0.817   1.756  22.711  0.00  0.00    +0.010 C 
ENDROOT
BRANCH  15   6
ATOM      4  O   UNL     1       1.561  -0.586  20.858  0.00  0.00    -0.276 OA
ATOM      6  N   UNL     1       1.446  -0.085  23.122  0.00  0.00    -0.312 N 
ATOM     23  C   UNL     1       2.073  -0.159  21.889  0.00  0.00    +0.215 C 
ATOM     32  H   UNL     1       1.979   0.226  23.929  0.00  0.00    +0.149 HD
BRANCH  23  24
ATOM     24  C   UNL     1       3.500   0.364  21.960  0.00  0.00    +0.124 C 
BRANCH  24  26
ATOM     26  C   UNL     1       3.781   1.152  23.230  0.00  0.00    +0.168 C 
BRANCH  26   5
ATOM      5  O   UNL     1       5.079   0.829  23.709  0.00  0.00    -0.382 OA
ATOM     29  C   UNL     1       5.251  -0.574  23.842  0.00  0.00    +0.194 C 
ENDBRANCH  26   5
ENDBRANCH  24  26
ENDBRANCH  23  24
ENDBRANCH  15   6
BRANCH  11   2
ATOM      2  O   UNL     1      -3.495   2.115  23.420  0.00  0.00    -0.391 OA
ATOM     33  H   UNL     1      -2.637   2.236  22.980  0.00  0.00    +0.210 HD
ENDBRANCH  11   2
BRANCH  14  19
ATOM     19  C   UNL     1      -5.669   1.705  25.355  0.00  0.00    +0.077 C 
ATOM     21  C   UNL     1      -6.904   1.758  24.464  0.00  0.00    +0.017 C 
BRANCH  19  22
ATOM      3  O   UNL     1      -5.143   3.933  24.566  0.00  0.00    -0.276 OA
ATOM      7  N   UNL     1      -4.115   3.171  26.500  0.00  0.00    -0.310 N 
ATOM     22  C   UNL     1      -4.964   3.057  25.409  0.00  0.00    +0.216 C 
ATOM     34  H   UNL     1      -4.009   2.384  27.135  0.00  0.00    +0.149 HD
BRANCH   7  25
ATOM     25  C   UNL     1      -3.336   4.359  26.764  0.00  0.00    +0.146 C 
BRANCH  25  27
ATOM      1  S   UNL     1      -0.907   3.139  26.192  0.00  0.00    -0.100 S 
ATOM     27  C   UNL     1      -2.062   4.383  25.970  0.00  0.00    +0.007 A 
ATOM     28  C   UNL     1      -1.653   5.307  25.033  0.00  0.00    +0.013 A 
ATOM     30  C   UNL     1      -0.375   4.988  24.492  0.00  0.00    +0.008 A 
ATOM     31  C   UNL     1       0.144   3.834  25.034  0.00  0.00    +0.045 A 
ENDBRANCH  25  27
ENDBRANCH   7  25
ENDBRANCH  19  22
ENDBRANCH  14  19
TORSDOF 9
ENDMDL
