MODEL 1
REMARK VINA RESULT:       1.7      0.000      0.000
REMARK  Name = 51137841
REMARK  7 active torsions:
REMARK  status: ('A' for Active; 'I' for Inactive)
REMARK    1  A    between atoms: O_3  and  C_20
REMARK    2  A    between atoms: O_3  and  C_26
REMARK    3  A    between atoms: O_4  and  C_22
REMARK    4  A    between atoms: O_4  and  C_28
REMARK    5  A    between atoms: C_9  and  C_13
REMARK    6  A    between atoms: C_14  and  C_15
REMARK    7  A    between atoms: C_16  and  C_19
REMARK                            x       y       z     vdW  Elec       q    Type
REMARK                         _______ _______ _______ _____ _____    ______ ____
ROOT
ATOM      2  O   UNL     1      15.660 -10.714  28.216  0.00  0.00    -0.270 OA
ATOM      5  N   UNL     1      14.889  -8.674  27.416  0.00  0.00    -0.297 N 
ATOM      9  C   UNL     1      14.743  -6.450  26.582  0.00  0.00    +0.095 C 
ATOM     10  C   UNL     1      15.387  -7.359  25.522  0.00  0.00    +0.033 C 
ATOM     11  C   UNL     1      14.059  -7.471  27.501  0.00  0.00    +0.121 C 
ATOM     12  C   UNL     1      15.829  -8.584  26.311  0.00  0.00    +0.109 C 
ATOM     14  C   UNL     1      14.893  -9.755  28.284  0.00  0.00    +0.247 C 
ENDROOT
BRANCH  14  15
ATOM     15  C   UNL     1      13.914  -9.750  29.382  0.00  0.00    +0.041 A 
ATOM     17  C   UNL     1      13.918  -8.713  30.316  0.00  0.00    +0.062 A 
ATOM     18  C   UNL     1      12.980 -10.781  29.489  0.00  0.00    +0.017 A 
ATOM     20  C   UNL     1      12.989  -8.709  31.356  0.00  0.00    +0.162 A 
ATOM     21  C   UNL     1      12.051 -10.775  30.529  0.00  0.00    +0.050 A 
ATOM     22  C   UNL     1      12.057  -9.739  31.463  0.00  0.00    +0.162 A 
BRANCH  20   3
ATOM      3  O   UNL     1      13.004  -7.690  32.262  0.00  0.00    -0.491 OA
ATOM     26  C   UNL     1      13.175  -6.370  31.750  0.00  0.00    +0.277 C 
ENDBRANCH  20   3
BRANCH  22   4
ATOM      4  O   UNL     1      11.143  -9.745  32.475  0.00  0.00    -0.491 OA
ATOM     28  C   UNL     1       9.788  -9.469  32.125  0.00  0.00    +0.277 C 
ENDBRANCH  22   4
ENDBRANCH  14  15
BRANCH   9  13
ATOM      1  O   UNL     1      15.591  -5.247  28.547  0.00  0.00    -0.420 OA
ATOM      6  N   UNL     1      16.822  -4.955  26.702  0.00  0.00    -0.112 NA
ATOM      7  N   UNL     1      17.404  -4.229  27.724  0.00  0.00    -0.107 NA
ATOM     13  C   UNL     1      15.766  -5.533  27.228  0.00  0.00    +0.222 A 
ATOM     16  C   UNL     1      16.653  -4.429  28.781  0.00  0.00    +0.250 A 
BRANCH  16  19
ATOM      8  N   UNL     1      16.511  -4.297  32.494  0.00  0.00    -0.263 NA
ATOM     19  C   UNL     1      16.776  -3.928  30.120  0.00  0.00    +0.057 A 
ATOM     23  C   UNL     1      17.255  -2.646  30.364  0.00  0.00    +0.016 A 
ATOM     24  C   UNL     1      16.420  -4.707  31.209  0.00  0.00    +0.124 A 
ATOM     25  C   UNL     1      17.363  -2.189  31.673  0.00  0.00    +0.020 A 
ATOM     27  C   UNL     1      16.981  -3.046  32.693  0.00  0.00    +0.111 A 
ENDBRANCH  16  19
ENDBRANCH   9  13
TORSDOF 5
ENDMDL
MODEL 2
REMARK VINA RESULT:       4.2     17.454     18.924
REMARK  Name = 51137841
REMARK  7 active torsions:
REMARK  status: ('A' for Active; 'I' for Inactive)
REMARK    1  A    between atoms: O_3  and  C_20
REMARK    2  A    between atoms: O_3  and  C_26
REMARK    3  A    between atoms: O_4  and  C_22
REMARK    4  A    between atoms: O_4  and  C_28
REMARK    5  A    between atoms: C_9  and  C_13
REMARK    6  A    between atoms: C_14  and  C_15
REMARK    7  A    between atoms: C_16  and  C_19
REMARK                            x       y       z     vdW  Elec       q    Type
REMARK                         _______ _______ _______ _____ _____    ______ ____
ROOT
ATOM      2  O   UNL     1      -3.304  -1.092  26.626  0.00  0.00    -0.270 OA
ATOM      5  N   UNL     1      -2.419  -0.577  24.542  0.00  0.00    -0.297 N 
ATOM      9  C   UNL     1      -0.950  -0.209  22.706  0.00  0.00    +0.095 C 
ATOM     10  C   UNL     1      -1.004  -1.711  23.033  0.00  0.00    +0.033 C 
ATOM     11  C   UNL     1      -2.219   0.310  23.394  0.00  0.00    +0.121 C 
ATOM     12  C   UNL     1      -1.577  -1.757  24.443  0.00  0.00    +0.109 C 
ATOM     14  C   UNL     1      -3.222  -0.351  25.649  0.00  0.00    +0.247 C 
ENDROOT
BRANCH  14  15
ATOM     15  C   UNL     1      -4.028   0.880  25.665  0.00  0.00    +0.041 A 
ATOM     17  C   UNL     1      -3.406   2.120  25.811  0.00  0.00    +0.062 A 
ATOM     18  C   UNL     1      -5.415   0.807  25.534  0.00  0.00    +0.017 A 
ATOM     20  C   UNL     1      -4.171   3.286  25.825  0.00  0.00    +0.162 A 
ATOM     21  C   UNL     1      -6.179   1.973  25.548  0.00  0.00    +0.050 A 
ATOM     22  C   UNL     1      -5.556   3.213  25.695  0.00  0.00    +0.162 A 
BRANCH  20   3
ATOM      3  O   UNL     1      -3.550   4.491  25.968  0.00  0.00    -0.491 OA
ATOM     26  C   UNL     1      -2.159   4.546  25.657  0.00  0.00    +0.277 C 
ENDBRANCH  20   3
BRANCH  22   4
ATOM      4  O   UNL     1      -6.314   4.346  25.707  0.00  0.00    -0.491 OA
ATOM     28  C   UNL     1      -5.900   5.411  24.853  0.00  0.00    +0.277 C 
ENDBRANCH  22   4
ENDBRANCH  14  15
BRANCH   9  13
ATOM      1  O   UNL     1       1.480  -0.358  23.029  0.00  0.00    -0.420 OA
ATOM      6  N   UNL     1       0.601   1.608  23.636  0.00  0.00    -0.112 NA
ATOM      7  N   UNL     1       1.963   1.658  23.867  0.00  0.00    -0.107 NA
ATOM     13  C   UNL     1       0.364   0.412  23.146  0.00  0.00    +0.222 A 
ATOM     16  C   UNL     1       2.434   0.491  23.499  0.00  0.00    +0.250 A 
BRANCH  16  19
ATOM      8  N   UNL     1       5.266  -1.894  23.846  0.00  0.00    -0.263 NA
ATOM     19  C   UNL     1       3.775  -0.020  23.515  0.00  0.00    +0.057 A 
ATOM     23  C   UNL     1       4.859   0.803  23.230  0.00  0.00    +0.016 A 
ATOM     24  C   UNL     1       4.029  -1.349  23.814  0.00  0.00    +0.124 A 
ATOM     25  C   UNL     1       6.146   0.278  23.254  0.00  0.00    +0.020 A 
ATOM     27  C   UNL     1       6.295  -1.064  23.564  0.00  0.00    +0.111 A 
ENDBRANCH  16  19
ENDBRANCH   9  13
TORSDOF 5
ENDMDL
MODEL 3
REMARK VINA RESULT:       4.6      2.689      4.039
REMARK  Name = 51137841
REMARK  7 active torsions:
REMARK  status: ('A' for Active; 'I' for Inactive)
REMARK    1  A    between atoms: O_3  and  C_20
REMARK    2  A    between atoms: O_3  and  C_26
REMARK    3  A    between atoms: O_4  and  C_22
REMARK    4  A    between atoms: O_4  and  C_28
REMARK    5  A    between atoms: C_9  and  C_13
REMARK    6  A    between atoms: C_14  and  C_15
REMARK    7  A    between atoms: C_16  and  C_19
REMARK                            x       y       z     vdW  Elec       q    Type
REMARK                         _______ _______ _______ _____ _____    ______ ____
ROOT
ATOM      2  O   UNL     1      16.843  -9.618  30.548  0.00  0.00    -0.270 OA
ATOM      5  N   UNL     1      16.014  -8.757  28.557  0.00  0.00    -0.297 N 
ATOM      9  C   UNL     1      15.756  -7.588  26.500  0.00  0.00    +0.095 C 
ATOM     10  C   UNL     1      16.809  -8.696  26.336  0.00  0.00    +0.033 C 
ATOM     11  C   UNL     1      15.013  -8.041  27.763  0.00  0.00    +0.121 C 
ATOM     12  C   UNL     1      17.200  -9.042  27.766  0.00  0.00    +0.109 C 
ATOM     14  C   UNL     1      15.945  -9.079  29.903  0.00  0.00    +0.247 C 
ENDROOT
BRANCH  14  15
ATOM     15  C   UNL     1      14.708  -8.738  30.622  0.00  0.00    +0.041 A 
ATOM     17  C   UNL     1      14.551  -7.466  31.175  0.00  0.00    +0.062 A 
ATOM     18  C   UNL     1      13.692  -9.685  30.752  0.00  0.00    +0.017 A 
ATOM     20  C   UNL     1      13.378  -7.142  31.857  0.00  0.00    +0.162 A 
ATOM     21  C   UNL     1      12.520  -9.360  31.434  0.00  0.00    +0.050 A 
ATOM     22  C   UNL     1      12.363  -8.089  31.987  0.00  0.00    +0.162 A 
BRANCH  20   3
ATOM      3  O   UNL     1      13.237  -5.897  32.391  0.00  0.00    -0.491 OA
ATOM     26  C   UNL     1      12.686  -4.887  31.548  0.00  0.00    +0.277 C 
ENDBRANCH  20   3
BRANCH  22   4
ATOM      4  O   UNL     1      11.212  -7.784  32.650  0.00  0.00    -0.491 OA
ATOM     28  C   UNL     1      10.238  -8.820  32.766  0.00  0.00    +0.277 C 
ENDBRANCH  22   4
ENDBRANCH  14  15
BRANCH   9  13
ATOM      1  O   UNL     1      16.332  -5.465  25.408  0.00  0.00    -0.420 OA
ATOM      6  N   UNL     1      17.017  -5.610  27.534  0.00  0.00    -0.112 NA
ATOM      7  N   UNL     1      17.403  -4.376  27.043  0.00  0.00    -0.107 NA
ATOM     13  C   UNL     1      16.395  -6.211  26.545  0.00  0.00    +0.222 A 
ATOM     16  C   UNL     1      16.982  -4.335  25.801  0.00  0.00    +0.250 A 
BRANCH  16  19
ATOM      8  N   UNL     1      17.405  -2.694  22.492  0.00  0.00    -0.263 NA
ATOM     19  C   UNL     1      17.100  -3.304  24.811  0.00  0.00    +0.057 A 
ATOM     23  C   UNL     1      17.029  -1.961  25.163  0.00  0.00    +0.016 A 
ATOM     24  C   UNL     1      17.288  -3.616  23.474  0.00  0.00    +0.124 A 
ATOM     25  C   UNL     1      17.147  -0.984  24.180  0.00  0.00    +0.020 A 
ATOM     27  C   UNL     1      17.332  -1.399  22.871  0.00  0.00    +0.111 A 
ENDBRANCH  16  19
ENDBRANCH   9  13
TORSDOF 5
ENDMDL
MODEL 4
REMARK VINA RESULT:       5.7     17.190     18.656
REMARK  Name = 51137841
REMARK  7 active torsions:
REMARK  status: ('A' for Active; 'I' for Inactive)
REMARK    1  A    between atoms: O_3  and  C_20
REMARK    2  A    between atoms: O_3  and  C_26
REMARK    3  A    between atoms: O_4  and  C_22
REMARK    4  A    between atoms: O_4  and  C_28
REMARK    5  A    between atoms: C_9  and  C_13
REMARK    6  A    between atoms: C_14  and  C_15
REMARK    7  A    between atoms: C_16  and  C_19
REMARK                            x       y       z     vdW  Elec       q    Type
REMARK                         _______ _______ _______ _____ _____    ______ ____
ROOT
ATOM      2  O   UNL     1      -0.553   1.438  27.321  0.00  0.00    -0.270 OA
ATOM      5  N   UNL     1      -1.067   0.549  25.239  0.00  0.00    -0.297 N 
ATOM      9  C   UNL     1      -0.994  -0.625  23.170  0.00  0.00    +0.095 C 
ATOM     10  C   UNL     1      -1.045  -1.630  24.332  0.00  0.00    +0.033 C 
ATOM     11  C   UNL     1      -1.489   0.663  23.841  0.00  0.00    +0.121 C 
ATOM     12  C   UNL     1      -0.635  -0.805  25.545  0.00  0.00    +0.109 C 
ATOM     14  C   UNL     1      -0.984   1.565  26.177  0.00  0.00    +0.247 C 
ENDROOT
BRANCH  14  15
ATOM     15  C   UNL     1      -1.431   2.906  25.769  0.00  0.00    +0.041 A 
ATOM     17  C   UNL     1      -2.793   3.207  25.734  0.00  0.00    +0.062 A 
ATOM     18  C   UNL     1      -0.494   3.878  25.417  0.00  0.00    +0.017 A 
ATOM     20  C   UNL     1      -3.217   4.478  25.348  0.00  0.00    +0.162 A 
ATOM     21  C   UNL     1      -0.918   5.148  25.031  0.00  0.00    +0.050 A 
ATOM     22  C   UNL     1      -2.280   5.448  24.996  0.00  0.00    +0.162 A 
BRANCH  20   3
ATOM      3  O   UNL     1      -4.550   4.758  25.319  0.00  0.00    -0.491 OA
ATOM     26  C   UNL     1      -5.447   3.675  25.555  0.00  0.00    +0.277 C 
ENDBRANCH  20   3
BRANCH  22   4
ATOM      4  O   UNL     1      -2.682   6.695  24.618  0.00  0.00    -0.491 OA
ATOM     28  C   UNL     1      -3.101   6.857  23.263  0.00  0.00    +0.277 C 
ENDBRANCH  22   4
ENDBRANCH  14  15
BRANCH   9  13
ATOM      1  O   UNL     1       1.449  -0.487  23.380  0.00  0.00    -0.420 OA
ATOM      6  N   UNL     1       0.723  -0.596  21.266  0.00  0.00    -0.112 NA
ATOM      7  N   UNL     1       2.103  -0.523  21.241  0.00  0.00    -0.107 NA
ATOM     13  C   UNL     1       0.385  -0.572  22.535  0.00  0.00    +0.222 A 
ATOM     16  C   UNL     1       2.483  -0.461  22.496  0.00  0.00    +0.250 A 
BRANCH  16  19
ATOM      8  N   UNL     1       5.596  -1.438  24.279  0.00  0.00    -0.263 NA
ATOM     19  C   UNL     1       3.796  -0.372  23.068  0.00  0.00    +0.057 A 
ATOM     23  C   UNL     1       4.534   0.803  22.989  0.00  0.00    +0.016 A 
ATOM     24  C   UNL     1       4.366  -1.455  23.718  0.00  0.00    +0.124 A 
ATOM     25  C   UNL     1       5.804   0.859  23.554  0.00  0.00    +0.020 A 
ATOM     27  C   UNL     1       6.284  -0.279  24.182  0.00  0.00    +0.111 A 
ENDBRANCH  16  19
ENDBRANCH   9  13
TORSDOF 5
ENDMDL
MODEL 5
REMARK VINA RESULT:       5.7     18.112     19.624
REMARK  Name = 51137841
REMARK  7 active torsions:
REMARK  status: ('A' for Active; 'I' for Inactive)
REMARK    1  A    between atoms: O_3  and  C_20
REMARK    2  A    between atoms: O_3  and  C_26
REMARK    3  A    between atoms: O_4  and  C_22
REMARK    4  A    between atoms: O_4  and  C_28
REMARK    5  A    between atoms: C_9  and  C_13
REMARK    6  A    between atoms: C_14  and  C_15
REMARK    7  A    between atoms: C_16  and  C_19
REMARK                            x       y       z     vdW  Elec       q    Type
REMARK                         _______ _______ _______ _____ _____    ______ ____
ROOT
ATOM      2  O   UNL     1      -3.844   4.602  22.928  0.00  0.00    -0.270 OA
ATOM      5  N   UNL     1      -2.118   3.893  24.310  0.00  0.00    -0.297 N 
ATOM      9  C   UNL     1      -0.049   3.069  25.149  0.00  0.00    +0.095 C 
ATOM     10  C   UNL     1       0.169   4.444  24.497  0.00  0.00    +0.033 C 
ATOM     11  C   UNL     1      -1.565   3.067  25.385  0.00  0.00    +0.121 C 
ATOM     12  C   UNL     1      -1.069   4.638  23.632  0.00  0.00    +0.109 C 
ATOM     14  C   UNL     1      -3.436   3.947  23.885  0.00  0.00    +0.247 C 
ENDROOT
BRANCH  14  15
ATOM     15  C   UNL     1      -4.423   3.147  24.626  0.00  0.00    +0.041 A 
ATOM     17  C   UNL     1      -4.373   1.754  24.574  0.00  0.00    +0.062 A 
ATOM     18  C   UNL     1      -5.410   3.782  25.381  0.00  0.00    +0.017 A 
ATOM     20  C   UNL     1      -5.309   0.996  25.277  0.00  0.00    +0.162 A 
ATOM     21  C   UNL     1      -6.345   3.023  26.084  0.00  0.00    +0.050 A 
ATOM     22  C   UNL     1      -6.295   1.630  26.031  0.00  0.00    +0.162 A 
BRANCH  20   3
ATOM      3  O   UNL     1      -5.248  -0.364  25.218  0.00  0.00    -0.491 OA
ATOM     26  C   UNL     1      -4.090  -0.937  24.615  0.00  0.00    +0.277 C 
ENDBRANCH  20   3
BRANCH  22   4
ATOM      4  O   UNL     1      -7.215   0.900  26.724  0.00  0.00    -0.491 OA
ATOM     28  C   UNL     1      -7.073   0.859  28.143  0.00  0.00    +0.277 C 
ENDBRANCH  22   4
ENDBRANCH  14  15
BRANCH   9  13
ATOM      1  O   UNL     1       1.830   1.662  24.429  0.00  0.00    -0.420 OA
ATOM      6  N   UNL     1      -0.104   1.187  23.410  0.00  0.00    -0.112 NA
ATOM      7  N   UNL     1       0.861   0.330  22.916  0.00  0.00    -0.107 NA
ATOM     13  C   UNL     1       0.507   1.947  24.290  0.00  0.00    +0.222 A 
ATOM     16  C   UNL     1       1.973   0.643  23.538  0.00  0.00    +0.250 A 
BRANCH  16  19
ATOM      8  N   UNL     1       4.751  -1.824  23.663  0.00  0.00    -0.263 NA
ATOM     19  C   UNL     1       3.291   0.088  23.427  0.00  0.00    +0.057 A 
ATOM     23  C   UNL     1       4.362   0.863  22.997  0.00  0.00    +0.016 A 
ATOM     24  C   UNL     1       3.536  -1.239  23.745  0.00  0.00    +0.124 A 
ATOM     25  C   UNL     1       5.628   0.296  22.900  0.00  0.00    +0.020 A 
ATOM     27  C   UNL     1       5.768  -1.040  23.242  0.00  0.00    +0.111 A 
ENDBRANCH  16  19
ENDBRANCH   9  13
TORSDOF 5
ENDMDL
