MODEL 1
REMARK VINA RESULT:      -5.5      0.000      0.000
REMARK  Name = 86769007
REMARK  12 active torsions:
REMARK  status: ('A' for Active; 'I' for Inactive)
REMARK    1  A    between atoms: O_2  and  C_8
REMARK    2  A    between atoms: N_4  and  C_7
REMARK    3  A    between atoms: N_4  and  C_12
REMARK    4  A    between atoms: N_5  and  C_13
REMARK    5  A    between atoms: N_6  and  C_18
REMARK    6  A    between atoms: C_9  and  C_13
REMARK    7  A    between atoms: C_11  and  C_12
REMARK    8  A    between atoms: C_11  and  C_14
REMARK    9  A    between atoms: C_11  and  C_15
REMARK   10  A    between atoms: C_11  and  C_16
REMARK   11  A    between atoms: C_18  and  C_19
REMARK   12  A    between atoms: C_18  and  C_20
REMARK                            x       y       z     vdW  Elec       q    Type
REMARK                         _______ _______ _______ _____ _____    ______ ____
ROOT
ATOM      1  O   UNL     1      -2.250   2.814  23.177  0.00  0.00    -0.371 OA
ATOM      7  C   UNL     1      -4.121   1.803  24.235  0.00  0.00    +0.111 C 
ATOM      8  C   UNL     1      -3.265   2.483  25.287  0.00  0.00    +0.164 C 
ATOM      9  C   UNL     1      -2.481   3.471  24.434  0.00  0.00    +0.165 C 
ATOM     10  C   UNL     1      -3.141   1.689  23.078  0.00  0.00    +0.181 C 
ENDROOT
BRANCH   8   2
ATOM      2  O   UNL     1      -4.035   3.137  26.278  0.00  0.00    -0.388 OA
ATOM     22  H   UNL     1      -4.265   2.487  26.964  0.00  0.00    +0.210 HD
ENDBRANCH   8   2
BRANCH   7   4
ATOM      4  N   UNL     1      -4.651   0.517  24.657  0.00  0.00    -0.308 NA
ATOM     21  H   UNL     1      -5.660   0.513  24.518  0.00  0.00    +0.122 HD
BRANCH   4  12
ATOM     12  C   UNL     1      -4.055  -0.573  23.893  0.00  0.00    +0.087 C 
BRANCH  12  11
ATOM     11  C   UNL     1      -3.240  -1.575  24.750  0.00  0.00    -0.025 C 
ATOM     14  C   UNL     1      -3.421  -1.298  26.253  0.00  0.00    +0.012 C 
ATOM     15  C   UNL     1      -1.743  -1.507  24.397  0.00  0.00    +0.012 C 
ATOM     16  C   UNL     1      -3.753  -2.996  24.449  0.00  0.00    +0.012 C 
ENDBRANCH  12  11
ENDBRANCH   4  12
ENDBRANCH   7   4
BRANCH   9  13
ATOM     13  C   UNL     1      -1.155   3.878  25.052  0.00  0.00    +0.140 C 
BRANCH  13   5
ATOM      3  O   UNL     1      -0.051   1.211  25.080  0.00  0.00    -0.253 OA
ATOM      5  N   UNL     1      -0.048   3.392  24.279  0.00  0.00    -0.297 N 
ATOM      6  N   UNL     1       1.508   1.878  23.496  0.00  0.00    -0.297 N 
ATOM     17  C   UNL     1       0.427   2.080  24.351  0.00  0.00    +0.300 C 
ATOM     23  H   UNL     1       0.423   4.041  23.657  0.00  0.00    +0.150 HD
ATOM     24  H   UNL     1       1.782   2.636  22.878  0.00  0.00    +0.150 HD
BRANCH   6  18
ATOM     18  C   UNL     1       2.187   0.609  23.379  0.00  0.00    +0.068 C 
ATOM     19  C   UNL     1       1.382  -0.349  22.509  0.00  0.00    +0.027 C 
ATOM     20  C   UNL     1       3.591   0.809  22.825  0.00  0.00    +0.027 C 
ENDBRANCH   6  18
ENDBRANCH  13   5
ENDBRANCH   9  13
TORSDOF 7
ENDMDL
MODEL 2
REMARK VINA RESULT:      -5.3      2.086      4.880
REMARK  Name = 86769007
REMARK  12 active torsions:
REMARK  status: ('A' for Active; 'I' for Inactive)
REMARK    1  A    between atoms: O_2  and  C_8
REMARK    2  A    between atoms: N_4  and  C_7
REMARK    3  A    between atoms: N_4  and  C_12
REMARK    4  A    between atoms: N_5  and  C_13
REMARK    5  A    between atoms: N_6  and  C_18
REMARK    6  A    between atoms: C_9  and  C_13
REMARK    7  A    between atoms: C_11  and  C_12
REMARK    8  A    between atoms: C_11  and  C_14
REMARK    9  A    between atoms: C_11  and  C_15
REMARK   10  A    between atoms: C_11  and  C_16
REMARK   11  A    between atoms: C_18  and  C_19
REMARK   12  A    between atoms: C_18  and  C_20
REMARK                            x       y       z     vdW  Elec       q    Type
REMARK                         _______ _______ _______ _____ _____    ______ ____
ROOT
ATOM      1  O   UNL     1      -0.522   1.541  26.018  0.00  0.00    -0.371 OA
ATOM      7  C   UNL     1      -0.300  -0.528  24.872  0.00  0.00    +0.111 C 
ATOM      8  C   UNL     1      -0.319   0.601  23.858  0.00  0.00    +0.164 C 
ATOM      9  C   UNL     1       0.067   1.787  24.731  0.00  0.00    +0.165 C 
ATOM     10  C   UNL     1      -0.898   0.154  26.092  0.00  0.00    +0.181 C 
ENDROOT
BRANCH   8   2
ATOM      2  O   UNL     1       0.601   0.401  22.801  0.00  0.00    -0.388 OA
ATOM     22  H   UNL     1       0.248   0.832  22.003  0.00  0.00    +0.210 HD
ENDBRANCH   8   2
BRANCH   7   4
ATOM      4  N   UNL     1      -1.051  -1.700  24.454  0.00  0.00    -0.308 NA
ATOM     21  H   UNL     1      -1.280  -2.258  25.275  0.00  0.00    +0.122 HD
BRANCH   4  12
ATOM     12  C   UNL     1      -2.282  -1.320  23.771  0.00  0.00    +0.087 C 
BRANCH  12  11
ATOM     11  C   UNL     1      -3.575  -1.733  24.520  0.00  0.00    -0.025 C 
ATOM     14  C   UNL     1      -3.253  -2.603  25.748  0.00  0.00    +0.012 C 
ATOM     15  C   UNL     1      -4.526  -2.504  23.587  0.00  0.00    +0.012 C 
ATOM     16  C   UNL     1      -4.285  -0.453  24.999  0.00  0.00    +0.012 C 
ENDBRANCH  12  11
ENDBRANCH   4  12
ENDBRANCH   7   4
BRANCH   9  13
ATOM     13  C   UNL     1      -0.422   3.117  24.188  0.00  0.00    +0.140 C 
BRANCH  13   5
ATOM      3  O   UNL     1      -3.173   2.520  23.553  0.00  0.00    -0.253 OA
ATOM      5  N   UNL     1      -1.590   3.569  24.890  0.00  0.00    -0.297 N 
ATOM      6  N   UNL     1      -3.835   3.806  25.368  0.00  0.00    -0.297 N 
ATOM     17  C   UNL     1      -2.893   3.233  24.516  0.00  0.00    +0.300 C 
ATOM     23  H   UNL     1      -1.461   4.177  25.692  0.00  0.00    +0.150 HD
ATOM     24  H   UNL     1      -3.503   4.317  26.180  0.00  0.00    +0.150 HD
BRANCH   6  18
ATOM     18  C   UNL     1      -5.257   3.617  25.203  0.00  0.00    +0.068 C 
ATOM     19  C   UNL     1      -5.741   2.442  26.046  0.00  0.00    +0.027 C 
ATOM     20  C   UNL     1      -6.006   4.895  25.556  0.00  0.00    +0.027 C 
ENDBRANCH   6  18
ENDBRANCH  13   5
ENDBRANCH   9  13
TORSDOF 7
ENDMDL
MODEL 3
REMARK VINA RESULT:      -5.1      2.154      4.874
REMARK  Name = 86769007
REMARK  12 active torsions:
REMARK  status: ('A' for Active; 'I' for Inactive)
REMARK    1  A    between atoms: O_2  and  C_8
REMARK    2  A    between atoms: N_4  and  C_7
REMARK    3  A    between atoms: N_4  and  C_12
REMARK    4  A    between atoms: N_5  and  C_13
REMARK    5  A    between atoms: N_6  and  C_18
REMARK    6  A    between atoms: C_9  and  C_13
REMARK    7  A    between atoms: C_11  and  C_12
REMARK    8  A    between atoms: C_11  and  C_14
REMARK    9  A    between atoms: C_11  and  C_15
REMARK   10  A    between atoms: C_11  and  C_16
REMARK   11  A    between atoms: C_18  and  C_19
REMARK   12  A    between atoms: C_18  and  C_20
REMARK                            x       y       z     vdW  Elec       q    Type
REMARK                         _______ _______ _______ _____ _____    ______ ____
ROOT
ATOM      1  O   UNL     1      -0.003   3.116  25.813  0.00  0.00    -0.371 OA
ATOM      7  C   UNL     1      -0.371   1.330  24.290  0.00  0.00    +0.111 C 
ATOM      8  C   UNL     1      -1.409   2.410  24.048  0.00  0.00    +0.164 C 
ATOM      9  C   UNL     1      -0.730   3.617  24.680  0.00  0.00    +0.165 C 
ATOM     10  C   UNL     1       0.114   1.688  25.686  0.00  0.00    +0.181 C 
ENDROOT
BRANCH   8   2
ATOM      2  O   UNL     1      -1.674   2.614  22.673  0.00  0.00    -0.388 OA
ATOM     22  H   UNL     1      -2.000   3.523  22.556  0.00  0.00    +0.210 HD
ENDBRANCH   8   2
BRANCH   7   4
ATOM      4  N   UNL     1      -0.903  -0.020  24.204  0.00  0.00    -0.308 NA
ATOM     21  H   UNL     1      -0.501  -0.582  24.953  0.00  0.00    +0.122 HD
BRANCH   4  12
ATOM     12  C   UNL     1      -2.356  -0.021  24.327  0.00  0.00    +0.087 C 
BRANCH  12  11
ATOM     11  C   UNL     1      -2.955  -1.393  24.727  0.00  0.00    -0.025 C 
ATOM     14  C   UNL     1      -4.172  -1.746  23.853  0.00  0.00    +0.012 C 
ATOM     15  C   UNL     1      -3.375  -1.397  26.208  0.00  0.00    +0.012 C 
ATOM     16  C   UNL     1      -1.875  -2.471  24.519  0.00  0.00    +0.012 C 
ENDBRANCH  12  11
ENDBRANCH   4  12
ENDBRANCH   7   4
BRANCH   9  13
ATOM     13  C   UNL     1      -1.707   4.688  25.131  0.00  0.00    +0.140 C 
BRANCH  13   5
ATOM      3  O   UNL     1      -4.110   3.531  24.027  0.00  0.00    -0.253 OA
ATOM      5  N   UNL     1      -2.806   4.120  25.857  0.00  0.00    -0.297 N 
ATOM      6  N   UNL     1      -4.848   3.096  26.183  0.00  0.00    -0.297 N 
ATOM     17  C   UNL     1      -3.938   3.577  25.245  0.00  0.00    +0.300 C 
ATOM     23  H   UNL     1      -2.764   4.125  26.871  0.00  0.00    +0.150 HD
ATOM     24  H   UNL     1      -4.583   3.110  27.164  0.00  0.00    +0.150 HD
BRANCH   6  18
ATOM     18  C   UNL     1      -6.104   2.485  25.814  0.00  0.00    +0.068 C 
ATOM     19  C   UNL     1      -5.909   1.526  24.645  0.00  0.00    +0.027 C 
ATOM     20  C   UNL     1      -6.720   1.775  27.013  0.00  0.00    +0.027 C 
ENDBRANCH   6  18
ENDBRANCH  13   5
ENDBRANCH   9  13
TORSDOF 7
ENDMDL
MODEL 4
REMARK VINA RESULT:      -5.1      2.031      4.606
REMARK  Name = 86769007
REMARK  12 active torsions:
REMARK  status: ('A' for Active; 'I' for Inactive)
REMARK    1  A    between atoms: O_2  and  C_8
REMARK    2  A    between atoms: N_4  and  C_7
REMARK    3  A    between atoms: N_4  and  C_12
REMARK    4  A    between atoms: N_5  and  C_13
REMARK    5  A    between atoms: N_6  and  C_18
REMARK    6  A    between atoms: C_9  and  C_13
REMARK    7  A    between atoms: C_11  and  C_12
REMARK    8  A    between atoms: C_11  and  C_14
REMARK    9  A    between atoms: C_11  and  C_15
REMARK   10  A    between atoms: C_11  and  C_16
REMARK   11  A    between atoms: C_18  and  C_19
REMARK   12  A    between atoms: C_18  and  C_20
REMARK                            x       y       z     vdW  Elec       q    Type
REMARK                         _______ _______ _______ _____ _____    ______ ____
ROOT
ATOM      1  O   UNL     1       0.098   3.322  23.564  0.00  0.00    -0.371 OA
ATOM      7  C   UNL     1      -1.129   3.828  25.534  0.00  0.00    +0.111 C 
ATOM      8  C   UNL     1      -0.679   2.380  25.590  0.00  0.00    +0.164 C 
ATOM      9  C   UNL     1       0.473   2.393  24.593  0.00  0.00    +0.165 C 
ATOM     10  C   UNL     1      -0.988   4.130  24.051  0.00  0.00    +0.181 C 
ENDROOT
BRANCH   8   2
ATOM      2  O   UNL     1      -0.254   1.989  26.881  0.00  0.00    -0.388 OA
ATOM     22  H   UNL     1       0.548   2.491  27.104  0.00  0.00    +0.210 HD
ENDBRANCH   8   2
BRANCH   7   4
ATOM      4  N   UNL     1      -2.479   4.038  26.029  0.00  0.00    -0.308 NA
ATOM     21  H   UNL     1      -2.934   4.749  25.459  0.00  0.00    +0.122 HD
BRANCH   4  12
ATOM     12  C   UNL     1      -3.257   2.806  25.975  0.00  0.00    +0.087 C 
BRANCH  12  11
ATOM     11  C   UNL     1      -4.504   2.884  25.058  0.00  0.00    -0.025 C 
ATOM     14  C   UNL     1      -5.366   1.615  25.179  0.00  0.00    +0.012 C 
ATOM     15  C   UNL     1      -4.091   3.080  23.588  0.00  0.00    +0.012 C 
ATOM     16  C   UNL     1      -5.350   4.094  25.496  0.00  0.00    +0.012 C 
ENDBRANCH  12  11
ENDBRANCH   4  12
ENDBRANCH   7   4
BRANCH   9  13
ATOM     13  C   UNL     1       0.751   1.032  23.980  0.00  0.00    +0.140 C 
BRANCH  13   5
ATOM      3  O   UNL     1      -0.574  -0.887  25.680  0.00  0.00    -0.253 OA
ATOM      5  N   UNL     1      -0.467   0.326  23.701  0.00  0.00    -0.297 N 
ATOM      6  N   UNL     1      -2.221  -1.128  24.063  0.00  0.00    -0.297 N 
ATOM     17  C   UNL     1      -1.046  -0.591  24.582  0.00  0.00    +0.300 C 
ATOM     23  H   UNL     1      -0.923   0.493  22.811  0.00  0.00    +0.150 HD
ATOM     24  H   UNL     1      -2.569  -0.765  23.181  0.00  0.00    +0.150 HD
BRANCH   6  18
ATOM     18  C   UNL     1      -3.017  -2.102  24.772  0.00  0.00    +0.068 C 
ATOM     19  C   UNL     1      -3.564  -1.507  26.064  0.00  0.00    +0.027 C 
ATOM     20  C   UNL     1      -4.141  -2.617  23.883  0.00  0.00    +0.027 C 
ENDBRANCH   6  18
ENDBRANCH  13   5
ENDBRANCH   9  13
TORSDOF 7
ENDMDL
MODEL 5
REMARK VINA RESULT:      -5.0      1.996      4.843
REMARK  Name = 86769007
REMARK  12 active torsions:
REMARK  status: ('A' for Active; 'I' for Inactive)
REMARK    1  A    between atoms: O_2  and  C_8
REMARK    2  A    between atoms: N_4  and  C_7
REMARK    3  A    between atoms: N_4  and  C_12
REMARK    4  A    between atoms: N_5  and  C_13
REMARK    5  A    between atoms: N_6  and  C_18
REMARK    6  A    between atoms: C_9  and  C_13
REMARK    7  A    between atoms: C_11  and  C_12
REMARK    8  A    between atoms: C_11  and  C_14
REMARK    9  A    between atoms: C_11  and  C_15
REMARK   10  A    between atoms: C_11  and  C_16
REMARK   11  A    between atoms: C_18  and  C_19
REMARK   12  A    between atoms: C_18  and  C_20
REMARK                            x       y       z     vdW  Elec       q    Type
REMARK                         _______ _______ _______ _____ _____    ______ ____
ROOT
ATOM      1  O   UNL     1      -4.656   3.347  26.301  0.00  0.00    -0.371 OA
ATOM      7  C   UNL     1      -2.889   4.207  24.967  0.00  0.00    +0.111 C 
ATOM      8  C   UNL     1      -3.603   3.113  24.196  0.00  0.00    +0.164 C 
ATOM      9  C   UNL     1      -4.942   3.070  24.920  0.00  0.00    +0.165 C 
ATOM     10  C   UNL     1      -3.337   3.915  26.390  0.00  0.00    +0.181 C 
ENDROOT
BRANCH   8   2
ATOM      2  O   UNL     1      -3.755   3.422  22.824  0.00  0.00    -0.388 OA
ATOM     22  H   UNL     1      -2.875   3.415  22.410  0.00  0.00    +0.210 HD
ENDBRANCH   8   2
BRANCH   7   4
ATOM      4  N   UNL     1      -1.444   4.181  24.812  0.00  0.00    -0.308 NA
ATOM     21  H   UNL     1      -1.011   4.229  25.734  0.00  0.00    +0.122 HD
BRANCH   4  12
ATOM     12  C   UNL     1      -1.009   2.964  24.137  0.00  0.00    +0.087 C 
BRANCH  12  11
ATOM     11  C   UNL     1      -0.196   1.998  25.036  0.00  0.00    -0.025 C 
ATOM     14  C   UNL     1      -1.078   0.853  25.565  0.00  0.00    +0.012 C 
ATOM     15  C   UNL     1       0.427   2.751  26.226  0.00  0.00    +0.012 C 
ATOM     16  C   UNL     1       0.939   1.391  24.190  0.00  0.00    +0.012 C 
ENDBRANCH  12  11
ENDBRANCH   4  12
ENDBRANCH   7   4
BRANCH   9  13
ATOM     13  C   UNL     1      -5.647   1.731  24.801  0.00  0.00    +0.140 C 
BRANCH  13   5
ATOM      3  O   UNL     1      -4.322  -0.510  23.555  0.00  0.00    -0.253 OA
ATOM      5  N   UNL     1      -4.906   0.691  25.456  0.00  0.00    -0.297 N 
ATOM      6  N   UNL     1      -3.641  -1.229  25.654  0.00  0.00    -0.297 N 
ATOM     17  C   UNL     1      -4.291  -0.364  24.776  0.00  0.00    +0.300 C 
ATOM     23  H   UNL     1      -4.837   0.717  26.468  0.00  0.00    +0.150 HD
ATOM     24  H   UNL     1      -3.608  -0.983  26.638  0.00  0.00    +0.150 HD
BRANCH   6  18
ATOM     18  C   UNL     1      -2.927  -2.403  25.209  0.00  0.00    +0.068 C 
ATOM     19  C   UNL     1      -3.749  -3.172  24.183  0.00  0.00    +0.027 C 
ATOM     20  C   UNL     1      -1.566  -2.013  24.646  0.00  0.00    +0.027 C 
ENDBRANCH   6  18
ENDBRANCH  13   5
ENDBRANCH   9  13
TORSDOF 7
ENDMDL
MODEL 6
REMARK VINA RESULT:      -4.0      2.363      3.797
REMARK  Name = 86769007
REMARK  12 active torsions:
REMARK  status: ('A' for Active; 'I' for Inactive)
REMARK    1  A    between atoms: O_2  and  C_8
REMARK    2  A    between atoms: N_4  and  C_7
REMARK    3  A    between atoms: N_4  and  C_12
REMARK    4  A    between atoms: N_5  and  C_13
REMARK    5  A    between atoms: N_6  and  C_18
REMARK    6  A    between atoms: C_9  and  C_13
REMARK    7  A    between atoms: C_11  and  C_12
REMARK    8  A    between atoms: C_11  and  C_14
REMARK    9  A    between atoms: C_11  and  C_15
REMARK   10  A    between atoms: C_11  and  C_16
REMARK   11  A    between atoms: C_18  and  C_19
REMARK   12  A    between atoms: C_18  and  C_20
REMARK                            x       y       z     vdW  Elec       q    Type
REMARK                         _______ _______ _______ _____ _____    ______ ____
ROOT
ATOM      1  O   UNL     1      -0.495   3.393  24.016  0.00  0.00    -0.371 OA
ATOM      7  C   UNL     1      -2.662   4.176  24.593  0.00  0.00    +0.111 C 
ATOM      8  C   UNL     1      -2.122   3.332  25.732  0.00  0.00    +0.164 C 
ATOM      9  C   UNL     1      -0.626   3.378  25.447  0.00  0.00    +0.165 C 
ATOM     10  C   UNL     1      -1.769   3.738  23.444  0.00  0.00    +0.181 C 
ENDROOT
BRANCH   8   2
ATOM      2  O   UNL     1      -2.433   3.867  27.004  0.00  0.00    -0.388 OA
ATOM     22  H   UNL     1      -3.273   3.479  27.302  0.00  0.00    +0.210 HD
ENDBRANCH   8   2
BRANCH   7   4
ATOM      4  N   UNL     1      -4.075   3.960  24.327  0.00  0.00    -0.308 NA
ATOM     21  H   UNL     1      -4.348   4.516  23.518  0.00  0.00    +0.122 HD
BRANCH   4  12
ATOM     12  C   UNL     1      -4.350   2.553  24.060  0.00  0.00    +0.087 C 
BRANCH  12  11
ATOM     11  C   UNL     1      -5.339   1.901  25.059  0.00  0.00    -0.025 C 
ATOM     14  C   UNL     1      -5.592   2.816  26.270  0.00  0.00    +0.012 C 
ATOM     15  C   UNL     1      -4.806   0.543  25.551  0.00  0.00    +0.012 C 
ATOM     16  C   UNL     1      -6.677   1.670  24.332  0.00  0.00    +0.012 C 
ENDBRANCH  12  11
ENDBRANCH   4  12
ENDBRANCH   7   4
BRANCH   9  13
ATOM     13  C   UNL     1       0.131   2.192  26.019  0.00  0.00    +0.140 C 
BRANCH  13   5
ATOM      3  O   UNL     1      -0.493   0.325  23.909  0.00  0.00    -0.253 OA
ATOM      5  N   UNL     1      -0.708   1.032  26.111  0.00  0.00    -0.297 N 
ATOM      6  N   UNL     1      -1.807  -0.869  25.402  0.00  0.00    -0.297 N 
ATOM     17  C   UNL     1      -0.960   0.175  25.037  0.00  0.00    +0.300 C 
ATOM     23  H   UNL     1      -1.153   0.832  27.001  0.00  0.00    +0.150 HD
ATOM     24  H   UNL     1      -2.080  -0.950  26.377  0.00  0.00    +0.150 HD
BRANCH   6  18
ATOM     18  C   UNL     1      -2.227  -1.896  24.478  0.00  0.00    +0.068 C 
ATOM     19  C   UNL     1      -1.097  -2.888  24.232  0.00  0.00    +0.027 C 
ATOM     20  C   UNL     1      -3.474  -2.599  24.998  0.00  0.00    +0.027 C 
ENDBRANCH   6  18
ENDBRANCH  13   5
ENDBRANCH   9  13
TORSDOF 7
ENDMDL
MODEL 7
REMARK VINA RESULT:      -4.0      1.991      4.429
REMARK  Name = 86769007
REMARK  12 active torsions:
REMARK  status: ('A' for Active; 'I' for Inactive)
REMARK    1  A    between atoms: O_2  and  C_8
REMARK    2  A    between atoms: N_4  and  C_7
REMARK    3  A    between atoms: N_4  and  C_12
REMARK    4  A    between atoms: N_5  and  C_13
REMARK    5  A    between atoms: N_6  and  C_18
REMARK    6  A    between atoms: C_9  and  C_13
REMARK    7  A    between atoms: C_11  and  C_12
REMARK    8  A    between atoms: C_11  and  C_14
REMARK    9  A    between atoms: C_11  and  C_15
REMARK   10  A    between atoms: C_11  and  C_16
REMARK   11  A    between atoms: C_18  and  C_19
REMARK   12  A    between atoms: C_18  and  C_20
REMARK                            x       y       z     vdW  Elec       q    Type
REMARK                         _______ _______ _______ _____ _____    ______ ____
ROOT
ATOM      1  O   UNL     1      -1.432  -1.599  25.594  0.00  0.00    -0.371 OA
ATOM      7  C   UNL     1      -3.637  -0.903  25.051  0.00  0.00    +0.111 C 
ATOM      8  C   UNL     1      -2.657  -0.211  24.122  0.00  0.00    +0.164 C 
ATOM      9  C   UNL     1      -1.447  -1.128  24.237  0.00  0.00    +0.165 C 
ATOM     10  C   UNL     1      -2.720  -1.345  26.181  0.00  0.00    +0.181 C 
ENDROOT
BRANCH   8   2
ATOM      2  O   UNL     1      -3.131  -0.127  22.792  0.00  0.00    -0.388 OA
ATOM     22  H   UNL     1      -3.031   0.792  22.489  0.00  0.00    +0.210 HD
ENDBRANCH   8   2
BRANCH   7   4
ATOM      4  N   UNL     1      -4.719  -0.044  25.503  0.00  0.00    -0.308 NA
ATOM     21  H   UNL     1      -5.046  -0.372  26.410  0.00  0.00    +0.122 HD
BRANCH   4  12
ATOM     12  C   UNL     1      -4.275   1.340  25.622  0.00  0.00    +0.087 C 
BRANCH  12  11
ATOM     11  C   UNL     1      -5.199   2.364  24.915  0.00  0.00    -0.025 C 
ATOM     14  C   UNL     1      -5.498   3.568  25.827  0.00  0.00    +0.012 C 
ATOM     15  C   UNL     1      -6.525   1.705  24.494  0.00  0.00    +0.012 C 
ATOM     16  C   UNL     1      -4.480   2.873  23.653  0.00  0.00    +0.012 C 
ENDBRANCH  12  11
ENDBRANCH   4  12
ENDBRANCH   7   4
BRANCH   9  13
ATOM     13  C   UNL     1      -0.134  -0.433  23.920  0.00  0.00    +0.140 C 
BRANCH  13   5
ATOM      3  O   UNL     1      -0.436   1.554  25.990  0.00  0.00    -0.253 OA
ATOM      5  N   UNL     1      -0.321   0.978  23.743  0.00  0.00    -0.297 N 
ATOM      6  N   UNL     1      -0.627   3.183  24.349  0.00  0.00    -0.297 N 
ATOM     17  C   UNL     1      -0.459   1.877  24.803  0.00  0.00    +0.300 C 
ATOM     23  H   UNL     1      -0.368   1.340  22.796  0.00  0.00    +0.150 HD
ATOM     24  H   UNL     1      -0.556   3.361  23.352  0.00  0.00    +0.150 HD
BRANCH   6  18
ATOM     18  C   UNL     1      -0.793   4.307  25.241  0.00  0.00    +0.068 C 
ATOM     19  C   UNL     1      -0.639   5.620  24.482  0.00  0.00    +0.027 C 
ATOM     20  C   UNL     1      -2.143   4.231  25.943  0.00  0.00    +0.027 C 
ENDBRANCH   6  18
ENDBRANCH  13   5
ENDBRANCH   9  13
TORSDOF 7
ENDMDL
MODEL 8
REMARK VINA RESULT:      -3.4      2.133      4.465
REMARK  Name = 86769007
REMARK  12 active torsions:
REMARK  status: ('A' for Active; 'I' for Inactive)
REMARK    1  A    between atoms: O_2  and  C_8
REMARK    2  A    between atoms: N_4  and  C_7
REMARK    3  A    between atoms: N_4  and  C_12
REMARK    4  A    between atoms: N_5  and  C_13
REMARK    5  A    between atoms: N_6  and  C_18
REMARK    6  A    between atoms: C_9  and  C_13
REMARK    7  A    between atoms: C_11  and  C_12
REMARK    8  A    between atoms: C_11  and  C_14
REMARK    9  A    between atoms: C_11  and  C_15
REMARK   10  A    between atoms: C_11  and  C_16
REMARK   11  A    between atoms: C_18  and  C_19
REMARK   12  A    between atoms: C_18  and  C_20
REMARK                            x       y       z     vdW  Elec       q    Type
REMARK                         _______ _______ _______ _____ _____    ______ ____
ROOT
ATOM      1  O   UNL     1      -3.162  -2.033  25.952  0.00  0.00    -0.371 OA
ATOM      7  C   UNL     1      -4.513  -0.375  24.919  0.00  0.00    +0.111 C 
ATOM      8  C   UNL     1      -3.255  -0.572  24.095  0.00  0.00    +0.164 C 
ATOM      9  C   UNL     1      -2.812  -1.952  24.561  0.00  0.00    +0.165 C 
ATOM     10  C   UNL     1      -4.100  -0.983  26.249  0.00  0.00    +0.181 C 
ENDROOT
BRANCH   8   2
ATOM      2  O   UNL     1      -3.503  -0.540  22.702  0.00  0.00    -0.388 OA
ATOM     22  H   UNL     1      -2.740  -0.126  22.264  0.00  0.00    +0.210 HD
ENDBRANCH   8   2
BRANCH   7   4
ATOM      4  N   UNL     1      -4.923   1.015  25.034  0.00  0.00    -0.308 NA
ATOM     21  H   UNL     1      -5.449   1.135  25.899  0.00  0.00    +0.122 HD
BRANCH   4  12
ATOM     12  C   UNL     1      -3.767   1.904  25.046  0.00  0.00    +0.087 C 
BRANCH  12  11
ATOM     11  C   UNL     1      -4.127   3.407  25.166  0.00  0.00    -0.025 C 
ATOM     14  C   UNL     1      -3.975   4.126  23.814  0.00  0.00    +0.012 C 
ATOM     15  C   UNL     1      -3.236   4.101  26.212  0.00  0.00    +0.012 C 
ATOM     16  C   UNL     1      -5.595   3.518  25.618  0.00  0.00    +0.012 C 
ENDBRANCH  12  11
ENDBRANCH   4  12
ENDBRANCH   7   4
BRANCH   9  13
ATOM     13  C   UNL     1      -1.322  -2.194  24.392  0.00  0.00    +0.140 C 
BRANCH  13   5
ATOM      3  O   UNL     1      -0.968   0.203  25.961  0.00  0.00    -0.253 OA
ATOM      5  N   UNL     1      -0.641  -0.994  23.997  0.00  0.00    -0.297 N 
ATOM      6  N   UNL     1       0.194   1.148  24.188  0.00  0.00    -0.297 N 
ATOM     17  C   UNL     1      -0.512   0.127  24.820  0.00  0.00    +0.300 C 
ATOM     23  H   UNL     1      -0.242  -0.955  23.064  0.00  0.00    +0.150 HD
ATOM     24  H   UNL     1       0.596   0.963  23.274  0.00  0.00    +0.150 HD
BRANCH   6  18
ATOM     18  C   UNL     1       0.467   2.418  24.820  0.00  0.00    +0.068 C 
ATOM     19  C   UNL     1      -0.297   3.537  24.122  0.00  0.00    +0.027 C 
ATOM     20  C   UNL     1       0.122   2.357  26.302  0.00  0.00    +0.027 C 
ENDBRANCH   6  18
ENDBRANCH  13   5
ENDBRANCH   9  13
TORSDOF 7
ENDMDL
MODEL 9
REMARK VINA RESULT:      -3.1      2.061      2.685
REMARK  Name = 86769007
REMARK  12 active torsions:
REMARK  status: ('A' for Active; 'I' for Inactive)
REMARK    1  A    between atoms: O_2  and  C_8
REMARK    2  A    between atoms: N_4  and  C_7
REMARK    3  A    between atoms: N_4  and  C_12
REMARK    4  A    between atoms: N_5  and  C_13
REMARK    5  A    between atoms: N_6  and  C_18
REMARK    6  A    between atoms: C_9  and  C_13
REMARK    7  A    between atoms: C_11  and  C_12
REMARK    8  A    between atoms: C_11  and  C_14
REMARK    9  A    between atoms: C_11  and  C_15
REMARK   10  A    between atoms: C_11  and  C_16
REMARK   11  A    between atoms: C_18  and  C_19
REMARK   12  A    between atoms: C_18  and  C_20
REMARK                            x       y       z     vdW  Elec       q    Type
REMARK                         _______ _______ _______ _____ _____    ______ ____
ROOT
ATOM      1  O   UNL     1      -1.951   2.415  23.504  0.00  0.00    -0.371 OA
ATOM      7  C   UNL     1      -3.682   3.863  24.245  0.00  0.00    +0.111 C 
ATOM      8  C   UNL     1      -2.673   3.685  25.364  0.00  0.00    +0.164 C 
ATOM      9  C   UNL     1      -1.450   3.219  24.585  0.00  0.00    +0.165 C 
ATOM     10  C   UNL     1      -3.358   2.673  23.355  0.00  0.00    +0.181 C 
ENDROOT
BRANCH   8   2
ATOM      2  O   UNL     1      -2.422   4.885  26.069  0.00  0.00    -0.388 OA
ATOM     22  H   UNL     1      -2.487   4.699  27.022  0.00  0.00    +0.210 HD
ENDBRANCH   8   2
BRANCH   7   4
ATOM      4  N   UNL     1      -5.062   3.871  24.700  0.00  0.00    -0.308 NA
ATOM     21  H   UNL     1      -5.650   3.447  23.983  0.00  0.00    +0.122 HD
BRANCH   4  12
ATOM     12  C   UNL     1      -5.209   3.127  25.946  0.00  0.00    +0.087 C 
BRANCH  12  11
ATOM     11  C   UNL     1      -5.861   1.732  25.776  0.00  0.00    -0.025 C 
ATOM     14  C   UNL     1      -6.684   1.346  27.019  0.00  0.00    +0.012 C 
ATOM     15  C   UNL     1      -4.790   0.655  25.523  0.00  0.00    +0.012 C 
ATOM     16  C   UNL     1      -6.804   1.783  24.561  0.00  0.00    +0.012 C 
ENDBRANCH  12  11
ENDBRANCH   4  12
ENDBRANCH   7   4
BRANCH   9  13
ATOM     13  C   UNL     1      -0.479   2.405  25.422  0.00  0.00    +0.140 C 
BRANCH  13   5
ATOM      3  O   UNL     1       0.307   0.082  23.901  0.00  0.00    -0.253 OA
ATOM      5  N   UNL     1       0.763   2.203  24.732  0.00  0.00    -0.297 N 
ATOM      6  N   UNL     1       2.336   1.111  23.445  0.00  0.00    -0.297 N 
ATOM     17  C   UNL     1       1.067   1.043  24.014  0.00  0.00    +0.300 C 
ATOM     23  H   UNL     1       1.462   2.937  24.779  0.00  0.00    +0.150 HD
ATOM     24  H   UNL     1       2.858   1.978  23.531  0.00  0.00    +0.150 HD
BRANCH   6  18
ATOM     18  C   UNL     1       2.897   0.042  22.652  0.00  0.00    +0.068 C 
ATOM     19  C   UNL     1       1.984  -0.285  21.475  0.00  0.00    +0.027 C 
ATOM     20  C   UNL     1       4.296   0.411  22.179  0.00  0.00    +0.027 C 
ENDBRANCH   6  18
ENDBRANCH  13   5
ENDBRANCH   9  13
TORSDOF 7
ENDMDL
MODEL 10
REMARK VINA RESULT:      -2.8     18.555     19.785
REMARK  Name = 86769007
REMARK  12 active torsions:
REMARK  status: ('A' for Active; 'I' for Inactive)
REMARK    1  A    between atoms: O_2  and  C_8
REMARK    2  A    between atoms: N_4  and  C_7
REMARK    3  A    between atoms: N_4  and  C_12
REMARK    4  A    between atoms: N_5  and  C_13
REMARK    5  A    between atoms: N_6  and  C_18
REMARK    6  A    between atoms: C_9  and  C_13
REMARK    7  A    between atoms: C_11  and  C_12
REMARK    8  A    between atoms: C_11  and  C_14
REMARK    9  A    between atoms: C_11  and  C_15
REMARK   10  A    between atoms: C_11  and  C_16
REMARK   11  A    between atoms: C_18  and  C_19
REMARK   12  A    between atoms: C_18  and  C_20
REMARK                            x       y       z     vdW  Elec       q    Type
REMARK                         _______ _______ _______ _____ _____    ______ ____
ROOT
ATOM      1  O   UNL     1      15.430  -9.078  25.875  0.00  0.00    -0.371 OA
ATOM      7  C   UNL     1      15.155  -8.565  28.177  0.00  0.00    +0.111 C 
ATOM      8  C   UNL     1      16.362  -7.817  27.644  0.00  0.00    +0.164 C 
ATOM      9  C   UNL     1      16.075  -7.824  26.149  0.00  0.00    +0.165 C 
ATOM     10  C   UNL     1      14.977  -9.641  27.118  0.00  0.00    +0.181 C 
ENDROOT
BRANCH   8   2
ATOM      2  O   UNL     1      16.459  -6.501  28.156  0.00  0.00    -0.388 OA
ATOM     22  H   UNL     1      17.380  -6.203  28.060  0.00  0.00    +0.210 HD
ENDBRANCH   8   2
BRANCH   7   4
ATOM      4  N   UNL     1      15.349  -9.110  29.511  0.00  0.00    -0.308 NA
ATOM     21  H   UNL     1      16.031  -8.538  30.007  0.00  0.00    +0.122 HD
BRANCH   4  12
ATOM     12  C   UNL     1      14.097  -9.127  30.259  0.00  0.00    +0.087 C 
BRANCH  12  11
ATOM     11  C   UNL     1      13.917  -7.921  31.216  0.00  0.00    -0.025 C 
ATOM     14  C   UNL     1      13.556  -6.642  30.440  0.00  0.00    +0.012 C 
ATOM     15  C   UNL     1      15.198  -7.674  32.034  0.00  0.00    +0.012 C 
ATOM     16  C   UNL     1      12.767  -8.245  32.189  0.00  0.00    +0.012 C 
ENDBRANCH  12  11
ENDBRANCH   4  12
ENDBRANCH   7   4
BRANCH   9  13
ATOM     13  C   UNL     1      17.325  -7.693  25.297  0.00  0.00    +0.140 C 
BRANCH  13   5
ATOM      3  O   UNL     1      17.405  -4.877  25.923  0.00  0.00    -0.253 OA
ATOM      5  N   UNL     1      17.216  -6.599  24.375  0.00  0.00    -0.297 N 
ATOM      6  N   UNL     1      17.135  -4.404  23.667  0.00  0.00    -0.297 N 
ATOM     17  C   UNL     1      17.265  -5.257  24.761  0.00  0.00    +0.300 C 
ATOM     23  H   UNL     1      17.083  -6.813  23.392  0.00  0.00    +0.150 HD
ATOM     24  H   UNL     1      17.100  -4.813  22.738  0.00  0.00    +0.150 HD
BRANCH   6  18
ATOM     18  C   UNL     1      17.151  -2.965  23.791  0.00  0.00    +0.068 C 
ATOM     19  C   UNL     1      17.405  -2.315  22.436  0.00  0.00    +0.027 C 
ATOM     20  C   UNL     1      15.847  -2.471  24.403  0.00  0.00    +0.027 C 
ENDBRANCH   6  18
ENDBRANCH  13   5
ENDBRANCH   9  13
TORSDOF 7
ENDMDL
