MODEL 1
REMARK VINA RESULT:      -4.7      0.000      0.000
REMARK  Name = 11912964
REMARK  4 active torsions:
REMARK  status: ('A' for Active; 'I' for Inactive)
REMARK    1  A    between atoms: N_5  and  C_11
REMARK    2  A    between atoms: N_6  and  C_12
REMARK    3  A    between atoms: C_13  and  C_18
REMARK    4  A    between atoms: C_20  and  C_23
REMARK                            x       y       z     vdW  Elec       q    Type
REMARK                         _______ _______ _______ _____ _____    ______ ____
ROOT
ATOM      1  O   UNL     1      -1.009   2.637  23.204  0.00  0.00    -0.370 OA
ATOM      2  O   UNL     1      -0.734   4.076  25.937  0.00  0.00    -0.370 OA
ATOM      9  C   UNL     1      -1.147   2.746  25.573  0.00  0.00    +0.171 C 
ATOM     10  C   UNL     1      -1.935   2.859  24.283  0.00  0.00    +0.171 C 
ATOM     11  C   UNL     1       0.056   1.906  25.202  0.00  0.00    +0.130 C 
ATOM     12  C   UNL     1      -2.415   4.291  24.270  0.00  0.00    +0.130 C 
ATOM     14  C   UNL     1       0.276   2.302  23.749  0.00  0.00    +0.185 C 
ATOM     15  C   UNL     1      -1.315   5.018  25.022  0.00  0.00    +0.185 C 
ENDROOT
BRANCH  12   6
ATOM      6  N   UNL     1      -3.667   4.400  24.986  0.00  0.00    -0.306 N 
ATOM      7  N   UNL     1      -4.044   2.084  24.903  0.00  0.00    -0.211 NA
ATOM      8  N   UNL     1      -5.621   3.557  25.976  0.00  0.00    -0.223 NA
ATOM     19  C   UNL     1      -4.468   3.314  25.298  0.00  0.00    +0.216 A 
ATOM     20  C   UNL     1      -4.847   1.049  25.225  0.00  0.00    +0.111 A 
ATOM     21  C   UNL     1      -6.377   2.477  26.265  0.00  0.00    +0.116 A 
ATOM     22  C   UNL     1      -6.037   1.188  25.911  0.00  0.00    +0.051 A 
ATOM     28  H   UNL     1      -3.968   5.304  25.330  0.00  0.00    +0.149 HD
BRANCH  20  23
ATOM      4  O   UNL     1      -4.023  -1.091  25.791  0.00  0.00    -0.461 OA
ATOM     23  C   UNL     1      -4.373  -0.238  24.794  0.00  0.00    +0.153 A 
ATOM     24  C   UNL     1      -4.186  -0.822  23.565  0.00  0.00    +0.051 A 
ATOM     25  C   UNL     1      -3.687  -2.122  23.822  0.00  0.00    +0.042 A 
ATOM     26  C   UNL     1      -3.605  -2.237  25.190  0.00  0.00    +0.196 A 
ENDBRANCH  20  23
ENDBRANCH  12   6
BRANCH  11   5
ATOM      3  O   UNL     1       0.584  -0.158  23.212  0.00  0.00    -0.276 OA
ATOM      5  N   UNL     1      -0.267   0.483  25.282  0.00  0.00    -0.307 N 
ATOM     18  C   UNL     1       0.028  -0.422  24.276  0.00  0.00    +0.216 C 
ATOM     27  H   UNL     1      -0.750   0.153  26.114  0.00  0.00    +0.149 HD
BRANCH  18  13
ATOM     13  C   UNL     1      -0.389  -1.826  24.625  0.00  0.00    +0.075 C 
ATOM     16  C   UNL     1      -0.691  -2.129  26.046  0.00  0.00    +0.013 C 
ATOM     17  C   UNL     1       0.559  -2.660  25.406  0.00  0.00    +0.013 C 
ENDBRANCH  18  13
ENDBRANCH  11   5
TORSDOF 4
ENDMDL
MODEL 2
REMARK VINA RESULT:      -3.5      1.844      5.023
REMARK  Name = 11912964
REMARK  4 active torsions:
REMARK  status: ('A' for Active; 'I' for Inactive)
REMARK    1  A    between atoms: N_5  and  C_11
REMARK    2  A    between atoms: N_6  and  C_12
REMARK    3  A    between atoms: C_13  and  C_18
REMARK    4  A    between atoms: C_20  and  C_23
REMARK                            x       y       z     vdW  Elec       q    Type
REMARK                         _______ _______ _______ _____ _____    ______ ____
ROOT
ATOM      1  O   UNL     1      -1.808   3.392  26.764  0.00  0.00    -0.370 OA
ATOM      2  O   UNL     1      -1.181   5.047  24.217  0.00  0.00    -0.370 OA
ATOM      9  C   UNL     1      -1.961   3.858  24.439  0.00  0.00    +0.171 C 
ATOM     10  C   UNL     1      -1.239   3.038  25.490  0.00  0.00    +0.171 C 
ATOM     11  C   UNL     1      -3.283   4.210  25.086  0.00  0.00    +0.130 C 
ATOM     12  C   UNL     1       0.192   3.516  25.409  0.00  0.00    +0.130 C 
ATOM     14  C   UNL     1      -2.896   4.306  26.554  0.00  0.00    +0.185 C 
ATOM     15  C   UNL     1       0.037   4.961  24.973  0.00  0.00    +0.185 C 
ENDROOT
BRANCH  12   6
ATOM      6  N   UNL     1       0.909   2.763  24.403  0.00  0.00    -0.306 N 
ATOM      7  N   UNL     1      -0.466   0.880  24.672  0.00  0.00    -0.211 NA
ATOM      8  N   UNL     1       1.340   0.876  23.077  0.00  0.00    -0.223 NA
ATOM     19  C   UNL     1       0.584   1.468  24.040  0.00  0.00    +0.216 A 
ATOM     20  C   UNL     1      -0.755  -0.382  24.294  0.00  0.00    +0.111 A 
ATOM     21  C   UNL     1       0.996  -0.387  22.747  0.00  0.00    +0.116 A 
ATOM     22  C   UNL     1      -0.051  -1.072  23.328  0.00  0.00    +0.051 A 
ATOM     28  H   UNL     1       1.659   3.208  23.888  0.00  0.00    +0.149 HD
BRANCH  20  23
ATOM      4  O   UNL     1      -2.401  -2.074  24.383  0.00  0.00    -0.461 OA
ATOM     23  C   UNL     1      -1.870  -0.977  24.981  0.00  0.00    +0.153 A 
ATOM     24  C   UNL     1      -2.543  -0.680  26.141  0.00  0.00    +0.051 A 
ATOM     25  C   UNL     1      -3.557  -1.660  26.266  0.00  0.00    +0.042 A 
ATOM     26  C   UNL     1      -3.429  -2.484  25.172  0.00  0.00    +0.196 A 
ENDBRANCH  20  23
ENDBRANCH  12   6
BRANCH  11   5
ATOM      3  O   UNL     1      -6.124   4.229  25.735  0.00  0.00    -0.276 OA
ATOM      5  N   UNL     1      -4.249   3.131  24.900  0.00  0.00    -0.307 N 
ATOM     18  C   UNL     1      -5.588   3.240  25.242  0.00  0.00    +0.216 C 
ATOM     27  H   UNL     1      -3.910   2.252  24.516  0.00  0.00    +0.149 HD
BRANCH  18  13
ATOM     13  C   UNL     1      -6.366   1.991  24.922  0.00  0.00    +0.075 C 
ATOM     16  C   UNL     1      -6.295   0.861  25.882  0.00  0.00    +0.013 C 
ATOM     17  C   UNL     1      -5.604   0.772  24.552  0.00  0.00    +0.013 C 
ENDBRANCH  18  13
ENDBRANCH  11   5
TORSDOF 4
ENDMDL
MODEL 3
REMARK VINA RESULT:      -3.3      1.952      4.768
REMARK  Name = 11912964
REMARK  4 active torsions:
REMARK  status: ('A' for Active; 'I' for Inactive)
REMARK    1  A    between atoms: N_5  and  C_11
REMARK    2  A    between atoms: N_6  and  C_12
REMARK    3  A    between atoms: C_13  and  C_18
REMARK    4  A    between atoms: C_20  and  C_23
REMARK                            x       y       z     vdW  Elec       q    Type
REMARK                         _______ _______ _______ _____ _____    ______ ____
ROOT
ATOM      1  O   UNL     1      -0.986  -0.958  26.274  0.00  0.00    -0.370 OA
ATOM      2  O   UNL     1      -2.687  -2.598  24.265  0.00  0.00    -0.370 OA
ATOM      9  C   UNL     1      -1.927  -1.383  24.134  0.00  0.00    +0.171 C 
ATOM     10  C   UNL     1      -2.095  -0.608  25.425  0.00  0.00    +0.171 C 
ATOM     11  C   UNL     1      -0.447  -1.694  24.077  0.00  0.00    +0.130 C 
ATOM     12  C   UNL     1      -3.383  -1.139  26.008  0.00  0.00    +0.130 C 
ATOM     14  C   UNL     1      -0.098  -1.826  25.552  0.00  0.00    +0.185 C 
ATOM     15  C   UNL     1      -3.410  -2.571  25.506  0.00  0.00    +0.185 C 
ENDROOT
BRANCH  12   6
ATOM      6  N   UNL     1      -4.508  -0.400  25.477  0.00  0.00    -0.306 N 
ATOM      7  N   UNL     1      -3.241   1.559  25.219  0.00  0.00    -0.211 NA
ATOM      8  N   UNL     1      -5.571   1.501  24.604  0.00  0.00    -0.223 NA
ATOM     19  C   UNL     1      -4.438   0.926  25.088  0.00  0.00    +0.216 A 
ATOM     20  C   UNL     1      -3.209   2.851  24.830  0.00  0.00    +0.111 A 
ATOM     21  C   UNL     1      -5.467   2.795  24.234  0.00  0.00    +0.116 A 
ATOM     22  C   UNL     1      -4.301   3.526  24.325  0.00  0.00    +0.051 A 
ATOM     28  H   UNL     1      -5.390  -0.875  25.327  0.00  0.00    +0.149 HD
BRANCH  20  23
ATOM      4  O   UNL     1      -0.879   2.655  25.171  0.00  0.00    -0.461 OA
ATOM     23  C   UNL     1      -1.930   3.493  24.981  0.00  0.00    +0.153 A 
ATOM     24  C   UNL     1      -1.515   4.802  24.977  0.00  0.00    +0.051 A 
ATOM     25  C   UNL     1      -0.114   4.769  25.179  0.00  0.00    +0.042 A 
ATOM     26  C   UNL     1       0.224   3.440  25.292  0.00  0.00    +0.196 A 
ENDBRANCH  20  23
ENDBRANCH  12   6
BRANCH  11   5
ATOM      3  O   UNL     1       2.438  -1.435  23.751  0.00  0.00    -0.276 OA
ATOM      5  N   UNL     1       0.290  -0.575  23.494  0.00  0.00    -0.307 N 
ATOM     18  C   UNL     1       1.671  -0.548  23.383  0.00  0.00    +0.216 C 
ATOM     27  H   UNL     1      -0.244   0.229  23.173  0.00  0.00    +0.149 HD
BRANCH  18  13
ATOM     13  C   UNL     1       2.170   0.709  22.723  0.00  0.00    +0.075 C 
ATOM     16  C   UNL     1       3.243   0.583  21.705  0.00  0.00    +0.013 C 
ATOM     17  C   UNL     1       3.542   1.172  23.054  0.00  0.00    +0.013 C 
ENDBRANCH  18  13
ENDBRANCH  11   5
TORSDOF 4
ENDMDL
MODEL 4
REMARK VINA RESULT:      -2.5     18.248     20.418
REMARK  Name = 11912964
REMARK  4 active torsions:
REMARK  status: ('A' for Active; 'I' for Inactive)
REMARK    1  A    between atoms: N_5  and  C_11
REMARK    2  A    between atoms: N_6  and  C_12
REMARK    3  A    between atoms: C_13  and  C_18
REMARK    4  A    between atoms: C_20  and  C_23
REMARK                            x       y       z     vdW  Elec       q    Type
REMARK                         _______ _______ _______ _____ _____    ______ ____
ROOT
ATOM      1  O   UNL     1      16.972  -7.476  25.671  0.00  0.00    -0.370 OA
ATOM      2  O   UNL     1      14.935  -6.318  27.701  0.00  0.00    -0.370 OA
ATOM      9  C   UNL     1      16.067  -5.745  27.022  0.00  0.00    +0.171 C 
ATOM     10  C   UNL     1      17.132  -6.820  26.942  0.00  0.00    +0.171 C 
ATOM     11  C   UNL     1      15.720  -5.456  25.578  0.00  0.00    +0.130 C 
ATOM     12  C   UNL     1      16.783  -7.768  28.064  0.00  0.00    +0.130 C 
ATOM     14  C   UNL     1      15.938  -6.813  24.927  0.00  0.00    +0.185 C 
ATOM     15  C   UNL     1      15.274  -7.639  28.152  0.00  0.00    +0.185 C 
ENDROOT
BRANCH  12   6
ATOM      6  N   UNL     1      17.397  -7.323  29.297  0.00  0.00    -0.306 N 
ATOM      7  N   UNL     1      15.378  -7.469  30.485  0.00  0.00    -0.211 NA
ATOM      8  N   UNL     1      17.405  -6.753  31.573  0.00  0.00    -0.223 NA
ATOM     19  C   UNL     1      16.706  -7.178  30.487  0.00  0.00    +0.216 A 
ATOM     20  C   UNL     1      14.736  -7.317  31.662  0.00  0.00    +0.111 A 
ATOM     21  C   UNL     1      16.702  -6.622  32.717  0.00  0.00    +0.116 A 
ATOM     22  C   UNL     1      15.353  -6.892  32.821  0.00  0.00    +0.051 A 
ATOM     28  H   UNL     1      18.396  -7.153  29.323  0.00  0.00    +0.149 HD
BRANCH  20  23
ATOM      4  O   UNL     1      13.005  -8.868  32.086  0.00  0.00    -0.461 OA
ATOM     23  C   UNL     1      13.333  -7.633  31.628  0.00  0.00    +0.153 A 
ATOM     24  C   UNL     1      12.212  -6.949  31.225  0.00  0.00    +0.051 A 
ATOM     25  C   UNL     1      11.120  -7.822  31.450  0.00  0.00    +0.042 A 
ATOM     26  C   UNL     1      11.655  -8.976  31.974  0.00  0.00    +0.196 A 
ENDBRANCH  20  23
ENDBRANCH  12   6
BRANCH  11   5
ATOM      3  O   UNL     1      15.080  -2.979  24.181  0.00  0.00    -0.276 OA
ATOM      5  N   UNL     1      16.651  -4.482  25.012  0.00  0.00    -0.307 N 
ATOM     18  C   UNL     1      16.244  -3.328  24.363  0.00  0.00    +0.216 C 
ATOM     27  H   UNL     1      17.646  -4.679  25.086  0.00  0.00    +0.149 HD
BRANCH  18  13
ATOM     13  C   UNL     1      17.405  -2.489  23.899  0.00  0.00    +0.075 C 
ATOM     16  C   UNL     1      17.304  -1.016  24.050  0.00  0.00    +0.013 C 
ATOM     17  C   UNL     1      17.217  -1.647  22.691  0.00  0.00    +0.013 C 
ENDBRANCH  18  13
ENDBRANCH  11   5
TORSDOF 4
ENDMDL
MODEL 5
REMARK VINA RESULT:      -1.9      1.819      5.081
REMARK  Name = 11912964
REMARK  4 active torsions:
REMARK  status: ('A' for Active; 'I' for Inactive)
REMARK    1  A    between atoms: N_5  and  C_11
REMARK    2  A    between atoms: N_6  and  C_12
REMARK    3  A    between atoms: C_13  and  C_18
REMARK    4  A    between atoms: C_20  and  C_23
REMARK                            x       y       z     vdW  Elec       q    Type
REMARK                         _______ _______ _______ _____ _____    ______ ____
ROOT
ATOM      1  O   UNL     1      -0.322   1.166  26.179  0.00  0.00    -0.370 OA
ATOM      2  O   UNL     1       0.508   0.317  23.315  0.00  0.00    -0.370 OA
ATOM      9  C   UNL     1      -0.672   0.952  23.839  0.00  0.00    +0.171 C 
ATOM     10  C   UNL     1      -0.952   0.329  25.193  0.00  0.00    +0.171 C 
ATOM     11  C   UNL     1      -0.391   2.406  24.150  0.00  0.00    +0.130 C 
ATOM     12  C   UNL     1      -0.261  -1.012  25.130  0.00  0.00    +0.130 C 
ATOM     14  C   UNL     1       0.247   2.313  25.528  0.00  0.00    +0.185 C 
ATOM     15  C   UNL     1       0.908  -0.741  24.200  0.00  0.00    +0.185 C 
ENDROOT
BRANCH  12   6
ATOM      6  N   UNL     1      -1.145  -1.998  24.550  0.00  0.00    -0.306 N 
ATOM      7  N   UNL     1      -3.026  -0.615  24.790  0.00  0.00    -0.211 NA
ATOM      8  N   UNL     1      -3.222  -2.813  23.820  0.00  0.00    -0.223 NA
ATOM     19  C   UNL     1      -2.505  -1.803  24.381  0.00  0.00    +0.216 A 
ATOM     20  C   UNL     1      -4.354  -0.458  24.610  0.00  0.00    +0.111 A 
ATOM     21  C   UNL     1      -4.544  -2.589  23.670  0.00  0.00    +0.116 A 
ATOM     22  C   UNL     1      -5.171  -1.420  24.050  0.00  0.00    +0.051 A 
ATOM     28  H   UNL     1      -0.760  -2.866  24.194  0.00  0.00    +0.149 HD
BRANCH  20  23
ATOM      4  O   UNL     1      -3.976   1.629  25.649  0.00  0.00    -0.461 OA
ATOM     23  C   UNL     1      -4.876   0.807  25.052  0.00  0.00    +0.153 A 
ATOM     24  C   UNL     1      -6.117   1.394  25.008  0.00  0.00    +0.051 A 
ATOM     25  C   UNL     1      -5.971   2.663  25.619  0.00  0.00    +0.042 A 
ATOM     26  C   UNL     1      -4.651   2.758  25.993  0.00  0.00    +0.196 A 
ENDBRANCH  20  23
ENDBRANCH  12   6
BRANCH  11   5
ATOM      3  O   UNL     1      -0.741   5.179  24.978  0.00  0.00    -0.276 OA
ATOM      5  N   UNL     1      -1.637   3.164  24.234  0.00  0.00    -0.307 N 
ATOM     18  C   UNL     1      -1.698   4.486  24.642  0.00  0.00    +0.216 C 
ATOM     27  H   UNL     1      -2.501   2.682  23.997  0.00  0.00    +0.149 HD
BRANCH  18  13
ATOM     13  C   UNL     1      -3.101   5.032  24.612  0.00  0.00    +0.075 C 
ATOM     16  C   UNL     1      -4.021   4.534  23.559  0.00  0.00    +0.013 C 
ATOM     17  C   UNL     1      -3.475   5.931  23.492  0.00  0.00    +0.013 C 
ENDBRANCH  18  13
ENDBRANCH  11   5
TORSDOF 4
ENDMDL
MODEL 6
REMARK VINA RESULT:      -1.5      2.354      3.016
REMARK  Name = 11912964
REMARK  4 active torsions:
REMARK  status: ('A' for Active; 'I' for Inactive)
REMARK    1  A    between atoms: N_5  and  C_11
REMARK    2  A    between atoms: N_6  and  C_12
REMARK    3  A    between atoms: C_13  and  C_18
REMARK    4  A    between atoms: C_20  and  C_23
REMARK                            x       y       z     vdW  Elec       q    Type
REMARK                         _______ _______ _______ _____ _____    ______ ____
ROOT
ATOM      1  O   UNL     1      -0.127   1.991  24.309  0.00  0.00    -0.370 OA
ATOM      2  O   UNL     1      -0.646   5.009  24.796  0.00  0.00    -0.370 OA
ATOM      9  C   UNL     1      -0.679   3.862  25.665  0.00  0.00    +0.171 C 
ATOM     10  C   UNL     1      -1.246   2.709  24.862  0.00  0.00    +0.171 C 
ATOM     11  C   UNL     1       0.729   3.422  26.006  0.00  0.00    +0.130 C 
ATOM     12  C   UNL     1      -2.030   3.379  23.759  0.00  0.00    +0.130 C 
ATOM     14  C   UNL     1       1.091   2.573  24.796  0.00  0.00    +0.185 C 
ATOM     15  C   UNL     1      -1.266   4.672  23.545  0.00  0.00    +0.185 C 
ENDROOT
BRANCH  12   6
ATOM      6  N   UNL     1      -3.376   3.660  24.210  0.00  0.00    -0.306 N 
ATOM      7  N   UNL     1      -3.868   1.386  24.517  0.00  0.00    -0.211 NA
ATOM      8  N   UNL     1      -5.512   3.083  24.989  0.00  0.00    -0.223 NA
ATOM     19  C   UNL     1      -4.279   2.680  24.583  0.00  0.00    +0.216 A 
ATOM     20  C   UNL     1      -4.773   0.457  24.889  0.00  0.00    +0.111 A 
ATOM     21  C   UNL     1      -6.368   2.102  25.347  0.00  0.00    +0.116 A 
ATOM     22  C   UNL     1      -6.050   0.760  25.317  0.00  0.00    +0.051 A 
ATOM     28  H   UNL     1      -3.676   4.623  24.313  0.00  0.00    +0.149 HD
BRANCH  20  23
ATOM      4  O   UNL     1      -3.628  -1.349  25.893  0.00  0.00    -0.461 OA
ATOM     23  C   UNL     1      -4.310  -0.902  24.808  0.00  0.00    +0.153 A 
ATOM     24  C   UNL     1      -4.401  -1.884  23.852  0.00  0.00    +0.051 A 
ATOM     25  C   UNL     1      -3.730  -3.012  24.385  0.00  0.00    +0.042 A 
ATOM     26  C   UNL     1      -3.278  -2.635  25.628  0.00  0.00    +0.196 A 
ENDBRANCH  20  23
ENDBRANCH  12   6
BRANCH  11   5
ATOM      3  O   UNL     1       2.607   3.513  28.233  0.00  0.00    -0.276 OA
ATOM      5  N   UNL     1       0.730   2.593  27.209  0.00  0.00    -0.307 N 
ATOM     18  C   UNL     1       1.673   2.715  28.217  0.00  0.00    +0.216 C 
ATOM     27  H   UNL     1       0.010   1.880  27.293  0.00  0.00    +0.149 HD
BRANCH  18  13
ATOM     13  C   UNL     1       1.427   1.757  29.352  0.00  0.00    +0.075 C 
ATOM     16  C   UNL     1       0.922   2.310  30.633  0.00  0.00    +0.013 C 
ATOM     17  C   UNL     1       2.336   1.820  30.524  0.00  0.00    +0.013 C 
ENDBRANCH  18  13
ENDBRANCH  11   5
TORSDOF 4
ENDMDL
MODEL 7
REMARK VINA RESULT:      -1.4      1.989      4.800
REMARK  Name = 11912964
REMARK  4 active torsions:
REMARK  status: ('A' for Active; 'I' for Inactive)
REMARK    1  A    between atoms: N_5  and  C_11
REMARK    2  A    between atoms: N_6  and  C_12
REMARK    3  A    between atoms: C_13  and  C_18
REMARK    4  A    between atoms: C_20  and  C_23
REMARK                            x       y       z     vdW  Elec       q    Type
REMARK                         _______ _______ _______ _____ _____    ______ ____
ROOT
ATOM      1  O   UNL     1      -3.866   3.014  23.615  0.00  0.00    -0.370 OA
ATOM      2  O   UNL     1      -5.661   2.371  26.060  0.00  0.00    -0.370 OA
ATOM      9  C   UNL     1      -4.249   2.227  25.823  0.00  0.00    +0.171 C 
ATOM     10  C   UNL     1      -4.078   1.811  24.376  0.00  0.00    +0.171 C 
ATOM     11  C   UNL     1      -3.563   3.573  25.907  0.00  0.00    +0.130 C 
ATOM     12  C   UNL     1      -5.407   1.192  24.012  0.00  0.00    +0.130 C 
ATOM     14  C   UNL     1      -3.803   4.133  24.513  0.00  0.00    +0.185 C 
ATOM     15  C   UNL     1      -6.381   1.957  24.889  0.00  0.00    +0.185 C 
ENDROOT
BRANCH  12   6
ATOM      6  N   UNL     1      -5.412  -0.211  24.362  0.00  0.00    -0.306 N 
ATOM      7  N   UNL     1      -3.090  -0.405  24.077  0.00  0.00    -0.211 NA
ATOM      8  N   UNL     1      -4.418  -2.303  24.742  0.00  0.00    -0.223 NA
ATOM     19  C   UNL     1      -4.272  -0.996  24.395  0.00  0.00    +0.216 A 
ATOM     20  C   UNL     1      -2.000  -1.199  24.121  0.00  0.00    +0.111 A 
ATOM     21  C   UNL     1      -3.287  -3.039  24.765  0.00  0.00    +0.116 A 
ATOM     22  C   UNL     1      -2.039  -2.536  24.461  0.00  0.00    +0.051 A 
ATOM     28  H   UNL     1      -6.278  -0.650  24.651  0.00  0.00    +0.149 HD
BRANCH  20  23
ATOM      4  O   UNL     1      -0.874   0.768  23.455  0.00  0.00    -0.461 OA
ATOM     23  C   UNL     1      -0.765  -0.545  23.779  0.00  0.00    +0.153 A 
ATOM     24  C   UNL     1       0.542  -0.959  23.702  0.00  0.00    +0.051 A 
ATOM     25  C   UNL     1       1.289   0.177  23.304  0.00  0.00    +0.042 A 
ATOM     26  C   UNL     1       0.381   1.201  23.166  0.00  0.00    +0.196 A 
ENDBRANCH  20  23
ENDBRANCH  12   6
BRANCH  11   5
ATOM      3  O   UNL     1      -1.379   5.077  24.696  0.00  0.00    -0.276 OA
ATOM      5  N   UNL     1      -2.129   3.405  26.132  0.00  0.00    -0.307 N 
ATOM     18  C   UNL     1      -1.164   4.176  25.503  0.00  0.00    +0.216 C 
ATOM     27  H   UNL     1      -1.832   2.670  26.769  0.00  0.00    +0.149 HD
BRANCH  18  13
ATOM     13  C   UNL     1       0.232   3.812  25.933  0.00  0.00    +0.075 C 
ATOM     16  C   UNL     1       0.636   2.386  25.851  0.00  0.00    +0.013 C 
ATOM     17  C   UNL     1       0.393   3.031  27.185  0.00  0.00    +0.013 C 
ENDBRANCH  18  13
ENDBRANCH  11   5
TORSDOF 4
ENDMDL
MODEL 8
REMARK VINA RESULT:      -1.4      1.863      4.458
REMARK  Name = 11912964
REMARK  4 active torsions:
REMARK  status: ('A' for Active; 'I' for Inactive)
REMARK    1  A    between atoms: N_5  and  C_11
REMARK    2  A    between atoms: N_6  and  C_12
REMARK    3  A    between atoms: C_13  and  C_18
REMARK    4  A    between atoms: C_20  and  C_23
REMARK                            x       y       z     vdW  Elec       q    Type
REMARK                         _______ _______ _______ _____ _____    ______ ____
ROOT
ATOM      1  O   UNL     1      -4.799   2.225  26.888  0.00  0.00    -0.370 OA
ATOM      2  O   UNL     1      -5.441   3.850  24.326  0.00  0.00    -0.370 OA
ATOM      9  C   UNL     1      -4.731   2.618  24.546  0.00  0.00    +0.171 C 
ATOM     10  C   UNL     1      -3.967   2.767  25.846  0.00  0.00    +0.171 C 
ATOM     11  C   UNL     1      -5.705   1.491  24.814  0.00  0.00    +0.130 C 
ATOM     12  C   UNL     1      -3.824   4.261  26.019  0.00  0.00    +0.130 C 
ATOM     14  C   UNL     1      -5.985   1.668  26.299  0.00  0.00    +0.185 C 
ATOM     15  C   UNL     1      -5.073   4.795  25.342  0.00  0.00    +0.185 C 
ENDROOT
BRANCH  12   6
ATOM      6  N   UNL     1      -2.641   4.728  25.330  0.00  0.00    -0.306 N 
ATOM      7  N   UNL     1      -1.669   2.591  25.317  0.00  0.00    -0.211 NA
ATOM      8  N   UNL     1      -0.531   4.475  24.335  0.00  0.00    -0.223 NA
ATOM     19  C   UNL     1      -1.582   3.907  24.984  0.00  0.00    +0.216 A 
ATOM     20  C   UNL     1      -0.620   1.820  24.964  0.00  0.00    +0.111 A 
ATOM     21  C   UNL     1       0.484   3.646  24.012  0.00  0.00    +0.116 A 
ATOM     22  C   UNL     1       0.494   2.298  24.304  0.00  0.00    +0.051 A 
ATOM     28  H   UNL     1      -2.588   5.694  25.030  0.00  0.00    +0.149 HD
BRANCH  20  23
ATOM      4  O   UNL     1      -0.118  -0.441  24.501  0.00  0.00    -0.461 OA
ATOM     23  C   UNL     1      -0.741   0.434  25.331  0.00  0.00    +0.153 A 
ATOM     24  C   UNL     1      -1.362  -0.228  26.361  0.00  0.00    +0.051 A 
ATOM     25  C   UNL     1      -1.105  -1.605  26.152  0.00  0.00    +0.042 A 
ATOM     26  C   UNL     1      -0.345  -1.682  25.008  0.00  0.00    +0.196 A 
ENDBRANCH  20  23
ENDBRANCH  12   6
BRANCH  11   5
ATOM      3  O   UNL     1      -3.438   0.902  23.079  0.00  0.00    -0.276 OA
ATOM      5  N   UNL     1      -5.070   0.197  24.582  0.00  0.00    -0.307 N 
ATOM     18  C   UNL     1      -3.989   0.020  23.732  0.00  0.00    +0.216 C 
ATOM     27  H   UNL     1      -5.458  -0.614  25.057  0.00  0.00    +0.149 HD
BRANCH  18  13
ATOM     13  C   UNL     1      -3.514  -1.408  23.697  0.00  0.00    +0.075 C 
ATOM     16  C   UNL     1      -4.531  -2.476  23.526  0.00  0.00    +0.013 C 
ATOM     17  C   UNL     1      -3.849  -2.282  24.849  0.00  0.00    +0.013 C 
ENDBRANCH  18  13
ENDBRANCH  11   5
TORSDOF 4
ENDMDL
MODEL 9
REMARK VINA RESULT:      -0.8      1.572      2.183
REMARK  Name = 11912964
REMARK  4 active torsions:
REMARK  status: ('A' for Active; 'I' for Inactive)
REMARK    1  A    between atoms: N_5  and  C_11
REMARK    2  A    between atoms: N_6  and  C_12
REMARK    3  A    between atoms: C_13  and  C_18
REMARK    4  A    between atoms: C_20  and  C_23
REMARK                            x       y       z     vdW  Elec       q    Type
REMARK                         _______ _______ _______ _____ _____    ______ ____
ROOT
ATOM      1  O   UNL     1      -0.795   3.995  23.981  0.00  0.00    -0.370 OA
ATOM      2  O   UNL     1      -2.014   3.411  26.771  0.00  0.00    -0.370 OA
ATOM      9  C   UNL     1      -1.681   2.564  25.657  0.00  0.00    +0.171 C 
ATOM     10  C   UNL     1      -2.005   3.336  24.394  0.00  0.00    +0.171 C 
ATOM     11  C   UNL     1      -0.184   2.352  25.589  0.00  0.00    +0.130 C 
ATOM     12  C   UNL     1      -3.027   4.355  24.839  0.00  0.00    +0.130 C 
ATOM     14  C   UNL     1       0.275   3.603  24.855  0.00  0.00    +0.185 C 
ATOM     15  C   UNL     1      -2.636   4.610  26.283  0.00  0.00    +0.185 C 
ENDROOT
BRANCH  12   6
ATOM      6  N   UNL     1      -4.355   3.787  24.773  0.00  0.00    -0.306 N 
ATOM      7  N   UNL     1      -3.538   1.588  24.840  0.00  0.00    -0.211 NA
ATOM      8  N   UNL     1      -5.904   2.025  24.709  0.00  0.00    -0.223 NA
ATOM     19  C   UNL     1      -4.607   2.426  24.774  0.00  0.00    +0.216 A 
ATOM     20  C   UNL     1      -3.820   0.268  24.840  0.00  0.00    +0.111 A 
ATOM     21  C   UNL     1      -6.114   0.692  24.713  0.00  0.00    +0.116 A 
ATOM     22  C   UNL     1      -5.100  -0.242  24.777  0.00  0.00    +0.051 A 
ATOM     28  H   UNL     1      -5.161   4.401  24.776  0.00  0.00    +0.149 HD
BRANCH  20  23
ATOM      4  O   UNL     1      -1.975  -0.539  26.074  0.00  0.00    -0.461 OA
ATOM     23  C   UNL     1      -2.670  -0.593  24.909  0.00  0.00    +0.153 A 
ATOM     24  C   UNL     1      -2.094  -1.486  24.039  0.00  0.00    +0.051 A 
ATOM     25  C   UNL     1      -0.968  -2.018  24.713  0.00  0.00    +0.042 A 
ATOM     26  C   UNL     1      -0.939  -1.410  25.946  0.00  0.00    +0.196 A 
ENDBRANCH  20  23
ENDBRANCH  12   6
BRANCH  11   5
ATOM      3  O   UNL     1       1.903   2.062  23.575  0.00  0.00    -0.276 OA
ATOM      5  N   UNL     1       0.132   1.169  24.792  0.00  0.00    -0.307 N 
ATOM     18  C   UNL     1       1.151   1.132  23.854  0.00  0.00    +0.216 C 
ATOM     27  H   UNL     1      -0.444   0.340  24.926  0.00  0.00    +0.149 HD
BRANCH  18  13
ATOM     13  C   UNL     1       1.276  -0.216  23.195  0.00  0.00    +0.075 C 
ATOM     16  C   UNL     1       2.628  -0.663  22.776  0.00  0.00    +0.013 C 
ATOM     17  C   UNL     1       1.611  -0.254  21.749  0.00  0.00    +0.013 C 
ENDBRANCH  18  13
ENDBRANCH  11   5
TORSDOF 4
ENDMDL
