MODEL 1
REMARK VINA RESULT:       2.3      0.000      0.000
REMARK  Name = 40779537
REMARK  13 active torsions:
REMARK  status: ('A' for Active; 'I' for Inactive)
REMARK    1  A    between atoms: S_1  and  N_8
REMARK    2  A    between atoms: S_1  and  C_22
REMARK    3  A    between atoms: O_4  and  C_28
REMARK    4  A    between atoms: O_4  and  C_31
REMARK    5  A    between atoms: O_5  and  C_30
REMARK    6  A    between atoms: O_5  and  C_32
REMARK    7  A    between atoms: N_7  and  C_21
REMARK    8  A    between atoms: N_8  and  C_17
REMARK    9  A    between atoms: C_11  and  C_18
REMARK   10  A    between atoms: C_12  and  C_17
REMARK   11  A    between atoms: C_20  and  C_23
REMARK   12  A    between atoms: C_22  and  C_24
REMARK   13  A    between atoms: C_24  and  C_27
REMARK                            x       y       z     vdW  Elec       q    Type
REMARK                         _______ _______ _______ _____ _____    ______ ____
ROOT
ATOM      6  N   UNL     1      -5.251   2.636  26.178  0.00  0.00    -0.297 NA
ATOM     10  C   UNL     1      -5.140   1.147  24.044  0.00  0.00    +0.002 C 
ATOM     11  C   UNL     1      -4.213   0.578  25.152  0.00  0.00    +0.055 C 
ATOM     12  C   UNL     1      -5.010   3.483  24.980  0.00  0.00    +0.072 C 
ATOM     13  C   UNL     1      -4.736   2.605  23.739  0.00  0.00    +0.024 C 
ATOM     14  C   UNL     1      -6.566   1.185  24.634  0.00  0.00    +0.019 C 
ATOM     15  C   UNL     1      -4.176   1.620  26.306  0.00  0.00    +0.094 C 
ATOM     16  C   UNL     1      -6.537   1.926  25.982  0.00  0.00    +0.085 C 
ENDROOT
BRANCH  11  18
ATOM      7  N   UNL     1      -2.464  -1.205  24.701  0.00  0.00    -0.270 N 
ATOM      9  N   UNL     1      -1.189  -1.408  24.327  0.00  0.00    -0.171 NA
ATOM     18  C   UNL     1      -2.820   0.110  24.754  0.00  0.00    +0.044 A 
ATOM     19  C   UNL     1      -1.700   0.817  24.388  0.00  0.00    +0.053 A 
ATOM     20  C   UNL     1      -0.728  -0.169  24.137  0.00  0.00    +0.093 A 
ATOM     21  C   UNL     1      -3.301  -2.344  25.002  0.00  0.00    +0.172 C 
BRANCH  20  23
ATOM     23  C   UNL     1       0.634   0.049  23.722  0.00  0.00    +0.006 A 
ATOM     25  C   UNL     1       1.511  -1.029  23.611  0.00  0.00    +0.059 A 
ATOM     26  C   UNL     1       1.075   1.341  23.431  0.00  0.00    +0.014 A 
ATOM     28  C   UNL     1       2.830  -0.816  23.210  0.00  0.00    +0.162 A 
ATOM     29  C   UNL     1       2.394   1.554  23.031  0.00  0.00    +0.050 A 
ATOM     30  C   UNL     1       3.272   0.475  22.920  0.00  0.00    +0.162 A 
BRANCH  28   4
ATOM      4  O   UNL     1       3.678  -1.877  23.105  0.00  0.00    -0.491 OA
ATOM     31  C   UNL     1       4.691  -1.997  24.102  0.00  0.00    +0.277 C 
ENDBRANCH  28   4
BRANCH  30   5
ATOM      5  O   UNL     1       4.558   0.695  22.527  0.00  0.00    -0.491 OA
ATOM     32  C   UNL     1       5.531   0.857  23.557  0.00  0.00    +0.277 C 
ENDBRANCH  30   5
ENDBRANCH  20  23
ENDBRANCH  11  18
BRANCH  12  17
ATOM     17  C   UNL     1      -3.901   4.512  25.206  0.00  0.00    +0.124 C 
BRANCH  17   8
ATOM      8  N   UNL     1      -2.778   4.221  24.301  0.00  0.00    -0.193 NA
ATOM     33  H   UNL     1      -2.984   4.422  23.313  0.00  0.00    +0.148 HD
BRANCH   8   1
ATOM      1  S   UNL     1      -1.183   4.541  24.819  0.00  0.00    +0.029 S 
ATOM      2  O   UNL     1      -1.067   5.930  25.219  0.00  0.00    -0.158 OA
ATOM      3  O   UNL     1      -0.261   3.968  23.858  0.00  0.00    -0.158 OA
BRANCH   1  22
ATOM     22  C   UNL     1      -1.110   3.541  26.287  0.00  0.00    +0.185 C 
BRANCH  22  24
ATOM     24  C   UNL     1       0.169   2.720  26.335  0.00  0.00    +0.021 C 
ATOM     27  C   UNL     1       0.550   2.370  27.764  0.00  0.00    +0.005 C 
ENDBRANCH  22  24
ENDBRANCH   1  22
ENDBRANCH   8   1
ENDBRANCH  17   8
ENDBRANCH  12  17
TORSDOF 9
ENDMDL
MODEL 2
REMARK VINA RESULT:       2.4      2.669      4.218
REMARK  Name = 40779537
REMARK  13 active torsions:
REMARK  status: ('A' for Active; 'I' for Inactive)
REMARK    1  A    between atoms: S_1  and  N_8
REMARK    2  A    between atoms: S_1  and  C_22
REMARK    3  A    between atoms: O_4  and  C_28
REMARK    4  A    between atoms: O_4  and  C_31
REMARK    5  A    between atoms: O_5  and  C_30
REMARK    6  A    between atoms: O_5  and  C_32
REMARK    7  A    between atoms: N_7  and  C_21
REMARK    8  A    between atoms: N_8  and  C_17
REMARK    9  A    between atoms: C_11  and  C_18
REMARK   10  A    between atoms: C_12  and  C_17
REMARK   11  A    between atoms: C_20  and  C_23
REMARK   12  A    between atoms: C_22  and  C_24
REMARK   13  A    between atoms: C_24  and  C_27
REMARK                            x       y       z     vdW  Elec       q    Type
REMARK                         _______ _______ _______ _____ _____    ______ ____
ROOT
ATOM      6  N   UNL     1      -5.660   2.505  24.221  0.00  0.00    -0.297 NA
ATOM     10  C   UNL     1      -3.978   3.310  26.039  0.00  0.00    +0.002 C 
ATOM     11  C   UNL     1      -3.388   3.528  24.619  0.00  0.00    +0.055 C 
ATOM     12  C   UNL     1      -5.480   1.447  25.250  0.00  0.00    +0.072 C 
ATOM     13  C   UNL     1      -4.336   1.820  26.219  0.00  0.00    +0.024 C 
ATOM     14  C   UNL     1      -5.299   4.106  26.099  0.00  0.00    +0.019 C 
ATOM     15  C   UNL     1      -4.352   2.845  23.607  0.00  0.00    +0.094 C 
ATOM     16  C   UNL     1      -6.180   3.716  24.899  0.00  0.00    +0.085 C 
ENDROOT
BRANCH  11  18
ATOM      7  N   UNL     1      -0.903   4.032  24.505  0.00  0.00    -0.270 N 
ATOM      9  N   UNL     1       0.304   3.498  24.249  0.00  0.00    -0.171 NA
ATOM     18  C   UNL     1      -1.934   3.148  24.377  0.00  0.00    +0.044 A 
ATOM     19  C   UNL     1      -1.362   1.953  24.012  0.00  0.00    +0.053 A 
ATOM     20  C   UNL     1       0.017   2.229  23.948  0.00  0.00    +0.093 A 
ATOM     21  C   UNL     1      -0.995   5.425  24.873  0.00  0.00    +0.172 C 
BRANCH  20  23
ATOM     23  C   UNL     1       1.065   1.303  23.603  0.00  0.00    +0.006 A 
ATOM     25  C   UNL     1       2.387   1.742  23.531  0.00  0.00    +0.059 A 
ATOM     26  C   UNL     1       0.757  -0.032  23.340  0.00  0.00    +0.014 A 
ATOM     28  C   UNL     1       3.401   0.845  23.197  0.00  0.00    +0.162 A 
ATOM     29  C   UNL     1       1.771  -0.928  23.004  0.00  0.00    +0.050 A 
ATOM     30  C   UNL     1       3.094  -0.490  22.932  0.00  0.00    +0.162 A 
BRANCH  28   4
ATOM      4  O   UNL     1       4.689   1.284  23.129  0.00  0.00    -0.491 OA
ATOM     31  C   UNL     1       5.592   0.799  24.121  0.00  0.00    +0.277 C 
ENDBRANCH  28   4
BRANCH  30   5
ATOM      5  O   UNL     1       4.076  -1.375  22.604  0.00  0.00    -0.491 OA
ATOM     32  C   UNL     1       4.708  -2.070  23.678  0.00  0.00    +0.277 C 
ENDBRANCH  30   5
ENDBRANCH  20  23
ENDBRANCH  11  18
BRANCH  12  17
ATOM     17  C   UNL     1      -5.276   0.062  24.633  0.00  0.00    +0.124 C 
BRANCH  17   8
ATOM      8  N   UNL     1      -3.998  -0.494  25.106  0.00  0.00    -0.193 NA
ATOM     33  H   UNL     1      -3.769  -0.234  26.075  0.00  0.00    +0.148 HD
BRANCH   8   1
ATOM      1  S   UNL     1      -3.542  -2.067  24.620  0.00  0.00    +0.029 S 
ATOM      2  O   UNL     1      -4.253  -2.432  23.410  0.00  0.00    -0.158 OA
ATOM      3  O   UNL     1      -3.564  -2.934  25.783  0.00  0.00    -0.158 OA
BRANCH   1  22
ATOM     22  C   UNL     1      -1.837  -1.795  24.193  0.00  0.00    +0.185 C 
BRANCH  22  24
ATOM     24  C   UNL     1      -0.933  -1.936  25.407  0.00  0.00    +0.021 C 
ATOM     27  C   UNL     1      -0.990  -0.699  26.288  0.00  0.00    +0.005 C 
ENDBRANCH  22  24
ENDBRANCH   1  22
ENDBRANCH   8   1
ENDBRANCH  17   8
ENDBRANCH  12  17
TORSDOF 9
ENDMDL
MODEL 3
REMARK VINA RESULT:       3.8      1.455      2.248
REMARK  Name = 40779537
REMARK  13 active torsions:
REMARK  status: ('A' for Active; 'I' for Inactive)
REMARK    1  A    between atoms: S_1  and  N_8
REMARK    2  A    between atoms: S_1  and  C_22
REMARK    3  A    between atoms: O_4  and  C_28
REMARK    4  A    between atoms: O_4  and  C_31
REMARK    5  A    between atoms: O_5  and  C_30
REMARK    6  A    between atoms: O_5  and  C_32
REMARK    7  A    between atoms: N_7  and  C_21
REMARK    8  A    between atoms: N_8  and  C_17
REMARK    9  A    between atoms: C_11  and  C_18
REMARK   10  A    between atoms: C_12  and  C_17
REMARK   11  A    between atoms: C_20  and  C_23
REMARK   12  A    between atoms: C_22  and  C_24
REMARK   13  A    between atoms: C_24  and  C_27
REMARK                            x       y       z     vdW  Elec       q    Type
REMARK                         _______ _______ _______ _____ _____    ______ ____
ROOT
ATOM      6  N   UNL     1      -5.275   2.383  26.589  0.00  0.00    -0.297 NA
ATOM     10  C   UNL     1      -5.305   1.394  24.181  0.00  0.00    +0.002 C 
ATOM     11  C   UNL     1      -4.650   0.393  25.172  0.00  0.00    +0.055 C 
ATOM     12  C   UNL     1      -4.726   3.374  25.626  0.00  0.00    +0.072 C 
ATOM     13  C   UNL     1      -4.543   2.735  24.233  0.00  0.00    +0.024 C 
ATOM     14  C   UNL     1      -6.733   1.662  24.699  0.00  0.00    +0.019 C 
ATOM     15  C   UNL     1      -4.486   1.128  26.532  0.00  0.00    +0.094 C 
ATOM     16  C   UNL     1      -6.666   2.074  26.180  0.00  0.00    +0.085 C 
ENDROOT
BRANCH  11  18
ATOM      7  N   UNL     1      -3.360  -1.574  24.216  0.00  0.00    -0.270 N 
ATOM      9  N   UNL     1      -2.131  -2.018  23.899  0.00  0.00    -0.171 NA
ATOM     18  C   UNL     1      -3.373  -0.315  24.741  0.00  0.00    +0.044 A 
ATOM     19  C   UNL     1      -2.061   0.093  24.769  0.00  0.00    +0.053 A 
ATOM     20  C   UNL     1      -1.342  -0.995  24.239  0.00  0.00    +0.093 A 
ATOM     21  C   UNL     1      -4.501  -2.429  23.985  0.00  0.00    +0.172 C 
BRANCH  20  23
ATOM     23  C   UNL     1       0.083  -1.078  24.054  0.00  0.00    +0.006 A 
ATOM     25  C   UNL     1       0.714  -0.258  23.118  0.00  0.00    +0.059 A 
ATOM     26  C   UNL     1       0.833  -1.979  24.811  0.00  0.00    +0.014 A 
ATOM     28  C   UNL     1       2.095  -0.339  22.940  0.00  0.00    +0.162 A 
ATOM     29  C   UNL     1       2.214  -2.060  24.631  0.00  0.00    +0.050 A 
ATOM     30  C   UNL     1       2.845  -1.240  23.695  0.00  0.00    +0.162 A 
BRANCH  28   4
ATOM      4  O   UNL     1       2.700   0.467  22.022  0.00  0.00    -0.491 OA
ATOM     31  C   UNL     1       3.570   1.480  22.524  0.00  0.00    +0.277 C 
ENDBRANCH  28   4
BRANCH  30   5
ATOM      5  O   UNL     1       4.194  -1.328  23.529  0.00  0.00    -0.491 OA
ATOM     32  C   UNL     1       5.009  -0.586  24.435  0.00  0.00    +0.277 C 
ENDBRANCH  30   5
ENDBRANCH  20  23
ENDBRANCH  11  18
BRANCH  12  17
ATOM     17  C   UNL     1      -3.435   4.024  26.130  0.00  0.00    +0.124 C 
BRANCH  17   8
ATOM      8  N   UNL     1      -2.587   4.369  24.978  0.00  0.00    -0.193 NA
ATOM     33  H   UNL     1      -2.798   5.292  24.574  0.00  0.00    +0.148 HD
BRANCH   8   1
ATOM      1  S   UNL     1      -0.942   3.907  24.984  0.00  0.00    +0.029 S 
ATOM      2  O   UNL     1      -0.663   3.103  26.158  0.00  0.00    -0.158 OA
ATOM      3  O   UNL     1      -0.135   5.071  24.675  0.00  0.00    -0.158 OA
BRANCH   1  22
ATOM     22  C   UNL     1      -0.899   2.838  23.564  0.00  0.00    +0.185 C 
BRANCH  22  24
ATOM     24  C   UNL     1      -2.213   2.877  22.801  0.00  0.00    +0.021 C 
ATOM     27  C   UNL     1      -2.275   1.785  21.746  0.00  0.00    +0.005 C 
ENDBRANCH  22  24
ENDBRANCH   1  22
ENDBRANCH   8   1
ENDBRANCH  17   8
ENDBRANCH  12  17
TORSDOF 9
ENDMDL
MODEL 4
REMARK VINA RESULT:       5.7      2.683      3.756
REMARK  Name = 40779537
REMARK  13 active torsions:
REMARK  status: ('A' for Active; 'I' for Inactive)
REMARK    1  A    between atoms: S_1  and  N_8
REMARK    2  A    between atoms: S_1  and  C_22
REMARK    3  A    between atoms: O_4  and  C_28
REMARK    4  A    between atoms: O_4  and  C_31
REMARK    5  A    between atoms: O_5  and  C_30
REMARK    6  A    between atoms: O_5  and  C_32
REMARK    7  A    between atoms: N_7  and  C_21
REMARK    8  A    between atoms: N_8  and  C_17
REMARK    9  A    between atoms: C_11  and  C_18
REMARK   10  A    between atoms: C_12  and  C_17
REMARK   11  A    between atoms: C_20  and  C_23
REMARK   12  A    between atoms: C_22  and  C_24
REMARK   13  A    between atoms: C_24  and  C_27
REMARK                            x       y       z     vdW  Elec       q    Type
REMARK                         _______ _______ _______ _____ _____    ______ ____
ROOT
ATOM      6  N   UNL     1      -4.875   3.280  24.564  0.00  0.00    -0.297 NA
ATOM     10  C   UNL     1      -2.679   3.231  25.960  0.00  0.00    +0.002 C 
ATOM     11  C   UNL     1      -2.357   3.354  24.446  0.00  0.00    +0.055 C 
ATOM     12  C   UNL     1      -4.903   2.136  25.512  0.00  0.00    +0.072 C 
ATOM     13  C   UNL     1      -3.530   1.967  26.200  0.00  0.00    +0.024 C 
ATOM     14  C   UNL     1      -3.556   4.447  26.328  0.00  0.00    +0.019 C 
ATOM     15  C   UNL     1      -3.694   3.173  23.672  0.00  0.00    +0.094 C 
ATOM     16  C   UNL     1      -4.746   4.526  25.356  0.00  0.00    +0.085 C 
ENDROOT
BRANCH  11  18
ATOM      7  N   UNL     1      -1.437   1.581  22.879  0.00  0.00    -0.270 N 
ATOM      9  N   UNL     1      -0.323   0.921  22.517  0.00  0.00    -0.171 NA
ATOM     18  C   UNL     1      -1.240   2.491  23.876  0.00  0.00    +0.044 A 
ATOM     19  C   UNL     1       0.097   2.422  24.188  0.00  0.00    +0.053 A 
ATOM     20  C   UNL     1       0.610   1.440  23.320  0.00  0.00    +0.093 A 
ATOM     21  C   UNL     1      -2.683   1.279  22.214  0.00  0.00    +0.172 C 
BRANCH  20  23
ATOM     23  C   UNL     1       1.975   0.985  23.245  0.00  0.00    +0.006 A 
ATOM     25  C   UNL     1       2.291  -0.330  23.585  0.00  0.00    +0.059 A 
ATOM     26  C   UNL     1       2.980   1.861  22.834  0.00  0.00    +0.014 A 
ATOM     28  C   UNL     1       3.613  -0.769  23.513  0.00  0.00    +0.162 A 
ATOM     29  C   UNL     1       4.302   1.422  22.763  0.00  0.00    +0.050 A 
ATOM     30  C   UNL     1       4.619   0.106  23.103  0.00  0.00    +0.162 A 
BRANCH  28   4
ATOM      4  O   UNL     1       3.911  -2.056  23.848  0.00  0.00    -0.491 OA
ATOM     31  C   UNL     1       5.292  -2.403  23.925  0.00  0.00    +0.277 C 
ENDBRANCH  28   4
BRANCH  30   5
ATOM      5  O   UNL     1       5.913  -0.312  23.028  0.00  0.00    -0.491 OA
ATOM     32  C   UNL     1       6.888   0.472  23.715  0.00  0.00    +0.277 C 
ENDBRANCH  30   5
ENDBRANCH  20  23
ENDBRANCH  11  18
BRANCH  12  17
ATOM     17  C   UNL     1      -5.372   0.839  24.850  0.00  0.00    +0.124 C 
BRANCH  17   8
ATOM      8  N   UNL     1      -4.205   0.125  24.306  0.00  0.00    -0.193 NA
ATOM     33  H   UNL     1      -3.467   0.749  23.957  0.00  0.00    +0.148 HD
BRANCH   8   1
ATOM      1  S   UNL     1      -3.681  -1.314  25.063  0.00  0.00    +0.029 S 
ATOM      2  O   UNL     1      -4.022  -2.456  24.237  0.00  0.00    -0.158 OA
ATOM      3  O   UNL     1      -4.069  -1.268  26.459  0.00  0.00    -0.158 OA
BRANCH   1  22
ATOM     22  C   UNL     1      -1.918  -1.095  24.994  0.00  0.00    +0.185 C 
BRANCH  22  24
ATOM     24  C   UNL     1      -1.200  -2.427  24.849  0.00  0.00    +0.021 C 
ATOM     27  C   UNL     1       0.213  -2.359  25.404  0.00  0.00    +0.005 C 
ENDBRANCH  22  24
ENDBRANCH   1  22
ENDBRANCH   8   1
ENDBRANCH  17   8
ENDBRANCH  12  17
TORSDOF 9
ENDMDL
MODEL 5
REMARK VINA RESULT:       6.1      2.370      4.163
REMARK  Name = 40779537
REMARK  13 active torsions:
REMARK  status: ('A' for Active; 'I' for Inactive)
REMARK    1  A    between atoms: S_1  and  N_8
REMARK    2  A    between atoms: S_1  and  C_22
REMARK    3  A    between atoms: O_4  and  C_28
REMARK    4  A    between atoms: O_4  and  C_31
REMARK    5  A    between atoms: O_5  and  C_30
REMARK    6  A    between atoms: O_5  and  C_32
REMARK    7  A    between atoms: N_7  and  C_21
REMARK    8  A    between atoms: N_8  and  C_17
REMARK    9  A    between atoms: C_11  and  C_18
REMARK   10  A    between atoms: C_12  and  C_17
REMARK   11  A    between atoms: C_20  and  C_23
REMARK   12  A    between atoms: C_22  and  C_24
REMARK   13  A    between atoms: C_24  and  C_27
REMARK                            x       y       z     vdW  Elec       q    Type
REMARK                         _______ _______ _______ _____ _____    ______ ____
ROOT
ATOM      6  N   UNL     1      -5.409   1.863  24.068  0.00  0.00    -0.297 NA
ATOM     10  C   UNL     1      -3.946   2.978  25.911  0.00  0.00    +0.002 C 
ATOM     11  C   UNL     1      -3.369   3.282  24.501  0.00  0.00    +0.055 C 
ATOM     12  C   UNL     1      -5.068   0.867  25.118  0.00  0.00    +0.072 C 
ATOM     13  C   UNL     1      -4.035   1.450  26.107  0.00  0.00    +0.024 C 
ATOM     14  C   UNL     1      -5.390   3.524  25.928  0.00  0.00    +0.019 C 
ATOM     15  C   UNL     1      -4.168   2.425  23.479  0.00  0.00    +0.094 C 
ATOM     16  C   UNL     1      -6.156   2.968  24.715  0.00  0.00    +0.085 C 
ENDROOT
BRANCH  11  18
ATOM      7  N   UNL     1      -0.999   4.188  24.561  0.00  0.00    -0.270 N 
ATOM      9  N   UNL     1       0.288   3.884  24.318  0.00  0.00    -0.171 NA
ATOM     18  C   UNL     1      -1.865   3.167  24.300  0.00  0.00    +0.044 A 
ATOM     19  C   UNL     1      -1.091   2.122  23.854  0.00  0.00    +0.053 A 
ATOM     20  C   UNL     1       0.225   2.621  23.886  0.00  0.00    +0.093 A 
ATOM     21  C   UNL     1      -1.332   5.505  25.052  0.00  0.00    +0.172 C 
BRANCH  20  23
ATOM     23  C   UNL     1       1.423   1.916  23.510  0.00  0.00    +0.006 A 
ATOM     25  C   UNL     1       1.489   0.530  23.652  0.00  0.00    +0.059 A 
ATOM     26  C   UNL     1       2.517   2.620  23.005  0.00  0.00    +0.014 A 
ATOM     28  C   UNL     1       2.650  -0.153  23.288  0.00  0.00    +0.162 A 
ATOM     29  C   UNL     1       3.677   1.937  22.642  0.00  0.00    +0.050 A 
ATOM     30  C   UNL     1       3.744   0.550  22.784  0.00  0.00    +0.162 A 
BRANCH  28   4
ATOM      4  O   UNL     1       2.704  -1.507  23.431  0.00  0.00    -0.491 OA
ATOM     31  C   UNL     1       3.890  -2.050  24.008  0.00  0.00    +0.277 C 
ENDBRANCH  28   4
BRANCH  30   5
ATOM      5  O   UNL     1       4.883  -0.106  22.425  0.00  0.00    -0.491 OA
ATOM     32  C   UNL     1       6.020   0.061  23.270  0.00  0.00    +0.277 C 
ENDBRANCH  30   5
ENDBRANCH  20  23
ENDBRANCH  11  18
BRANCH  12  17
ATOM     17  C   UNL     1      -4.603  -0.466  24.529  0.00  0.00    +0.124 C 
BRANCH  17   8
ATOM      8  N   UNL     1      -3.182  -0.363  24.160  0.00  0.00    -0.193 NA
ATOM     33  H   UNL     1      -2.886   0.595  23.931  0.00  0.00    +0.148 HD
BRANCH   8   1
ATOM      1  S   UNL     1      -2.036  -1.332  24.975  0.00  0.00    +0.029 S 
ATOM      2  O   UNL     1      -1.514  -0.614  26.122  0.00  0.00    -0.158 OA
ATOM      3  O   UNL     1      -1.140  -1.911  23.993  0.00  0.00    -0.158 OA
BRANCH   1  22
ATOM     22  C   UNL     1      -3.082  -2.638  25.576  0.00  0.00    +0.185 C 
BRANCH  22  24
ATOM     24  C   UNL     1      -3.376  -3.657  24.487  0.00  0.00    +0.021 C 
ATOM     27  C   UNL     1      -4.369  -3.114  23.473  0.00  0.00    +0.005 C 
ENDBRANCH  22  24
ENDBRANCH   1  22
ENDBRANCH   8   1
ENDBRANCH  17   8
ENDBRANCH  12  17
TORSDOF 9
ENDMDL
