MODEL 1
REMARK VINA RESULT:      -2.8      0.000      0.000
REMARK  Name = 45783481
REMARK  11 active torsions:
REMARK  status: ('A' for Active; 'I' for Inactive)
REMARK    1  A    between atoms: O_2  and  C_24
REMARK    2  A    between atoms: O_2  and  C_25
REMARK    3  A    between atoms: N_3  and  C_12
REMARK    4  A    between atoms: N_7  and  C_22
REMARK    5  A    between atoms: N_7  and  C_23
REMARK    6  A    between atoms: C_8  and  C_14
REMARK    7  A    between atoms: C_12  and  C_13
REMARK    8  A    between atoms: C_13  and  C_15
REMARK    9  A    between atoms: C_13  and  C_16
REMARK   10  A    between atoms: C_17  and  C_18
REMARK   11  A    between atoms: C_23  and  C_24
REMARK                            x       y       z     vdW  Elec       q    Type
REMARK                         _______ _______ _______ _____ _____    ______ ____
ROOT
ATOM      1  O   UNL     1      -3.024  -0.506  24.864  0.00  0.00    -0.336 OA
ATOM      4  N   UNL     1      -1.846   1.391  24.694  0.00  0.00    -0.190 NA
ATOM      5  N   UNL     1      -1.812  -0.854  24.255  0.00  0.00    -0.056 NA
ATOM     14  C   UNL     1      -2.963   0.833  25.089  0.00  0.00    +0.245 A 
ATOM     17  C   UNL     1      -1.172   0.318  24.190  0.00  0.00    +0.204 A 
ENDROOT
BRANCH  17  18
ATOM      6  N   UNL     1       2.225   1.668  23.506  0.00  0.00    -0.240 NA
ATOM     18  C   UNL     1       0.141   0.449  23.626  0.00  0.00    +0.041 A 
ATOM     19  C   UNL     1       0.612  -0.461  22.687  0.00  0.00    +0.016 A 
ATOM     20  C   UNL     1       0.979   1.487  23.999  0.00  0.00    +0.124 A 
ATOM     21  C   UNL     1       1.887  -0.309  22.157  0.00  0.00    +0.044 A 
ATOM     22  C   UNL     1       2.648   0.763  22.596  0.00  0.00    +0.119 A 
BRANCH  22   7
ATOM      7  N   UNL     1       3.946   0.905  22.047  0.00  0.00    -0.327 N 
ATOM     26  H   UNL     1       4.062   1.621  21.339  0.00  0.00    +0.148 HD
BRANCH   7  23
ATOM     23  C   UNL     1       5.047   0.092  22.452  0.00  0.00    +0.131 C 
BRANCH  23  24
ATOM     24  C   UNL     1       5.463   0.449  23.870  0.00  0.00    +0.178 C 
BRANCH  24   2
ATOM      2  O   UNL     1       5.454  -0.723  24.675  0.00  0.00    -0.381 OA
ATOM     25  C   UNL     1       4.792  -1.798  24.022  0.00  0.00    +0.194 C 
ENDBRANCH  24   2
ENDBRANCH  23  24
ENDBRANCH   7  23
ENDBRANCH  22   7
ENDBRANCH  17  18
BRANCH  14   8
ATOM      3  N   UNL     1      -4.375   2.867  25.337  0.00  0.00    -0.291 NA
ATOM      8  C   UNL     1      -4.170   1.463  25.750  0.00  0.00    +0.146 C 
ATOM      9  C   UNL     1      -5.486   0.753  25.384  0.00  0.00    +0.030 C 
ATOM     10  C   UNL     1      -5.814   3.116  25.424  0.00  0.00    +0.085 C 
ATOM     11  C   UNL     1      -6.389   1.846  24.832  0.00  0.00    +0.017 C 
BRANCH   3  12
ATOM     12  C   UNL     1      -3.605   3.817  26.131  0.00  0.00    +0.088 C 
BRANCH  12  13
ATOM     13  C   UNL     1      -2.770   4.770  25.257  0.00  0.00    -0.003 C 
ATOM     15  C   UNL     1      -1.281   4.466  25.439  0.00  0.00    +0.008 C 
ATOM     16  C   UNL     1      -3.137   4.679  23.774  0.00  0.00    +0.008 C 
ENDBRANCH  12  13
ENDBRANCH   3  12
ENDBRANCH  14   8
TORSDOF 8
ENDMDL
MODEL 2
REMARK VINA RESULT:      -2.7      1.452      2.766
REMARK  Name = 45783481
REMARK  11 active torsions:
REMARK  status: ('A' for Active; 'I' for Inactive)
REMARK    1  A    between atoms: O_2  and  C_24
REMARK    2  A    between atoms: O_2  and  C_25
REMARK    3  A    between atoms: N_3  and  C_12
REMARK    4  A    between atoms: N_7  and  C_22
REMARK    5  A    between atoms: N_7  and  C_23
REMARK    6  A    between atoms: C_8  and  C_14
REMARK    7  A    between atoms: C_12  and  C_13
REMARK    8  A    between atoms: C_13  and  C_15
REMARK    9  A    between atoms: C_13  and  C_16
REMARK   10  A    between atoms: C_17  and  C_18
REMARK   11  A    between atoms: C_23  and  C_24
REMARK                            x       y       z     vdW  Elec       q    Type
REMARK                         _______ _______ _______ _____ _____    ______ ____
ROOT
ATOM      1  O   UNL     1      -2.009   1.746  25.635  0.00  0.00    -0.336 OA
ATOM      4  N   UNL     1      -1.655   1.512  23.436  0.00  0.00    -0.190 NA
ATOM      5  N   UNL     1      -0.640   1.488  25.485  0.00  0.00    -0.056 NA
ATOM     14  C   UNL     1      -2.531   1.742  24.381  0.00  0.00    +0.245 A 
ATOM     17  C   UNL     1      -0.510   1.363  24.161  0.00  0.00    +0.204 A 
ENDROOT
BRANCH  17  18
ATOM      6  N   UNL     1       3.036   1.750  23.107  0.00  0.00    -0.240 NA
ATOM     18  C   UNL     1       0.750   1.086  23.533  0.00  0.00    +0.041 A 
ATOM     19  C   UNL     1       0.933  -0.059  22.766  0.00  0.00    +0.016 A 
ATOM     20  C   UNL     1       1.824   1.950  23.672  0.00  0.00    +0.124 A 
ATOM     21  C   UNL     1       2.164  -0.301  22.169  0.00  0.00    +0.044 A 
ATOM     22  C   UNL     1       3.175   0.626  22.369  0.00  0.00    +0.119 A 
BRANCH  22   7
ATOM      7  N   UNL     1       4.424   0.366  21.754  0.00  0.00    -0.327 N 
ATOM     26  H   UNL     1       4.486   0.549  20.759  0.00  0.00    +0.148 HD
BRANCH   7  23
ATOM     23  C   UNL     1       5.549  -0.132  22.478  0.00  0.00    +0.131 C 
BRANCH  23  24
ATOM     24  C   UNL     1       5.515   0.381  23.909  0.00  0.00    +0.178 C 
BRANCH  24   2
ATOM      2  O   UNL     1       5.370  -0.717  24.802  0.00  0.00    -0.381 OA
ATOM     25  C   UNL     1       4.890  -1.874  24.130  0.00  0.00    +0.194 C 
ENDBRANCH  24   2
ENDBRANCH  23  24
ENDBRANCH   7  23
ENDBRANCH  22   7
ENDBRANCH  17  18
BRANCH  14   8
ATOM      3  N   UNL     1      -4.815   1.136  25.162  0.00  0.00    -0.291 NA
ATOM      8  C   UNL     1      -4.019   2.002  24.269  0.00  0.00    +0.146 C 
ATOM      9  C   UNL     1      -4.403   3.437  24.670  0.00  0.00    +0.030 C 
ATOM     10  C   UNL     1      -6.021   1.891  25.501  0.00  0.00    +0.085 C 
ATOM     11  C   UNL     1      -5.464   3.279  25.750  0.00  0.00    +0.017 C 
BRANCH   3  12
ATOM     12  C   UNL     1      -5.127  -0.162  24.577  0.00  0.00    +0.088 C 
BRANCH  12  13
ATOM     13  C   UNL     1      -3.905  -1.096  24.534  0.00  0.00    -0.003 C 
ATOM     15  C   UNL     1      -3.420  -1.377  25.959  0.00  0.00    +0.008 C 
ATOM     16  C   UNL     1      -4.200  -2.417  23.820  0.00  0.00    +0.008 C 
ENDBRANCH  12  13
ENDBRANCH   3  12
ENDBRANCH  14   8
TORSDOF 8
ENDMDL
MODEL 3
REMARK VINA RESULT:       1.1      1.603      2.379
REMARK  Name = 45783481
REMARK  11 active torsions:
REMARK  status: ('A' for Active; 'I' for Inactive)
REMARK    1  A    between atoms: O_2  and  C_24
REMARK    2  A    between atoms: O_2  and  C_25
REMARK    3  A    between atoms: N_3  and  C_12
REMARK    4  A    between atoms: N_7  and  C_22
REMARK    5  A    between atoms: N_7  and  C_23
REMARK    6  A    between atoms: C_8  and  C_14
REMARK    7  A    between atoms: C_12  and  C_13
REMARK    8  A    between atoms: C_13  and  C_15
REMARK    9  A    between atoms: C_13  and  C_16
REMARK   10  A    between atoms: C_17  and  C_18
REMARK   11  A    between atoms: C_23  and  C_24
REMARK                            x       y       z     vdW  Elec       q    Type
REMARK                         _______ _______ _______ _____ _____    ______ ____
ROOT
ATOM      1  O   UNL     1      -1.860   2.087  25.194  0.00  0.00    -0.336 OA
ATOM      4  N   UNL     1      -1.172   0.205  24.195  0.00  0.00    -0.190 NA
ATOM      5  N   UNL     1      -0.560   2.341  24.736  0.00  0.00    -0.056 NA
ATOM     14  C   UNL     1      -2.142   0.807  24.834  0.00  0.00    +0.245 A 
ATOM     17  C   UNL     1      -0.224   1.184  24.158  0.00  0.00    +0.204 A 
ENDROOT
BRANCH  17  18
ATOM      6  N   UNL     1       3.296   1.770  23.108  0.00  0.00    -0.240 NA
ATOM     18  C   UNL     1       1.053   0.975  23.538  0.00  0.00    +0.041 A 
ATOM     19  C   UNL     1       1.308  -0.168  22.790  0.00  0.00    +0.016 A 
ATOM     20  C   UNL     1       2.072   1.905  23.667  0.00  0.00    +0.124 A 
ATOM     21  C   UNL     1       2.554  -0.344  22.200  0.00  0.00    +0.044 A 
ATOM     22  C   UNL     1       3.506   0.646  22.388  0.00  0.00    +0.119 A 
BRANCH  22   7
ATOM      7  N   UNL     1       4.771   0.453  21.782  0.00  0.00    -0.327 N 
ATOM     26  H   UNL     1       4.884   0.818  20.843  0.00  0.00    +0.148 HD
BRANCH   7  23
ATOM     23  C   UNL     1       5.845  -0.221  22.438  0.00  0.00    +0.131 C 
BRANCH  23  24
ATOM     24  C   UNL     1       5.962   0.264  23.874  0.00  0.00    +0.178 C 
BRANCH  24   2
ATOM      2  O   UNL     1       5.347  -0.679  24.744  0.00  0.00    -0.381 OA
ATOM     25  C   UNL     1       5.031  -1.886  24.062  0.00  0.00    +0.194 C 
ENDBRANCH  24   2
ENDBRANCH  23  24
ENDBRANCH   7  23
ENDBRANCH  22   7
ENDBRANCH  17  18
BRANCH  14   8
ATOM      3  N   UNL     1      -4.523   0.522  24.171  0.00  0.00    -0.291 NA
ATOM      8  C   UNL     1      -3.509   0.284  25.219  0.00  0.00    +0.146 C 
ATOM      9  C   UNL     1      -3.523  -1.240  25.436  0.00  0.00    +0.030 C 
ATOM     10  C   UNL     1      -5.504  -0.557  24.293  0.00  0.00    +0.085 C 
ATOM     11  C   UNL     1      -4.616  -1.764  24.516  0.00  0.00    +0.017 C 
BRANCH   3  12
ATOM     12  C   UNL     1      -5.144   1.838  24.260  0.00  0.00    +0.088 C 
BRANCH  12  13
ATOM     13  C   UNL     1      -5.178   2.375  25.702  0.00  0.00    -0.003 C 
ATOM     15  C   UNL     1      -4.999   3.895  25.692  0.00  0.00    +0.008 C 
ATOM     16  C   UNL     1      -6.474   2.013  26.432  0.00  0.00    +0.008 C 
ENDBRANCH  12  13
ENDBRANCH   3  12
ENDBRANCH  14   8
TORSDOF 8
ENDMDL
