MODEL 1
REMARK VINA RESULT:       1.3      0.000      0.000
REMARK  Name = 45784372
REMARK  12 active torsions:
REMARK  status: ('A' for Active; 'I' for Inactive)
REMARK    1  A    between atoms: O_1  and  C_10
REMARK    2  A    between atoms: O_4  and  C_23
REMARK    3  A    between atoms: O_4  and  C_26
REMARK    4  A    between atoms: N_5  and  C_14
REMARK    5  A    between atoms: N_6  and  C_24
REMARK    6  A    between atoms: C_7  and  C_17
REMARK    7  A    between atoms: C_9  and  C_19
REMARK    8  A    between atoms: C_13  and  C_18
REMARK    9  A    between atoms: C_18  and  C_20
REMARK   10  A    between atoms: C_18  and  C_21
REMARK   11  A    between atoms: C_22  and  C_23
REMARK   12  A    between atoms: C_24  and  C_25
REMARK                            x       y       z     vdW  Elec       q    Type
REMARK                         _______ _______ _______ _____ _____    ______ ____
ROOT
ATOM      7  C   UNL     1      -2.407  -0.823  25.280  0.00  0.00    -0.027 C 
ATOM      8  C   UNL     1      -2.632   0.202  24.119  0.00  0.00    +0.028 C 
ATOM      9  C   UNL     1      -1.260   0.739  23.573  0.00  0.00    +0.012 C 
ATOM     10  C   UNL     1      -3.663   1.294  24.522  0.00  0.00    +0.122 C 
ATOM     11  C   UNL     1      -3.769  -1.415  25.716  0.00  0.00    +0.007 C 
ATOM     12  C   UNL     1      -1.532  -1.987  24.763  0.00  0.00    +0.009 C 
ATOM     13  C   UNL     1      -4.986   0.696  25.056  0.00  0.00    +0.029 C 
ATOM     14  C   UNL     1      -0.358  -0.446  23.127  0.00  0.00    +0.076 C 
ATOM     15  C   UNL     1      -4.769  -0.350  26.149  0.00  0.00    +0.007 C 
ATOM     16  C   UNL     1      -0.197  -1.524  24.198  0.00  0.00    +0.023 C 
ATOM     17  C   UNL     1      -1.726  -0.181  26.515  0.00  0.00    +0.011 C 
ATOM     19  C   UNL     1      -1.406   1.731  22.408  0.00  0.00    +0.010 C 
ENDROOT
BRANCH  14   5
ATOM      3  O   UNL     1       0.934  -0.873  20.575  0.00  0.00    -0.272 OA
ATOM      5  N   UNL     1       0.959   0.004  22.728  0.00  0.00    -0.309 N 
ATOM     22  C   UNL     1       1.491  -0.252  21.475  0.00  0.00    +0.251 C 
ATOM     37  H   UNL     1       1.534   0.473  23.422  0.00  0.00    +0.149 HD
BRANCH  22  23
ATOM     23  C   UNL     1       2.880   0.333  21.329  0.00  0.00    +0.324 C 
BRANCH  23   4
ATOM      4  O   UNL     1       3.324   0.873  22.555  0.00  0.00    -0.483 OA
BRANCH   4  26
ATOM     26  C   UNL     1       4.299   0.178  23.231  0.00  0.00    +0.121 A 
ATOM     29  C   UNL     1       4.110  -1.170  23.536  0.00  0.00    +0.045 A 
ATOM     30  C   UNL     1       5.478   0.821  23.608  0.00  0.00    +0.045 A 
ATOM     34  C   UNL     1       5.100  -1.875  24.220  0.00  0.00    +0.004 A 
ATOM     35  C   UNL     1       6.468   0.116  24.293  0.00  0.00    +0.004 A 
ATOM     36  C   UNL     1       6.279  -1.233  24.599  0.00  0.00    +0.000 A 
ENDBRANCH   4  26
ENDBRANCH  23   4
ENDBRANCH  22  23
ENDBRANCH  14   5
BRANCH  10   1
ATOM      1  O   UNL     1      -4.004   2.076  23.376  0.00  0.00    -0.391 OA
ATOM     38  H   UNL     1      -3.191   2.498  23.046  0.00  0.00    +0.210 HD
ENDBRANCH  10   1
BRANCH  13  18
ATOM     18  C   UNL     1      -5.938   1.783  25.569  0.00  0.00    +0.077 C 
ATOM     20  C   UNL     1      -7.146   1.900  24.647  0.00  0.00    +0.017 C 
BRANCH  18  21
ATOM      2  O   UNL     1      -5.522   4.112  25.050  0.00  0.00    -0.276 OA
ATOM      6  N   UNL     1      -4.131   3.049  26.572  0.00  0.00    -0.311 N 
ATOM     21  C   UNL     1      -5.196   3.111  25.684  0.00  0.00    +0.216 C 
ATOM     39  H   UNL     1      -3.950   2.191  27.082  0.00  0.00    +0.149 HD
BRANCH   6  24
ATOM     24  C   UNL     1      -3.277   4.181  26.847  0.00  0.00    +0.139 C 
BRANCH  24  25
ATOM     25  C   UNL     1      -2.022   4.153  26.023  0.00  0.00    -0.030 A 
ATOM     27  C   UNL     1      -1.106   3.113  26.182  0.00  0.00    +0.005 A 
ATOM     28  C   UNL     1      -1.773   5.167  25.098  0.00  0.00    +0.005 A 
ATOM     31  C   UNL     1       0.058   3.087  25.416  0.00  0.00    +0.000 A 
ATOM     32  C   UNL     1      -0.607   5.141  24.332  0.00  0.00    +0.000 A 
ATOM     33  C   UNL     1       0.308   4.101  24.491  0.00  0.00    +0.000 A 
ENDBRANCH  24  25
ENDBRANCH   6  24
ENDBRANCH  18  21
ENDBRANCH  13  18
TORSDOF 9
ENDMDL
