MODEL 1
REMARK VINA RESULT:      10.6      0.000      0.000
REMARK  Name = 11883999
REMARK  7 active torsions:
REMARK  status: ('A' for Active; 'I' for Inactive)
REMARK    1  A    between atoms: O_3  and  C_13
REMARK    2  A    between atoms: O_3  and  C_17
REMARK    3  A    between atoms: O_6  and  C_30
REMARK    4  A    between atoms: O_6  and  C_34
REMARK    5  A    between atoms: N_7  and  C_12
REMARK    6  A    between atoms: N_8  and  C_18
REMARK    7  A    between atoms: N_9  and  C_19
REMARK                            x       y       z     vdW  Elec       q    Type
REMARK                         _______ _______ _______ _____ _____    ______ ____
ROOT
ATOM      1  O   UNL     1      -4.709   2.474  24.292  0.00  0.00    -0.368 OA
ATOM      2  O   UNL     1      -5.399   5.004  25.880  0.00  0.00    -0.368 OA
ATOM     10  C   UNL     1      -4.159   4.283  25.722  0.00  0.00    +0.173 C 
ATOM     11  C   UNL     1      -4.511   2.809  25.675  0.00  0.00    +0.192 C 
ATOM     12  C   UNL     1      -3.568   4.558  24.361  0.00  0.00    +0.131 C 
ATOM     13  C   UNL     1      -5.804   2.758  26.453  0.00  0.00    +0.235 C 
ATOM     14  C   UNL     1      -4.338   3.595  23.474  0.00  0.00    +0.185 C 
ATOM     15  C   UNL     1      -6.465   4.061  26.062  0.00  0.00    +0.207 C 
ENDROOT
BRANCH  12   7
ATOM      4  O   UNL     1      -2.313   2.164  23.411  0.00  0.00    -0.252 OA
ATOM      7  N   UNL     1      -2.154   4.277  24.337  0.00  0.00    -0.292 N 
ATOM      8  N   UNL     1      -0.225   3.088  23.956  0.00  0.00    -0.269 N 
ATOM     16  C   UNL     1      -1.619   3.076  23.854  0.00  0.00    +0.304 C 
ATOM     40  H   UNL     1      -1.510   5.009  24.625  0.00  0.00    +0.151 HD
ATOM     41  H   UNL     1       0.197   3.925  24.349  0.00  0.00    +0.156 HD
BRANCH   8  18
ATOM     18  C   UNL     1       0.682   2.070  23.578  0.00  0.00    +0.035 A 
ATOM     21  C   UNL     1       0.208   0.798  23.257  0.00  0.00    +0.027 A 
ATOM     22  C   UNL     1       2.050   2.338  23.527  0.00  0.00    +0.027 A 
ATOM     27  C   UNL     1       1.102  -0.206  22.885  0.00  0.00    +0.048 A 
ATOM     28  C   UNL     1       2.943   1.334  23.155  0.00  0.00    +0.048 A 
ATOM     30  C   UNL     1       2.470   0.062  22.834  0.00  0.00    +0.129 A 
BRANCH  30   6
ATOM      6  O   UNL     1       3.342  -0.919  22.474  0.00  0.00    -0.456 OA
BRANCH   6  34
ATOM     34  C   UNL     1       4.625  -0.860  22.994  0.00  0.00    +0.128 A 
ATOM     35  C   UNL     1       4.909  -1.455  24.222  0.00  0.00    +0.046 A 
ATOM     36  C   UNL     1       5.634  -0.203  22.287  0.00  0.00    +0.046 A 
ATOM     37  C   UNL     1       6.200  -1.395  24.745  0.00  0.00    +0.004 A 
ATOM     38  C   UNL     1       6.925  -0.143  22.811  0.00  0.00    +0.004 A 
ATOM     39  C   UNL     1       7.208  -0.738  24.039  0.00  0.00    +0.000 A 
ENDBRANCH   6  34
ENDBRANCH  30   6
ENDBRANCH   8  18
ENDBRANCH  12   7
BRANCH  13   3
ATOM      3  O   UNL     1      -6.606   1.641  26.140  0.00  0.00    -0.442 OA
BRANCH   3  17
ATOM      5  O   UNL     1      -6.610   0.746  24.035  0.00  0.00    -0.226 OA
ATOM      9  N   UNL     1      -5.089   0.039  25.669  0.00  0.00    -0.251 N 
ATOM     17  C   UNL     1      -6.134   0.788  25.164  0.00  0.00    +0.405 C 
ATOM     42  H   UNL     1      -4.861   0.241  26.636  0.00  0.00    +0.158 HD
BRANCH   9  19
ATOM     19  C   UNL     1      -4.326  -0.949  25.006  0.00  0.00    +0.044 A 
ATOM     20  C   UNL     1      -2.957  -1.124  25.267  0.00  0.00    +0.003 A 
ATOM     23  C   UNL     1      -4.983  -1.753  24.076  0.00  0.00    +0.024 A 
ATOM     24  C   UNL     1      -2.244  -2.129  24.571  0.00  0.00    -0.016 A 
ATOM     25  C   UNL     1      -2.279  -0.322  26.200  0.00  0.00    +0.010 A 
ATOM     26  C   UNL     1      -4.281  -2.744  23.393  0.00  0.00    +0.002 A 
ATOM     29  C   UNL     1      -2.921  -2.931  23.638  0.00  0.00    +0.008 A 
ATOM     31  C   UNL     1      -0.874  -2.304  24.831  0.00  0.00    +0.008 A 
ATOM     32  C   UNL     1      -0.919  -0.510  26.445  0.00  0.00    +0.001 A 
ATOM     33  C   UNL     1      -0.218  -1.499  25.762  0.00  0.00    +0.001 A 
ENDBRANCH   9  19
ENDBRANCH   3  17
ENDBRANCH  13   3
TORSDOF 7
ENDMDL
MODEL 2
REMARK VINA RESULT:      12.6      1.293      1.705
REMARK  Name = 11883999
REMARK  7 active torsions:
REMARK  status: ('A' for Active; 'I' for Inactive)
REMARK    1  A    between atoms: O_3  and  C_13
REMARK    2  A    between atoms: O_3  and  C_17
REMARK    3  A    between atoms: O_6  and  C_30
REMARK    4  A    between atoms: O_6  and  C_34
REMARK    5  A    between atoms: N_7  and  C_12
REMARK    6  A    between atoms: N_8  and  C_18
REMARK    7  A    between atoms: N_9  and  C_19
REMARK                            x       y       z     vdW  Elec       q    Type
REMARK                         _______ _______ _______ _____ _____    ______ ____
ROOT
ATOM      1  O   UNL     1      -3.939   3.678  24.018  0.00  0.00    -0.368 OA
ATOM      2  O   UNL     1      -2.783   5.011  26.526  0.00  0.00    -0.368 OA
ATOM     10  C   UNL     1      -2.189   4.123  25.555  0.00  0.00    +0.173 C 
ATOM     11  C   UNL     1      -3.261   3.126  25.159  0.00  0.00    +0.192 C 
ATOM     12  C   UNL     1      -1.899   4.871  24.276  0.00  0.00    +0.131 C 
ATOM     13  C   UNL     1      -4.149   3.100  26.379  0.00  0.00    +0.235 C 
ATOM     14  C   UNL     1      -3.251   4.860  23.582  0.00  0.00    +0.185 C 
ATOM     15  C   UNL     1      -4.101   4.539  26.840  0.00  0.00    +0.207 C 
ENDROOT
BRANCH  12   7
ATOM      4  O   UNL     1      -0.156   2.773  25.155  0.00  0.00    -0.252 OA
ATOM      7  N   UNL     1      -0.900   4.192  23.488  0.00  0.00    -0.292 N 
ATOM      8  N   UNL     1       0.784   2.705  23.006  0.00  0.00    -0.269 N 
ATOM     16  C   UNL     1      -0.085   3.173  23.995  0.00  0.00    +0.304 C 
ATOM     40  H   UNL     1      -0.827   4.419  22.500  0.00  0.00    +0.151 HD
ATOM     41  H   UNL     1       0.714   3.146  22.092  0.00  0.00    +0.156 HD
BRANCH   8  18
ATOM     18  C   UNL     1       1.759   1.686  23.117  0.00  0.00    +0.035 A 
ATOM     21  C   UNL     1       3.112   1.998  22.986  0.00  0.00    +0.027 A 
ATOM     22  C   UNL     1       1.367   0.369  23.357  0.00  0.00    +0.027 A 
ATOM     27  C   UNL     1       4.073   0.994  23.095  0.00  0.00    +0.048 A 
ATOM     28  C   UNL     1       2.329  -0.635  23.466  0.00  0.00    +0.048 A 
ATOM     30  C   UNL     1       3.682  -0.323  23.335  0.00  0.00    +0.129 A 
BRANCH  30   6
ATOM      6  O   UNL     1       4.620  -1.304  23.438  0.00  0.00    -0.456 OA
BRANCH   6  34
ATOM     34  C   UNL     1       5.950  -0.936  23.323  0.00  0.00    +0.128 A 
ATOM     35  C   UNL     1       6.448   0.130  24.071  0.00  0.00    +0.046 A 
ATOM     36  C   UNL     1       6.792  -1.632  22.455  0.00  0.00    +0.046 A 
ATOM     37  C   UNL     1       7.787   0.500  23.954  0.00  0.00    +0.004 A 
ATOM     38  C   UNL     1       8.132  -1.261  22.337  0.00  0.00    +0.004 A 
ATOM     39  C   UNL     1       8.629  -0.196  23.086  0.00  0.00    +0.000 A 
ENDBRANCH   6  34
ENDBRANCH  30   6
ENDBRANCH   8  18
ENDBRANCH  12   7
BRANCH  13   3
ATOM      3  O   UNL     1      -5.466   2.674  26.108  0.00  0.00    -0.442 OA
BRANCH   3  17
ATOM      5  O   UNL     1      -6.668   1.120  24.938  0.00  0.00    -0.226 OA
ATOM      9  N   UNL     1      -4.407   0.793  25.451  0.00  0.00    -0.251 N 
ATOM     17  C   UNL     1      -5.609   1.474  25.442  0.00  0.00    +0.405 C 
ATOM     42  H   UNL     1      -3.657   1.279  25.929  0.00  0.00    +0.158 HD
BRANCH   9  19
ATOM     19  C   UNL     1      -4.116  -0.468  24.882  0.00  0.00    +0.044 A 
ATOM     20  C   UNL     1      -2.860  -1.076  25.035  0.00  0.00    +0.003 A 
ATOM     23  C   UNL     1      -5.130  -1.096  24.158  0.00  0.00    +0.024 A 
ATOM     24  C   UNL     1      -2.627  -2.340  24.441  0.00  0.00    -0.016 A 
ATOM     25  C   UNL     1      -1.828  -0.457  25.760  0.00  0.00    +0.010 A 
ATOM     26  C   UNL     1      -4.901  -2.341  23.576  0.00  0.00    +0.002 A 
ATOM     29  C   UNL     1      -3.658  -2.959  23.716  0.00  0.00    +0.008 A 
ATOM     31  C   UNL     1      -1.370  -2.948  24.593  0.00  0.00    +0.008 A 
ATOM     32  C   UNL     1      -0.586  -1.076  25.899  0.00  0.00    +0.001 A 
ATOM     33  C   UNL     1      -0.357  -2.319  25.317  0.00  0.00    +0.001 A 
ENDBRANCH   9  19
ENDBRANCH   3  17
ENDBRANCH  13   3
TORSDOF 7
ENDMDL
MODEL 3
REMARK VINA RESULT:      13.9      6.049      9.407
REMARK  Name = 11883999
REMARK  7 active torsions:
REMARK  status: ('A' for Active; 'I' for Inactive)
REMARK    1  A    between atoms: O_3  and  C_13
REMARK    2  A    between atoms: O_3  and  C_17
REMARK    3  A    between atoms: O_6  and  C_30
REMARK    4  A    between atoms: O_6  and  C_34
REMARK    5  A    between atoms: N_7  and  C_12
REMARK    6  A    between atoms: N_8  and  C_18
REMARK    7  A    between atoms: N_9  and  C_19
REMARK                            x       y       z     vdW  Elec       q    Type
REMARK                         _______ _______ _______ _____ _____    ______ ____
ROOT
ATOM      1  O   UNL     1       5.013   1.641  23.902  0.00  0.00    -0.368 OA
ATOM      2  O   UNL     1       5.433  -1.396  23.857  0.00  0.00    -0.368 OA
ATOM     10  C   UNL     1       6.083  -0.330  23.132  0.00  0.00    +0.173 C 
ATOM     11  C   UNL     1       5.016   0.699  22.816  0.00  0.00    +0.192 C 
ATOM     12  C   UNL     1       7.040   0.406  24.039  0.00  0.00    +0.131 C 
ATOM     13  C   UNL     1       3.756  -0.133  22.794  0.00  0.00    +0.235 C 
ATOM     14  C   UNL     1       6.116   1.359  24.778  0.00  0.00    +0.185 C 
ATOM     15  C   UNL     1       4.021  -1.143  23.887  0.00  0.00    +0.207 C 
ENDROOT
BRANCH  12   7
ATOM      4  O   UNL     1       7.586   3.216  24.153  0.00  0.00    -0.252 OA
ATOM      7  N   UNL     1       8.034   1.123  23.279  0.00  0.00    -0.292 N 
ATOM      8  N   UNL     1       9.264   2.918  22.539  0.00  0.00    -0.269 N 
ATOM     16  C   UNL     1       8.238   2.504  23.394  0.00  0.00    +0.304 C 
ATOM     40  H   UNL     1       8.660   0.593  22.679  0.00  0.00    +0.151 HD
ATOM     41  H   UNL     1       9.705   2.197  21.973  0.00  0.00    +0.156 HD
BRANCH   8  18
ATOM     18  C   UNL     1       9.770   4.226  22.360  0.00  0.00    +0.035 A 
ATOM     21  C   UNL     1       9.005   5.328  22.742  0.00  0.00    +0.027 A 
ATOM     22  C   UNL     1      11.034   4.415  21.801  0.00  0.00    +0.027 A 
ATOM     27  C   UNL     1       9.503   6.618  22.564  0.00  0.00    +0.048 A 
ATOM     28  C   UNL     1      11.532   5.705  21.623  0.00  0.00    +0.048 A 
ATOM     30  C   UNL     1      10.767   6.807  22.005  0.00  0.00    +0.129 A 
BRANCH  30   6
ATOM      6  O   UNL     1      11.252   8.066  21.829  0.00  0.00    -0.456 OA
BRANCH   6  34
ATOM     34  C   UNL     1      11.862   8.357  20.620  0.00  0.00    +0.128 A 
ATOM     35  C   UNL     1      13.240   8.562  20.564  0.00  0.00    +0.046 A 
ATOM     36  C   UNL     1      11.096   8.446  19.457  0.00  0.00    +0.046 A 
ATOM     37  C   UNL     1      13.853   8.856  19.347  0.00  0.00    +0.004 A 
ATOM     38  C   UNL     1      11.710   8.740  18.239  0.00  0.00    +0.004 A 
ATOM     39  C   UNL     1      13.087   8.944  18.184  0.00  0.00    +0.000 A 
ENDBRANCH   6  34
ENDBRANCH  30   6
ENDBRANCH   8  18
ENDBRANCH  12   7
BRANCH  13   3
ATOM      3  O   UNL     1       2.584   0.614  23.034  0.00  0.00    -0.442 OA
BRANCH   3  17
ATOM      5  O   UNL     1       1.101  -0.629  21.815  0.00  0.00    -0.226 OA
ATOM      9  N   UNL     1       0.604   0.099  23.984  0.00  0.00    -0.251 N 
ATOM     17  C   UNL     1       1.382  -0.037  22.850  0.00  0.00    +0.405 C 
ATOM     42  H   UNL     1       1.040   0.635  24.726  0.00  0.00    +0.158 HD
BRANCH   9  19
ATOM     19  C   UNL     1      -0.693  -0.412  24.216  0.00  0.00    +0.044 A 
ATOM     20  C   UNL     1      -1.823   0.421  24.235  0.00  0.00    +0.003 A 
ATOM     23  C   UNL     1      -0.815  -1.785  24.429  0.00  0.00    +0.024 A 
ATOM     24  C   UNL     1      -3.097  -0.148  24.474  0.00  0.00    -0.016 A 
ATOM     25  C   UNL     1      -1.718   1.806  24.024  0.00  0.00    +0.010 A 
ATOM     26  C   UNL     1      -2.070  -2.344  24.662  0.00  0.00    +0.002 A 
ATOM     29  C   UNL     1      -3.204  -1.532  24.685  0.00  0.00    +0.008 A 
ATOM     31  C   UNL     1      -4.228   0.686  24.493  0.00  0.00    +0.008 A 
ATOM     32  C   UNL     1      -2.852   2.618  24.047  0.00  0.00    +0.001 A 
ATOM     33  C   UNL     1      -4.105   2.058  24.281  0.00  0.00    +0.001 A 
ENDBRANCH   9  19
ENDBRANCH   3  17
ENDBRANCH  13   3
TORSDOF 7
ENDMDL
MODEL 4
REMARK VINA RESULT:      14.0      6.148      9.608
REMARK  Name = 11883999
REMARK  7 active torsions:
REMARK  status: ('A' for Active; 'I' for Inactive)
REMARK    1  A    between atoms: O_3  and  C_13
REMARK    2  A    between atoms: O_3  and  C_17
REMARK    3  A    between atoms: O_6  and  C_30
REMARK    4  A    between atoms: O_6  and  C_34
REMARK    5  A    between atoms: N_7  and  C_12
REMARK    6  A    between atoms: N_8  and  C_18
REMARK    7  A    between atoms: N_9  and  C_19
REMARK                            x       y       z     vdW  Elec       q    Type
REMARK                         _______ _______ _______ _____ _____    ______ ____
ROOT
ATOM      1  O   UNL     1       4.631   1.020  24.763  0.00  0.00    -0.368 OA
ATOM      2  O   UNL     1       6.395  -1.017  23.301  0.00  0.00    -0.368 OA
ATOM     10  C   UNL     1       6.182   0.393  23.083  0.00  0.00    +0.173 C 
ATOM     11  C   UNL     1       4.720   0.666  23.373  0.00  0.00    +0.192 C 
ATOM     12  C   UNL     1       6.916   1.197  24.130  0.00  0.00    +0.131 C 
ATOM     13  C   UNL     1       4.077  -0.671  23.094  0.00  0.00    +0.235 C 
ATOM     14  C   UNL     1       5.954   1.148  25.306  0.00  0.00    +0.185 C 
ATOM     15  C   UNL     1       5.132  -1.640  23.576  0.00  0.00    +0.207 C 
ENDROOT
BRANCH  12   7
ATOM      4  O   UNL     1       9.424   2.370  23.394  0.00  0.00    -0.252 OA
ATOM      7  N   UNL     1       7.137   2.552  23.690  0.00  0.00    -0.292 N 
ATOM      8  N   UNL     1       8.308   4.389  22.959  0.00  0.00    -0.269 N 
ATOM     16  C   UNL     1       8.401   3.050  23.347  0.00  0.00    +0.304 C 
ATOM     40  H   UNL     1       6.331   3.156  23.560  0.00  0.00    +0.151 HD
ATOM     41  H   UNL     1       7.381   4.807  22.977  0.00  0.00    +0.156 HD
BRANCH   8  18
ATOM     18  C   UNL     1       9.353   5.247  22.542  0.00  0.00    +0.035 A 
ATOM     21  C   UNL     1       9.244   6.624  22.735  0.00  0.00    +0.027 A 
ATOM     22  C   UNL     1      10.492   4.716  21.938  0.00  0.00    +0.027 A 
ATOM     27  C   UNL     1      10.273   7.470  22.324  0.00  0.00    +0.048 A 
ATOM     28  C   UNL     1      11.522   5.562  21.527  0.00  0.00    +0.048 A 
ATOM     30  C   UNL     1      11.413   6.939  21.720  0.00  0.00    +0.129 A 
BRANCH  30   6
ATOM      6  O   UNL     1      12.416   7.764  21.315  0.00  0.00    -0.456 OA
BRANCH   6  34
ATOM     34  C   UNL     1      12.605   7.927  19.953  0.00  0.00    +0.128 A 
ATOM     35  C   UNL     1      13.794   7.507  19.358  0.00  0.00    +0.046 A 
ATOM     36  C   UNL     1      11.605   8.513  19.176  0.00  0.00    +0.046 A 
ATOM     37  C   UNL     1      13.985   7.671  17.986  0.00  0.00    +0.004 A 
ATOM     38  C   UNL     1      11.796   8.678  17.804  0.00  0.00    +0.004 A 
ATOM     39  C   UNL     1      12.985   8.257  17.209  0.00  0.00    +0.000 A 
ENDBRANCH   6  34
ENDBRANCH  30   6
ENDBRANCH   8  18
ENDBRANCH  12   7
BRANCH  13   3
ATOM      3  O   UNL     1       2.846  -0.853  23.757  0.00  0.00    -0.442 OA
BRANCH   3  17
ATOM      5  O   UNL     1       1.693   0.015  21.983  0.00  0.00    -0.226 OA
ATOM      9  N   UNL     1       0.727  -0.164  24.108  0.00  0.00    -0.251 N 
ATOM     17  C   UNL     1       1.730  -0.296  23.167  0.00  0.00    +0.405 C 
ATOM     42  H   UNL     1       0.979  -0.489  25.034  0.00  0.00    +0.158 HD
BRANCH   9  19
ATOM     19  C   UNL     1      -0.574   0.359  23.926  0.00  0.00    +0.044 A 
ATOM     20  C   UNL     1      -1.719  -0.436  24.090  0.00  0.00    +0.003 A 
ATOM     23  C   UNL     1      -0.683   1.704  23.575  0.00  0.00    +0.024 A 
ATOM     24  C   UNL     1      -2.996   0.143  23.893  0.00  0.00    -0.016 A 
ATOM     25  C   UNL     1      -1.627  -1.793  24.443  0.00  0.00    +0.010 A 
ATOM     26  C   UNL     1      -1.940   2.274  23.383  0.00  0.00    +0.002 A 
ATOM     29  C   UNL     1      -3.090   1.499  23.541  0.00  0.00    +0.008 A 
ATOM     31  C   UNL     1      -4.143  -0.653  24.057  0.00  0.00    +0.008 A 
ATOM     32  C   UNL     1      -2.777  -2.567  24.600  0.00  0.00    +0.001 A 
ATOM     33  C   UNL     1      -4.032  -1.998  24.408  0.00  0.00    +0.001 A 
ENDBRANCH   9  19
ENDBRANCH   3  17
ENDBRANCH  13   3
TORSDOF 7
ENDMDL
MODEL 5
REMARK VINA RESULT:      14.4      2.149      4.848
REMARK  Name = 11883999
REMARK  7 active torsions:
REMARK  status: ('A' for Active; 'I' for Inactive)
REMARK    1  A    between atoms: O_3  and  C_13
REMARK    2  A    between atoms: O_3  and  C_17
REMARK    3  A    between atoms: O_6  and  C_30
REMARK    4  A    between atoms: O_6  and  C_34
REMARK    5  A    between atoms: N_7  and  C_12
REMARK    6  A    between atoms: N_8  and  C_18
REMARK    7  A    between atoms: N_9  and  C_19
REMARK                            x       y       z     vdW  Elec       q    Type
REMARK                         _______ _______ _______ _____ _____    ______ ____
ROOT
ATOM      1  O   UNL     1      -2.889  -0.522  25.319  0.00  0.00    -0.368 OA
ATOM      2  O   UNL     1      -4.282  -2.742  23.727  0.00  0.00    -0.368 OA
ATOM     10  C   UNL     1      -3.239  -1.814  23.362  0.00  0.00    +0.173 C 
ATOM     11  C   UNL     1      -3.558  -0.501  24.048  0.00  0.00    +0.192 C 
ATOM     12  C   UNL     1      -1.928  -2.237  23.982  0.00  0.00    +0.131 C 
ATOM     13  C   UNL     1      -5.058  -0.572  24.205  0.00  0.00    +0.235 C 
ATOM     14  C   UNL     1      -2.043  -1.681  25.391  0.00  0.00    +0.185 C 
ATOM     15  C   UNL     1      -5.282  -2.042  24.483  0.00  0.00    +0.207 C 
ENDROOT
BRANCH  12   7
ATOM      4  O   UNL     1       0.619  -1.546  25.098  0.00  0.00    -0.252 OA
ATOM      7  N   UNL     1      -0.808  -1.661  23.281  0.00  0.00    -0.292 N 
ATOM      8  N   UNL     1       1.305  -0.807  22.977  0.00  0.00    -0.269 N 
ATOM     16  C   UNL     1       0.409  -1.351  23.902  0.00  0.00    +0.304 C 
ATOM     40  H   UNL     1      -0.880  -1.532  22.275  0.00  0.00    +0.151 HD
ATOM     41  H   UNL     1       0.971  -0.712  22.021  0.00  0.00    +0.156 HD
BRANCH   8  18
ATOM     18  C   UNL     1       2.629  -0.367  23.207  0.00  0.00    +0.035 A 
ATOM     21  C   UNL     1       3.549  -1.215  23.823  0.00  0.00    +0.027 A 
ATOM     22  C   UNL     1       3.016   0.915  22.816  0.00  0.00    +0.027 A 
ATOM     27  C   UNL     1       4.855  -0.782  24.050  0.00  0.00    +0.048 A 
ATOM     28  C   UNL     1       4.321   1.348  23.043  0.00  0.00    +0.048 A 
ATOM     30  C   UNL     1       5.241   0.500  23.660  0.00  0.00    +0.129 A 
BRANCH  30   6
ATOM      6  O   UNL     1       6.515   0.925  23.883  0.00  0.00    -0.456 OA
BRANCH   6  34
ATOM     34  C   UNL     1       7.547   0.177  23.341  0.00  0.00    +0.128 A 
ATOM     35  C   UNL     1       8.871   0.562  23.545  0.00  0.00    +0.046 A 
ATOM     36  C   UNL     1       7.260  -0.962  22.588  0.00  0.00    +0.046 A 
ATOM     37  C   UNL     1       9.909  -0.190  22.998  0.00  0.00    +0.004 A 
ATOM     38  C   UNL     1       8.299  -1.715  22.040  0.00  0.00    +0.004 A 
ATOM     39  C   UNL     1       9.622  -1.330  22.245  0.00  0.00    +0.000 A 
ENDBRANCH   6  34
ENDBRANCH  30   6
ENDBRANCH   8  18
ENDBRANCH  12   7
BRANCH  13   3
ATOM      3  O   UNL     1      -5.555   0.245  25.241  0.00  0.00    -0.442 OA
BRANCH   3  17
ATOM      5  O   UNL     1      -6.174   2.409  24.835  0.00  0.00    -0.226 OA
ATOM      9  N   UNL     1      -3.982   1.849  25.438  0.00  0.00    -0.251 N 
ATOM     17  C   UNL     1      -5.308   1.599  25.143  0.00  0.00    +0.405 C 
ATOM     42  H   UNL     1      -3.443   1.023  25.668  0.00  0.00    +0.158 HD
BRANCH   9  19
ATOM     19  C   UNL     1      -3.315   3.095  25.456  0.00  0.00    +0.044 A 
ATOM     20  C   UNL     1      -2.021   3.249  24.930  0.00  0.00    +0.003 A 
ATOM     23  C   UNL     1      -3.989   4.179  26.018  0.00  0.00    +0.024 A 
ATOM     24  C   UNL     1      -1.403   4.521  24.977  0.00  0.00    -0.016 A 
ATOM     25  C   UNL     1      -1.327   2.168  24.362  0.00  0.00    +0.010 A 
ATOM     26  C   UNL     1      -3.381   5.431  26.062  0.00  0.00    +0.002 A 
ATOM     29  C   UNL     1      -2.096   5.602  25.545  0.00  0.00    +0.008 A 
ATOM     31  C   UNL     1      -0.109   4.675  24.451  0.00  0.00    +0.008 A 
ATOM     32  C   UNL     1      -0.043   2.340  23.845  0.00  0.00    +0.001 A 
ATOM     33  C   UNL     1       0.565   3.591  23.890  0.00  0.00    +0.001 A 
ENDBRANCH   9  19
ENDBRANCH   3  17
ENDBRANCH  13   3
TORSDOF 7
ENDMDL
