MODEL 1
REMARK VINA RESULT:      -4.0      0.000      0.000
REMARK  Name = 11912424
REMARK  9 active torsions:
REMARK  status: ('A' for Active; 'I' for Inactive)
REMARK    1  A    between atoms: S_1  and  N_7
REMARK    2  A    between atoms: S_1  and  C_17
REMARK    3  A    between atoms: O_4  and  C_18
REMARK    4  A    between atoms: C_9  and  C_14
REMARK    5  A    between atoms: C_10  and  C_15
REMARK    6  A    between atoms: C_14  and  C_16
REMARK    7  A    between atoms: C_15  and  C_18
REMARK    8  A    between atoms: C_19  and  C_21
REMARK    9  A    between atoms: C_20  and  C_22
REMARK                            x       y       z     vdW  Elec       q    Type
REMARK                         _______ _______ _______ _____ _____    ______ ____
ROOT
ATOM      7  N   UNL     1      -2.094   0.261  24.387  0.00  0.00    -0.176 NA
ATOM      9  C   UNL     1      -0.003   1.487  24.936  0.00  0.00    +0.008 C 
ATOM     10  C   UNL     1       0.790   0.477  24.071  0.00  0.00    +0.005 C 
ATOM     11  C   UNL     1      -1.266   0.815  25.500  0.00  0.00    +0.113 C 
ATOM     12  C   UNL     1      -0.102  -0.162  22.995  0.00  0.00    +0.021 C 
ATOM     13  C   UNL     1      -1.360  -0.772  23.603  0.00  0.00    +0.110 C 
ENDROOT
BRANCH   7   1
ATOM      1  S   UNL     1      -3.705  -0.145  24.807  0.00  0.00    +0.066 S 
ATOM      2  O   UNL     1      -3.730  -0.622  26.173  0.00  0.00    -0.153 OA
ATOM      3  O   UNL     1      -4.288  -0.920  23.734  0.00  0.00    -0.153 OA
BRANCH   1  17
ATOM      5  O   UNL     1      -5.686   3.167  25.258  0.00  0.00    -0.358 OA
ATOM      8  N   UNL     1      -4.892   3.542  24.182  0.00  0.00    -0.081 NA
ATOM     17  C   UNL     1      -4.442   1.460  24.782  0.00  0.00    +0.170 A 
ATOM     19  C   UNL     1      -5.392   1.888  25.607  0.00  0.00    +0.161 A 
ATOM     20  C   UNL     1      -4.140   2.471  23.916  0.00  0.00    +0.107 A 
ATOM     21  C   UNL     1      -6.149   1.332  26.736  0.00  0.00    +0.091 C 
ATOM     22  C   UNL     1      -3.167   2.523  22.812  0.00  0.00    +0.071 C 
ENDBRANCH   1  17
ENDBRANCH   7   1
BRANCH   9  14
ATOM     14  C   UNL     1      -0.365   2.786  24.206  0.00  0.00    +0.002 C 
ATOM     16  C   UNL     1      -0.855   3.840  25.177  0.00  0.00    +0.004 C 
ENDBRANCH   9  14
BRANCH  10  15
ATOM     15  C   UNL     1       2.046   1.080  23.442  0.00  0.00    +0.124 C 
BRANCH  15  18
ATOM      6  O   UNL     1       2.753   0.046  21.350  0.00  0.00    -0.251 OA
ATOM     18  C   UNL     1       2.762   0.084  22.571  0.00  0.00    +0.305 C 
BRANCH  18   4
ATOM      4  O   UNL     1       3.442  -0.798  23.349  0.00  0.00    -0.481 OA
ATOM     23  H   UNL     1       2.841  -1.320  23.920  0.00  0.00    +0.295 HD
ENDBRANCH  18   4
ENDBRANCH  15  18
ENDBRANCH  10  15
TORSDOF 6
ENDMDL
MODEL 2
REMARK VINA RESULT:      -4.0      0.424      1.717
REMARK  Name = 11912424
REMARK  9 active torsions:
REMARK  status: ('A' for Active; 'I' for Inactive)
REMARK    1  A    between atoms: S_1  and  N_7
REMARK    2  A    between atoms: S_1  and  C_17
REMARK    3  A    between atoms: O_4  and  C_18
REMARK    4  A    between atoms: C_9  and  C_14
REMARK    5  A    between atoms: C_10  and  C_15
REMARK    6  A    between atoms: C_14  and  C_16
REMARK    7  A    between atoms: C_15  and  C_18
REMARK    8  A    between atoms: C_19  and  C_21
REMARK    9  A    between atoms: C_20  and  C_22
REMARK                            x       y       z     vdW  Elec       q    Type
REMARK                         _______ _______ _______ _____ _____    ______ ____
ROOT
ATOM      7  N   UNL     1      -2.115   0.280  24.427  0.00  0.00    -0.176 NA
ATOM      9  C   UNL     1      -0.012   1.490  24.966  0.00  0.00    +0.008 C 
ATOM     10  C   UNL     1       0.768   0.479  24.090  0.00  0.00    +0.005 C 
ATOM     11  C   UNL     1      -1.274   0.823  25.536  0.00  0.00    +0.113 C 
ATOM     12  C   UNL     1      -0.136  -0.149  23.018  0.00  0.00    +0.021 C 
ATOM     13  C   UNL     1      -1.394  -0.755  23.633  0.00  0.00    +0.110 C 
ENDROOT
BRANCH   7   1
ATOM      1  S   UNL     1      -3.725  -0.118  24.859  0.00  0.00    +0.066 S 
ATOM      2  O   UNL     1      -3.746  -0.581  26.229  0.00  0.00    -0.153 OA
ATOM      3  O   UNL     1      -4.315  -0.903  23.796  0.00  0.00    -0.153 OA
BRANCH   1  17
ATOM      5  O   UNL     1      -4.929   3.529  24.268  0.00  0.00    -0.358 OA
ATOM      8  N   UNL     1      -5.753   3.207  25.340  0.00  0.00    -0.081 NA
ATOM     17  C   UNL     1      -4.459   1.489  24.819  0.00  0.00    +0.170 A 
ATOM     19  C   UNL     1      -4.147   2.461  23.969  0.00  0.00    +0.161 A 
ATOM     20  C   UNL     1      -5.438   1.947  25.653  0.00  0.00    +0.107 A 
ATOM     21  C   UNL     1      -3.210   2.635  22.851  0.00  0.00    +0.091 C 
ATOM     22  C   UNL     1      -6.134   1.279  26.766  0.00  0.00    +0.071 C 
ENDBRANCH   1  17
ENDBRANCH   7   1
BRANCH   9  14
ATOM     14  C   UNL     1      -0.372   2.795  24.244  0.00  0.00    +0.002 C 
ATOM     16  C   UNL     1      -0.837   3.851  25.225  0.00  0.00    +0.004 C 
ENDBRANCH   9  14
BRANCH  10  15
ATOM     15  C   UNL     1       2.023   1.077  23.454  0.00  0.00    +0.124 C 
BRANCH  15  18
ATOM      6  O   UNL     1       2.653  -0.001  21.359  0.00  0.00    -0.251 OA
ATOM     18  C   UNL     1       2.727   0.079  22.576  0.00  0.00    +0.305 C 
BRANCH  18   4
ATOM      4  O   UNL     1       3.484  -0.750  23.342  0.00  0.00    -0.481 OA
ATOM     23  H   UNL     1       3.366  -1.690  23.088  0.00  0.00    +0.295 HD
ENDBRANCH  18   4
ENDBRANCH  15  18
ENDBRANCH  10  15
TORSDOF 6
ENDMDL
MODEL 3
REMARK VINA RESULT:      -3.7      2.075      6.233
REMARK  Name = 11912424
REMARK  9 active torsions:
REMARK  status: ('A' for Active; 'I' for Inactive)
REMARK    1  A    between atoms: S_1  and  N_7
REMARK    2  A    between atoms: S_1  and  C_17
REMARK    3  A    between atoms: O_4  and  C_18
REMARK    4  A    between atoms: C_9  and  C_14
REMARK    5  A    between atoms: C_10  and  C_15
REMARK    6  A    between atoms: C_14  and  C_16
REMARK    7  A    between atoms: C_15  and  C_18
REMARK    8  A    between atoms: C_19  and  C_21
REMARK    9  A    between atoms: C_20  and  C_22
REMARK                            x       y       z     vdW  Elec       q    Type
REMARK                         _______ _______ _______ _____ _____    ______ ____
ROOT
ATOM      7  N   UNL     1      -2.401  -0.068  24.747  0.00  0.00    -0.176 NA
ATOM      9  C   UNL     1      -3.921   1.653  23.796  0.00  0.00    +0.008 C 
ATOM     10  C   UNL     1      -5.119   0.926  24.454  0.00  0.00    +0.005 C 
ATOM     11  C   UNL     1      -2.799   0.646  23.497  0.00  0.00    +0.113 C 
ATOM     12  C   UNL     1      -4.678   0.112  25.680  0.00  0.00    +0.021 C 
ATOM     13  C   UNL     1      -3.533  -0.836  25.337  0.00  0.00    +0.110 C 
ENDROOT
BRANCH   7   1
ATOM      1  S   UNL     1      -0.909  -0.907  24.666  0.00  0.00    +0.066 S 
ATOM      2  O   UNL     1      -0.939  -1.816  23.542  0.00  0.00    -0.153 OA
ATOM      3  O   UNL     1      -0.559  -1.370  25.992  0.00  0.00    -0.153 OA
BRANCH   1  17
ATOM      5  O   UNL     1       1.677   1.637  23.273  0.00  0.00    -0.358 OA
ATOM      8  N   UNL     1       1.182   2.396  24.326  0.00  0.00    -0.081 NA
ATOM     17  C   UNL     1       0.172   0.428  24.254  0.00  0.00    +0.170 A 
ATOM     19  C   UNL     1       1.042   0.437  23.250  0.00  0.00    +0.161 A 
ATOM     20  C   UNL     1       0.260   1.623  24.907  0.00  0.00    +0.107 A 
ATOM     21  C   UNL     1       1.450  -0.494  22.189  0.00  0.00    +0.091 C 
ATOM     22  C   UNL     1      -0.476   2.127  26.079  0.00  0.00    +0.071 C 
ENDBRANCH   1  17
ENDBRANCH   7   1
BRANCH   9  14
ATOM     14  C   UNL     1      -3.381   2.834  24.613  0.00  0.00    +0.002 C 
ATOM     16  C   UNL     1      -3.672   4.151  23.926  0.00  0.00    +0.004 C 
ENDBRANCH   9  14
BRANCH  10  15
ATOM     15  C   UNL     1      -6.268   1.867  24.817  0.00  0.00    +0.124 C 
BRANCH  15  18
ATOM      6  O   UNL     1      -5.548   3.199  26.728  0.00  0.00    -0.251 OA
ATOM     18  C   UNL     1      -6.208   2.283  26.261  0.00  0.00    +0.305 C 
BRANCH  18   4
ATOM      4  O   UNL     1      -7.012   1.477  27.003  0.00  0.00    -0.481 OA
ATOM     23  H   UNL     1      -7.739   1.978  27.429  0.00  0.00    +0.295 HD
ENDBRANCH  18   4
ENDBRANCH  15  18
ENDBRANCH  10  15
TORSDOF 6
ENDMDL
MODEL 4
REMARK VINA RESULT:      -2.4      2.788      4.678
REMARK  Name = 11912424
REMARK  9 active torsions:
REMARK  status: ('A' for Active; 'I' for Inactive)
REMARK    1  A    between atoms: S_1  and  N_7
REMARK    2  A    between atoms: S_1  and  C_17
REMARK    3  A    between atoms: O_4  and  C_18
REMARK    4  A    between atoms: C_9  and  C_14
REMARK    5  A    between atoms: C_10  and  C_15
REMARK    6  A    between atoms: C_14  and  C_16
REMARK    7  A    between atoms: C_15  and  C_18
REMARK    8  A    between atoms: C_19  and  C_21
REMARK    9  A    between atoms: C_20  and  C_22
REMARK                            x       y       z     vdW  Elec       q    Type
REMARK                         _______ _______ _______ _____ _____    ______ ____
ROOT
ATOM      7  N   UNL     1      -2.879   1.226  23.927  0.00  0.00    -0.176 NA
ATOM      9  C   UNL     1      -1.896  -0.515  25.404  0.00  0.00    +0.008 C 
ATOM     10  C   UNL     1      -3.273  -1.224  25.446  0.00  0.00    +0.005 C 
ATOM     11  C   UNL     1      -2.092   0.993  25.175  0.00  0.00    +0.113 C 
ATOM     12  C   UNL     1      -4.113  -0.892  24.204  0.00  0.00    +0.021 C 
ATOM     13  C   UNL     1      -4.237   0.614  23.999  0.00  0.00    +0.110 C 
ENDROOT
BRANCH   7   1
ATOM      1  S   UNL     1      -2.829   2.828  23.320  0.00  0.00    +0.066 S 
ATOM      2  O   UNL     1      -4.017   3.071  22.531  0.00  0.00    -0.153 OA
ATOM      3  O   UNL     1      -1.510   3.083  22.781  0.00  0.00    -0.153 OA
BRANCH   1  17
ATOM      5  O   UNL     1      -2.565   5.036  26.506  0.00  0.00    -0.358 OA
ATOM      8  N   UNL     1      -3.840   4.523  26.710  0.00  0.00    -0.081 NA
ATOM     17  C   UNL     1      -2.985   3.733  24.828  0.00  0.00    +0.170 A 
ATOM     19  C   UNL     1      -2.064   4.538  25.347  0.00  0.00    +0.161 A 
ATOM     20  C   UNL     1      -4.066   3.727  25.662  0.00  0.00    +0.107 A 
ATOM     21  C   UNL     1      -0.713   4.982  24.979  0.00  0.00    +0.091 C 
ATOM     22  C   UNL     1      -5.348   3.009  25.557  0.00  0.00    +0.071 C 
ENDBRANCH   1  17
ENDBRANCH   7   1
BRANCH   9  14
ATOM     14  C   UNL     1      -0.926  -1.095  24.368  0.00  0.00    +0.002 C 
ATOM     16  C   UNL     1       0.077  -0.054  23.917  0.00  0.00    +0.004 C 
ENDBRANCH   9  14
BRANCH  10  15
ATOM     15  C   UNL     1      -3.164  -2.737  25.635  0.00  0.00    +0.124 C 
BRANCH  15  18
ATOM      6  O   UNL     1      -4.433  -3.847  23.874  0.00  0.00    -0.251 OA
ATOM     18  C   UNL     1      -3.367  -3.473  24.339  0.00  0.00    +0.305 C 
BRANCH  18   4
ATOM      4  O   UNL     1      -2.167  -3.674  23.735  0.00  0.00    -0.481 OA
ATOM     23  H   UNL     1      -1.518  -4.087  24.342  0.00  0.00    +0.295 HD
ENDBRANCH  18   4
ENDBRANCH  15  18
ENDBRANCH  10  15
TORSDOF 6
ENDMDL
MODEL 5
REMARK VINA RESULT:      -2.4      2.738      5.212
REMARK  Name = 11912424
REMARK  9 active torsions:
REMARK  status: ('A' for Active; 'I' for Inactive)
REMARK    1  A    between atoms: S_1  and  N_7
REMARK    2  A    between atoms: S_1  and  C_17
REMARK    3  A    between atoms: O_4  and  C_18
REMARK    4  A    between atoms: C_9  and  C_14
REMARK    5  A    between atoms: C_10  and  C_15
REMARK    6  A    between atoms: C_14  and  C_16
REMARK    7  A    between atoms: C_15  and  C_18
REMARK    8  A    between atoms: C_19  and  C_21
REMARK    9  A    between atoms: C_20  and  C_22
REMARK                            x       y       z     vdW  Elec       q    Type
REMARK                         _______ _______ _______ _____ _____    ______ ____
ROOT
ATOM      7  N   UNL     1      -1.363   1.275  25.070  0.00  0.00    -0.176 NA
ATOM      9  C   UNL     1      -3.541   0.802  23.968  0.00  0.00    +0.008 C 
ATOM     10  C   UNL     1      -3.102  -0.672  23.785  0.00  0.00    +0.005 C 
ATOM     11  C   UNL     1      -2.304   1.715  23.997  0.00  0.00    +0.113 C 
ATOM     12  C   UNL     1      -2.057  -1.081  24.833  0.00  0.00    +0.021 C 
ATOM     13  C   UNL     1      -0.876  -0.117  24.850  0.00  0.00    +0.110 C 
ENDROOT
BRANCH   7   1
ATOM      1  S   UNL     1      -0.158   2.415  25.499  0.00  0.00    +0.066 S 
ATOM      2  O   UNL     1       0.919   2.347  24.535  0.00  0.00    -0.153 OA
ATOM      3  O   UNL     1       0.103   2.310  26.918  0.00  0.00    -0.153 OA
BRANCH   1  17
ATOM      5  O   UNL     1      -1.646   5.838  24.423  0.00  0.00    -0.358 OA
ATOM      8  N   UNL     1      -2.568   5.510  25.410  0.00  0.00    -0.081 NA
ATOM     17  C   UNL     1      -1.043   3.917  25.218  0.00  0.00    +0.170 A 
ATOM     19  C   UNL     1      -0.724   4.847  24.324  0.00  0.00    +0.161 A 
ATOM     20  C   UNL     1      -2.167   4.324  25.877  0.00  0.00    +0.107 A 
ATOM     21  C   UNL     1       0.331   5.039  23.320  0.00  0.00    +0.091 C 
ATOM     22  C   UNL     1      -2.932   3.671  26.953  0.00  0.00    +0.071 C 
ENDBRANCH   1  17
ENDBRANCH   7   1
BRANCH   9  14
ATOM     14  C   UNL     1      -4.417   1.044  25.203  0.00  0.00    +0.002 C 
ATOM     16  C   UNL     1      -5.557   1.989  24.886  0.00  0.00    +0.004 C 
ENDBRANCH   9  14
BRANCH  10  15
ATOM     15  C   UNL     1      -4.275  -1.653  23.782  0.00  0.00    +0.124 C 
BRANCH  15  18
ATOM      6  O   UNL     1      -3.858  -4.054  23.815  0.00  0.00    -0.251 OA
ATOM     18  C   UNL     1      -3.893  -2.975  24.387  0.00  0.00    +0.305 C 
BRANCH  18   4
ATOM      4  O   UNL     1      -3.581  -2.805  25.698  0.00  0.00    -0.481 OA
ATOM     23  H   UNL     1      -3.054  -3.554  26.048  0.00  0.00    +0.295 HD
ENDBRANCH  18   4
ENDBRANCH  15  18
ENDBRANCH  10  15
TORSDOF 6
ENDMDL
MODEL 6
REMARK VINA RESULT:      -2.2      1.985      3.028
REMARK  Name = 11912424
REMARK  9 active torsions:
REMARK  status: ('A' for Active; 'I' for Inactive)
REMARK    1  A    between atoms: S_1  and  N_7
REMARK    2  A    between atoms: S_1  and  C_17
REMARK    3  A    between atoms: O_4  and  C_18
REMARK    4  A    between atoms: C_9  and  C_14
REMARK    5  A    between atoms: C_10  and  C_15
REMARK    6  A    between atoms: C_14  and  C_16
REMARK    7  A    between atoms: C_15  and  C_18
REMARK    8  A    between atoms: C_19  and  C_21
REMARK    9  A    between atoms: C_20  and  C_22
REMARK                            x       y       z     vdW  Elec       q    Type
REMARK                         _______ _______ _______ _____ _____    ______ ____
ROOT
ATOM      7  N   UNL     1      -1.875   2.549  25.065  0.00  0.00    -0.176 NA
ATOM      9  C   UNL     1      -0.529   1.882  23.084  0.00  0.00    +0.008 C 
ATOM     10  C   UNL     1       0.374   1.033  24.012  0.00  0.00    +0.005 C 
ATOM     11  C   UNL     1      -1.131   3.057  23.874  0.00  0.00    +0.113 C 
ATOM     12  C   UNL     1      -0.374   0.604  25.284  0.00  0.00    +0.021 C 
ATOM     13  C   UNL     1      -0.988   1.801  26.001  0.00  0.00    +0.110 C 
ENDROOT
BRANCH   7   1
ATOM      1  S   UNL     1      -2.932   3.679  25.802  0.00  0.00    +0.066 S 
ATOM      2  O   UNL     1      -2.886   4.921  25.062  0.00  0.00    -0.153 OA
ATOM      3  O   UNL     1      -2.720   3.654  27.233  0.00  0.00    -0.153 OA
BRANCH   1  17
ATOM      5  O   UNL     1      -5.997   1.426  25.009  0.00  0.00    -0.358 OA
ATOM      8  N   UNL     1      -6.659   2.640  25.148  0.00  0.00    -0.081 NA
ATOM     17  C   UNL     1      -4.485   2.907  25.469  0.00  0.00    +0.170 A 
ATOM     19  C   UNL     1      -4.668   1.616  25.211  0.00  0.00    +0.161 A 
ATOM     20  C   UNL     1      -5.700   3.527  25.430  0.00  0.00    +0.107 A 
ATOM     21  C   UNL     1      -3.817   0.424  25.099  0.00  0.00    +0.091 C 
ATOM     22  C   UNL     1      -6.058   4.940  25.643  0.00  0.00    +0.071 C 
ENDBRANCH   1  17
ENDBRANCH   7   1
BRANCH   9  14
ATOM     14  C   UNL     1      -1.634   1.082  22.384  0.00  0.00    +0.002 C 
ATOM     16  C   UNL     1      -2.739   1.994  21.890  0.00  0.00    +0.004 C 
ENDBRANCH   9  14
BRANCH  10  15
ATOM     15  C   UNL     1       0.984  -0.181  23.310  0.00  0.00    +0.124 C 
BRANCH  15  18
ATOM      6  O   UNL     1       2.418  -0.184  21.338  0.00  0.00    -0.251 OA
ATOM     18  C   UNL     1       2.171   0.204  22.470  0.00  0.00    +0.305 C 
BRANCH  18   4
ATOM      4  O   UNL     1       2.958   1.071  23.160  0.00  0.00    -0.481 OA
ATOM     23  H   UNL     1       3.867   1.108  22.794  0.00  0.00    +0.295 HD
ENDBRANCH  18   4
ENDBRANCH  15  18
ENDBRANCH  10  15
TORSDOF 6
ENDMDL
MODEL 7
REMARK VINA RESULT:      -2.1      1.788      2.997
REMARK  Name = 11912424
REMARK  9 active torsions:
REMARK  status: ('A' for Active; 'I' for Inactive)
REMARK    1  A    between atoms: S_1  and  N_7
REMARK    2  A    between atoms: S_1  and  C_17
REMARK    3  A    between atoms: O_4  and  C_18
REMARK    4  A    between atoms: C_9  and  C_14
REMARK    5  A    between atoms: C_10  and  C_15
REMARK    6  A    between atoms: C_14  and  C_16
REMARK    7  A    between atoms: C_15  and  C_18
REMARK    8  A    between atoms: C_19  and  C_21
REMARK    9  A    between atoms: C_20  and  C_22
REMARK                            x       y       z     vdW  Elec       q    Type
REMARK                         _______ _______ _______ _____ _____    ______ ____
ROOT
ATOM      7  N   UNL     1      -2.201   1.422  23.782  0.00  0.00    -0.176 NA
ATOM      9  C   UNL     1      -0.811  -0.629  23.991  0.00  0.00    +0.008 C 
ATOM     10  C   UNL     1       0.343   0.106  23.267  0.00  0.00    +0.005 C 
ATOM     11  C   UNL     1      -2.163  -0.052  23.540  0.00  0.00    +0.113 C 
ATOM     12  C   UNL     1       0.234   1.629  23.438  0.00  0.00    +0.021 C 
ATOM     13  C   UNL     1      -1.140   2.141  23.020  0.00  0.00    +0.110 C 
ENDROOT
BRANCH   7   1
ATOM      1  S   UNL     1      -3.758   2.133  23.721  0.00  0.00    +0.066 S 
ATOM      2  O   UNL     1      -4.755   1.104  23.921  0.00  0.00    -0.153 OA
ATOM      3  O   UNL     1      -3.822   3.024  22.582  0.00  0.00    -0.153 OA
BRANCH   1  17
ATOM      5  O   UNL     1      -3.042   4.504  26.715  0.00  0.00    -0.358 OA
ATOM      8  N   UNL     1      -4.290   4.037  27.110  0.00  0.00    -0.081 NA
ATOM     17  C   UNL     1      -3.701   3.123  25.183  0.00  0.00    +0.170 A 
ATOM     19  C   UNL     1      -2.704   3.930  25.532  0.00  0.00    +0.161 A 
ATOM     20  C   UNL     1      -4.665   3.191  26.147  0.00  0.00    +0.107 A 
ATOM     21  C   UNL     1      -1.404   4.317  24.970  0.00  0.00    +0.091 C 
ATOM     22  C   UNL     1      -5.963   2.504  26.248  0.00  0.00    +0.071 C 
ENDBRANCH   1  17
ENDBRANCH   7   1
BRANCH   9  14
ATOM     14  C   UNL     1      -0.702  -0.611  25.521  0.00  0.00    +0.002 C 
ATOM     16  C   UNL     1      -2.026  -0.960  26.167  0.00  0.00    +0.004 C 
ENDBRANCH   9  14
BRANCH  10  15
ATOM     15  C   UNL     1       1.728  -0.386  23.688  0.00  0.00    +0.124 C 
BRANCH  15  18
ATOM      6  O   UNL     1       2.804   0.013  21.537  0.00  0.00    -0.251 OA
ATOM     18  C   UNL     1       2.799   0.108  22.755  0.00  0.00    +0.305 C 
BRANCH  18   4
ATOM      4  O   UNL     1       3.794   0.694  23.471  0.00  0.00    -0.481 OA
ATOM     23  H   UNL     1       3.723   1.672  23.461  0.00  0.00    +0.295 HD
ENDBRANCH  18   4
ENDBRANCH  15  18
ENDBRANCH  10  15
TORSDOF 6
ENDMDL
MODEL 8
REMARK VINA RESULT:      -1.6      2.354      6.081
REMARK  Name = 11912424
REMARK  9 active torsions:
REMARK  status: ('A' for Active; 'I' for Inactive)
REMARK    1  A    between atoms: S_1  and  N_7
REMARK    2  A    between atoms: S_1  and  C_17
REMARK    3  A    between atoms: O_4  and  C_18
REMARK    4  A    between atoms: C_9  and  C_14
REMARK    5  A    between atoms: C_10  and  C_15
REMARK    6  A    between atoms: C_14  and  C_16
REMARK    7  A    between atoms: C_15  and  C_18
REMARK    8  A    between atoms: C_19  and  C_21
REMARK    9  A    between atoms: C_20  and  C_22
REMARK                            x       y       z     vdW  Elec       q    Type
REMARK                         _______ _______ _______ _____ _____    ______ ____
ROOT
ATOM      7  N   UNL     1      -2.081  -0.413  24.919  0.00  0.00    -0.176 NA
ATOM      9  C   UNL     1      -3.826   1.314  24.529  0.00  0.00    +0.008 C 
ATOM     10  C   UNL     1      -4.819   0.465  25.361  0.00  0.00    +0.005 C 
ATOM     11  C   UNL     1      -2.777   0.399  23.876  0.00  0.00    +0.113 C 
ATOM     12  C   UNL     1      -4.084  -0.442  26.359  0.00  0.00    +0.021 C 
ATOM     13  C   UNL     1      -3.025  -1.292  25.666  0.00  0.00    +0.110 C 
ENDROOT
BRANCH   7   1
ATOM      1  S   UNL     1      -0.626  -1.163  24.412  0.00  0.00    +0.066 S 
ATOM      2  O   UNL     1      -0.852  -1.820  23.143  0.00  0.00    -0.153 OA
ATOM      3  O   UNL     1      -0.052  -1.878  25.531  0.00  0.00    -0.153 OA
BRANCH   1  17
ATOM      5  O   UNL     1       1.266   2.228  24.290  0.00  0.00    -0.358 OA
ATOM      8  N   UNL     1       1.829   1.633  23.168  0.00  0.00    -0.081 NA
ATOM     17  C   UNL     1       0.367   0.266  24.113  0.00  0.00    +0.170 A 
ATOM     19  C   UNL     1       0.375   1.372  24.851  0.00  0.00    +0.161 A 
ATOM     20  C   UNL     1       1.255   0.430  23.089  0.00  0.00    +0.107 A 
ATOM     21  C   UNL     1      -0.316   1.849  26.056  0.00  0.00    +0.091 C 
ATOM     22  C   UNL     1       1.628  -0.483  21.994  0.00  0.00    +0.071 C 
ENDBRANCH   1  17
ENDBRANCH   7   1
BRANCH   9  14
ATOM     14  C   UNL     1      -3.144   2.434  25.324  0.00  0.00    +0.002 C 
ATOM     16  C   UNL     1      -3.122   3.727  24.536  0.00  0.00    +0.004 C 
ENDBRANCH   9  14
BRANCH  10  15
ATOM     15  C   UNL     1      -5.878   1.306  26.075  0.00  0.00    +0.124 C 
BRANCH  15  18
ATOM      6  O   UNL     1      -7.238   1.945  24.154  0.00  0.00    -0.251 OA
ATOM     18  C   UNL     1      -6.566   2.251  25.128  0.00  0.00    +0.305 C 
BRANCH  18   4
ATOM      4  O   UNL     1      -6.333   3.533  25.513  0.00  0.00    -0.481 OA
ATOM     23  H   UNL     1      -5.759   4.006  24.875  0.00  0.00    +0.295 HD
ENDBRANCH  18   4
ENDBRANCH  15  18
ENDBRANCH  10  15
TORSDOF 6
ENDMDL
MODEL 9
REMARK VINA RESULT:      -1.5      2.497      6.359
REMARK  Name = 11912424
REMARK  9 active torsions:
REMARK  status: ('A' for Active; 'I' for Inactive)
REMARK    1  A    between atoms: S_1  and  N_7
REMARK    2  A    between atoms: S_1  and  C_17
REMARK    3  A    between atoms: O_4  and  C_18
REMARK    4  A    between atoms: C_9  and  C_14
REMARK    5  A    between atoms: C_10  and  C_15
REMARK    6  A    between atoms: C_14  and  C_16
REMARK    7  A    between atoms: C_15  and  C_18
REMARK    8  A    between atoms: C_19  and  C_21
REMARK    9  A    between atoms: C_20  and  C_22
REMARK                            x       y       z     vdW  Elec       q    Type
REMARK                         _______ _______ _______ _____ _____    ______ ____
ROOT
ATOM      7  N   UNL     1      -1.466   2.534  24.992  0.00  0.00    -0.176 NA
ATOM      9  C   UNL     1      -3.824   1.935  24.484  0.00  0.00    +0.008 C 
ATOM     10  C   UNL     1      -4.278   2.789  25.693  0.00  0.00    +0.005 C 
ATOM     11  C   UNL     1      -2.403   1.402  24.726  0.00  0.00    +0.113 C 
ATOM     12  C   UNL     1      -3.254   3.887  26.021  0.00  0.00    +0.021 C 
ATOM     13  C   UNL     1      -1.855   3.309  26.205  0.00  0.00    +0.110 C 
ENDROOT
BRANCH   7   1
ATOM      1  S   UNL     1       0.200   2.149  24.872  0.00  0.00    +0.066 S 
ATOM      2  O   UNL     1       0.817   2.317  26.169  0.00  0.00    -0.153 OA
ATOM      3  O   UNL     1       0.745   2.793  23.696  0.00  0.00    -0.153 OA
BRANCH   1  17
ATOM      5  O   UNL     1      -0.420  -1.682  24.687  0.00  0.00    -0.358 OA
ATOM      8  N   UNL     1       0.394  -1.546  23.569  0.00  0.00    -0.081 NA
ATOM     17  C   UNL     1       0.091   0.418  24.543  0.00  0.00    +0.170 A 
ATOM     19  C   UNL     1      -0.591  -0.466  25.265  0.00  0.00    +0.161 A 
ATOM     20  C   UNL     1       0.689  -0.245  23.510  0.00  0.00    +0.107 A 
ATOM     21  C   UNL     1      -1.431  -0.431  26.470  0.00  0.00    +0.091 C 
ATOM     22  C   UNL     1       1.550   0.257  22.426  0.00  0.00    +0.071 C 
ENDBRANCH   1  17
ENDBRANCH   7   1
BRANCH   9  14
ATOM     14  C   UNL     1      -3.904   2.666  23.138  0.00  0.00    +0.002 C 
ATOM     16  C   UNL     1      -2.842   2.164  22.181  0.00  0.00    +0.004 C 
ENDBRANCH   9  14
BRANCH  10  15
ATOM     15  C   UNL     1      -5.673   3.390  25.516  0.00  0.00    +0.124 C 
BRANCH  15  18
ATOM      6  O   UNL     1      -7.304   1.883  24.509  0.00  0.00    -0.251 OA
ATOM     18  C   UNL     1      -6.735   2.325  25.495  0.00  0.00    +0.305 C 
BRANCH  18   4
ATOM      4  O   UNL     1      -6.988   1.906  26.763  0.00  0.00    -0.481 OA
ATOM     23  H   UNL     1      -6.482   2.424  27.425  0.00  0.00    +0.295 HD
ENDBRANCH  18   4
ENDBRANCH  15  18
ENDBRANCH  10  15
TORSDOF 6
ENDMDL
MODEL 10
REMARK VINA RESULT:      -1.5      2.516      6.385
REMARK  Name = 11912424
REMARK  9 active torsions:
REMARK  status: ('A' for Active; 'I' for Inactive)
REMARK    1  A    between atoms: S_1  and  N_7
REMARK    2  A    between atoms: S_1  and  C_17
REMARK    3  A    between atoms: O_4  and  C_18
REMARK    4  A    between atoms: C_9  and  C_14
REMARK    5  A    between atoms: C_10  and  C_15
REMARK    6  A    between atoms: C_14  and  C_16
REMARK    7  A    between atoms: C_15  and  C_18
REMARK    8  A    between atoms: C_19  and  C_21
REMARK    9  A    between atoms: C_20  and  C_22
REMARK                            x       y       z     vdW  Elec       q    Type
REMARK                         _______ _______ _______ _____ _____    ______ ____
ROOT
ATOM      7  N   UNL     1      -1.562   2.581  24.962  0.00  0.00    -0.176 NA
ATOM      9  C   UNL     1      -3.234   4.182  25.871  0.00  0.00    +0.008 C 
ATOM     10  C   UNL     1      -4.219   3.750  24.757  0.00  0.00    +0.005 C 
ATOM     11  C   UNL     1      -1.785   3.995  25.388  0.00  0.00    +0.113 C 
ATOM     12  C   UNL     1      -3.913   2.330  24.255  0.00  0.00    +0.021 C 
ATOM     13  C   UNL     1      -2.454   2.189  23.834  0.00  0.00    +0.110 C 
ENDROOT
BRANCH   7   1
ATOM      1  S   UNL     1       0.079   2.118  24.794  0.00  0.00    +0.066 S 
ATOM      2  O   UNL     1       0.739   2.247  26.075  0.00  0.00    -0.153 OA
ATOM      3  O   UNL     1       0.623   2.743  23.608  0.00  0.00    -0.153 OA
BRANCH   1  17
ATOM      5  O   UNL     1       0.071  -1.569  23.570  0.00  0.00    -0.358 OA
ATOM      8  N   UNL     1      -0.837  -1.693  24.615  0.00  0.00    -0.081 NA
ATOM     17  C   UNL     1      -0.121   0.396  24.459  0.00  0.00    +0.170 A 
ATOM     19  C   UNL     1       0.495  -0.282  23.496  0.00  0.00    +0.161 A 
ATOM     20  C   UNL     1      -0.931  -0.468  25.139  0.00  0.00    +0.107 A 
ATOM     21  C   UNL     1       1.465   0.023  22.436  0.00  0.00    +0.091 C 
ATOM     22  C   UNL     1      -1.825  -0.235  26.286  0.00  0.00    +0.071 C 
ENDBRANCH   1  17
ENDBRANCH   7   1
BRANCH   9  14
ATOM     14  C   UNL     1      -3.451   3.465  27.210  0.00  0.00    +0.002 C 
ATOM     16  C   UNL     1      -3.099   4.367  28.374  0.00  0.00    +0.004 C 
ENDBRANCH   9  14
BRANCH  10  15
ATOM     15  C   UNL     1      -5.686   3.871  25.171  0.00  0.00    +0.124 C 
BRANCH  15  18
ATOM      6  O   UNL     1      -6.656   1.697  24.643  0.00  0.00    -0.251 OA
ATOM     18  C   UNL     1      -6.291   2.526  25.464  0.00  0.00    +0.305 C 
BRANCH  18   4
ATOM      4  O   UNL     1      -6.382   2.348  26.808  0.00  0.00    -0.481 OA
ATOM     23  H   UNL     1      -6.789   1.485  27.035  0.00  0.00    +0.295 HD
ENDBRANCH  18   4
ENDBRANCH  15  18
ENDBRANCH  10  15
TORSDOF 6
ENDMDL
