MODEL 1
REMARK VINA RESULT:      -5.0      0.000      0.000
REMARK  Name = 75367102
REMARK  5 active torsions:
REMARK  status: ('A' for Active; 'I' for Inactive)
REMARK    1  A    between atoms: O_2  and  C_12
REMARK    2  A    between atoms: N_5  and  C_8
REMARK    3  A    between atoms: N_5  and  C_9
REMARK    4  A    between atoms: N_6  and  C_16
REMARK    5  A    between atoms: C_14  and  C_16
REMARK                            x       y       z     vdW  Elec       q    Type
REMARK                         _______ _______ _______ _____ _____    ______ ____
ROOT
ATOM      1  O   UNL     1      -0.362   0.973  25.937  0.00  0.00    -0.371 OA
ATOM      9  C   UNL     1      -0.322  -1.084  24.750  0.00  0.00    +0.111 C 
ATOM     12  C   UNL     1      -0.149   0.059  23.765  0.00  0.00    +0.164 C 
ATOM     14  C   UNL     1       0.326   1.172  24.689  0.00  0.00    +0.165 C 
ATOM     15  C   UNL     1      -0.904  -0.359  25.953  0.00  0.00    +0.181 C 
ENDROOT
BRANCH  12   2
ATOM      2  O   UNL     1       0.799  -0.229  22.757  0.00  0.00    -0.388 OA
ATOM     23  H   UNL     1       1.680   0.019  23.084  0.00  0.00    +0.210 HD
ENDBRANCH  12   2
BRANCH   9   5
ATOM      5  N   UNL     1      -1.182  -2.149  24.261  0.00  0.00    -0.306 NA
ATOM     22  H   UNL     1      -0.771  -3.042  24.537  0.00  0.00    +0.123 HD
BRANCH   5   8
ATOM      8  C   UNL     1      -2.530  -1.963  24.776  0.00  0.00    +0.054 C 
ATOM     10  C   UNL     1      -3.371  -3.222  24.471  0.00  0.00    +0.019 C 
ATOM     11  C   UNL     1      -3.382  -1.227  23.718  0.00  0.00    +0.019 C 
ATOM     13  C   UNL     1      -4.493  -2.258  24.024  0.00  0.00    +0.003 C 
ENDBRANCH   5   8
ENDBRANCH   9   5
BRANCH  14  16
ATOM     16  C   UNL     1       0.029   2.563  24.156  0.00  0.00    +0.140 C 
BRANCH  16   6
ATOM      3  O   UNL     1      -6.096   3.598  25.771  0.00  0.00    -0.377 OA
ATOM      4  O   UNL     1      -2.416   1.725  23.044  0.00  0.00    -0.253 OA
ATOM      6  N   UNL     1      -1.282   3.016  24.563  0.00  0.00    -0.297 N 
ATOM      7  N   UNL     1      -3.643   3.092  24.462  0.00  0.00    -0.281 N 
ATOM     17  C   UNL     1      -2.446   2.552  23.961  0.00  0.00    +0.302 C 
ATOM     18  C   UNL     1      -3.759   4.183  25.439  0.00  0.00    +0.137 C 
ATOM     19  C   UNL     1      -4.917   2.663  23.881  0.00  0.00    +0.137 C 
ATOM     20  C   UNL     1      -4.871   3.896  26.444  0.00  0.00    +0.179 C 
ATOM     21  C   UNL     1      -5.958   2.427  24.963  0.00  0.00    +0.179 C 
ATOM     24  H   UNL     1      -1.303   3.705  25.300  0.00  0.00    +0.150 HD
ENDBRANCH  16   6
ENDBRANCH  14  16
TORSDOF 5
ENDMDL
MODEL 2
REMARK VINA RESULT:      -4.8      1.956      4.922
REMARK  Name = 75367102
REMARK  5 active torsions:
REMARK  status: ('A' for Active; 'I' for Inactive)
REMARK    1  A    between atoms: O_2  and  C_12
REMARK    2  A    between atoms: N_5  and  C_8
REMARK    3  A    between atoms: N_5  and  C_9
REMARK    4  A    between atoms: N_6  and  C_16
REMARK    5  A    between atoms: C_14  and  C_16
REMARK                            x       y       z     vdW  Elec       q    Type
REMARK                         _______ _______ _______ _____ _____    ______ ____
ROOT
ATOM      1  O   UNL     1      -0.318   3.802  23.734  0.00  0.00    -0.371 OA
ATOM      9  C   UNL     1      -1.515   4.104  25.763  0.00  0.00    +0.111 C 
ATOM     12  C   UNL     1      -0.914   2.710  25.746  0.00  0.00    +0.164 C 
ATOM     14  C   UNL     1       0.192   2.880  24.713  0.00  0.00    +0.165 C 
ATOM     15  C   UNL     1      -1.462   4.472  24.289  0.00  0.00    +0.181 C 
ENDROOT
BRANCH  12   2
ATOM      2  O   UNL     1      -0.403   2.321  27.005  0.00  0.00    -0.388 OA
ATOM     23  H   UNL     1      -1.143   2.008  27.553  0.00  0.00    +0.210 HD
ENDBRANCH  12   2
BRANCH   9   5
ATOM      5  N   UNL     1      -2.859   4.153  26.311  0.00  0.00    -0.306 NA
ATOM     22  H   UNL     1      -3.036   5.104  26.639  0.00  0.00    +0.123 HD
BRANCH   5   8
ATOM      8  C   UNL     1      -3.814   3.715  25.303  0.00  0.00    +0.054 C 
ATOM     10  C   UNL     1      -5.234   4.155  25.720  0.00  0.00    +0.019 C 
ATOM     11  C   UNL     1      -4.251   2.266  25.612  0.00  0.00    +0.019 C 
ATOM     13  C   UNL     1      -5.696   2.734  25.324  0.00  0.00    +0.003 C 
ENDBRANCH   5   8
ENDBRANCH   9   5
BRANCH  14  16
ATOM     16  C   UNL     1       0.587   1.579  24.037  0.00  0.00    +0.140 C 
BRANCH  16   6
ATOM      3  O   UNL     1      -3.782  -3.084  24.638  0.00  0.00    -0.377 OA
ATOM      4  O   UNL     1      -2.087   1.334  23.193  0.00  0.00    -0.253 OA
ATOM      6  N   UNL     1      -0.314   0.505  24.391  0.00  0.00    -0.297 N 
ATOM      7  N   UNL     1      -2.379  -0.646  24.367  0.00  0.00    -0.281 N 
ATOM     17  C   UNL     1      -1.625   0.457  23.931  0.00  0.00    +0.302 C 
ATOM     18  C   UNL     1      -1.959  -1.646  25.358  0.00  0.00    +0.137 C 
ATOM     19  C   UNL     1      -3.773  -0.773  23.935  0.00  0.00    +0.137 C 
ATOM     20  C   UNL     1      -2.384  -3.047  24.929  0.00  0.00    +0.179 C 
ATOM     21  C   UNL     1      -4.098  -2.209  23.554  0.00  0.00    +0.179 C 
ATOM     24  H   UNL     1       0.059  -0.201  25.008  0.00  0.00    +0.150 HD
ENDBRANCH  16   6
ENDBRANCH  14  16
TORSDOF 5
ENDMDL
MODEL 3
REMARK VINA RESULT:      -4.7     15.035     17.392
REMARK  Name = 75367102
REMARK  5 active torsions:
REMARK  status: ('A' for Active; 'I' for Inactive)
REMARK    1  A    between atoms: O_2  and  C_12
REMARK    2  A    between atoms: N_5  and  C_8
REMARK    3  A    between atoms: N_5  and  C_9
REMARK    4  A    between atoms: N_6  and  C_16
REMARK    5  A    between atoms: C_14  and  C_16
REMARK                            x       y       z     vdW  Elec       q    Type
REMARK                         _______ _______ _______ _____ _____    ______ ____
ROOT
ATOM      1  O   UNL     1      -7.587 -10.363  11.089  0.00  0.00    -0.371 OA
ATOM      9  C   UNL     1      -7.658  -9.384   8.926  0.00  0.00    +0.111 C 
ATOM     12  C   UNL     1      -6.496  -8.789   9.701  0.00  0.00    +0.164 C 
ATOM     14  C   UNL     1      -6.281  -9.852  10.770  0.00  0.00    +0.165 C 
ATOM     15  C   UNL     1      -8.498  -9.971  10.049  0.00  0.00    +0.181 C 
ENDROOT
BRANCH  12   2
ATOM      2  O   UNL     1      -5.344  -8.605   8.902  0.00  0.00    -0.388 OA
ATOM     23  H   UNL     1      -5.232  -7.653   8.739  0.00  0.00    +0.210 HD
ENDBRANCH  12   2
BRANCH   9   5
ATOM      5  N   UNL     1      -8.382  -8.413   8.124  0.00  0.00    -0.306 NA
ATOM     22  H   UNL     1      -9.070  -8.914   7.561  0.00  0.00    +0.123 HD
BRANCH   5   8
ATOM      8  C   UNL     1      -8.982  -7.412   8.994  0.00  0.00    +0.054 C 
ATOM     10  C   UNL     1     -10.479  -7.265   8.644  0.00  0.00    +0.019 C 
ATOM     11  C   UNL     1      -8.775  -6.012   8.378  0.00  0.00    +0.019 C 
ATOM     13  C   UNL     1     -10.257  -5.737   8.723  0.00  0.00    +0.003 C 
ENDBRANCH   5   8
ENDBRANCH   9   5
BRANCH  14  16
ATOM     16  C   UNL     1      -5.619  -9.314  12.027  0.00  0.00    +0.140 C 
BRANCH  16   6
ATOM      3  O   UNL     1      -8.649  -9.553  17.680  0.00  0.00    -0.377 OA
ATOM      4  O   UNL     1      -4.861 -10.244  14.572  0.00  0.00    -0.253 OA
ATOM      6  N   UNL     1      -6.490  -9.432  13.175  0.00  0.00    -0.297 N 
ATOM      7  N   UNL     1      -7.003  -9.966  15.420  0.00  0.00    -0.281 N 
ATOM     17  C   UNL     1      -6.037  -9.903  14.402  0.00  0.00    +0.302 C 
ATOM     18  C   UNL     1      -8.444  -9.725  15.264  0.00  0.00    +0.137 C 
ATOM     19  C   UNL     1      -6.613 -10.457  16.744  0.00  0.00    +0.137 C 
ATOM     20  C   UNL     1      -8.992  -8.927  16.442  0.00  0.00    +0.179 C 
ATOM     21  C   UNL     1      -7.231  -9.607  17.844  0.00  0.00    +0.179 C 
ATOM     24  H   UNL     1      -7.454  -9.170  13.029  0.00  0.00    +0.150 HD
ENDBRANCH  16   6
ENDBRANCH  14  16
TORSDOF 5
ENDMDL
MODEL 4
REMARK VINA RESULT:      -4.7     14.151     16.536
REMARK  Name = 75367102
REMARK  5 active torsions:
REMARK  status: ('A' for Active; 'I' for Inactive)
REMARK    1  A    between atoms: O_2  and  C_12
REMARK    2  A    between atoms: N_5  and  C_8
REMARK    3  A    between atoms: N_5  and  C_9
REMARK    4  A    between atoms: N_6  and  C_16
REMARK    5  A    between atoms: C_14  and  C_16
REMARK                            x       y       z     vdW  Elec       q    Type
REMARK                         _______ _______ _______ _____ _____    ______ ____
ROOT
ATOM      1  O   UNL     1      -8.236  -9.260  10.718  0.00  0.00    -0.371 OA
ATOM      9  C   UNL     1      -5.925  -9.699  11.044  0.00  0.00    +0.111 C 
ATOM     12  C   UNL     1      -6.630  -9.736  12.388  0.00  0.00    +0.164 C 
ATOM     14  C   UNL     1      -8.071  -9.972  11.956  0.00  0.00    +0.165 C 
ATOM     15  C   UNL     1      -6.935  -8.943  10.196  0.00  0.00    +0.181 C 
ENDROOT
BRANCH  12   2
ATOM      2  O   UNL     1      -6.154 -10.772  13.225  0.00  0.00    -0.388 OA
ATOM     23  H   UNL     1      -6.547 -10.658  14.107  0.00  0.00    +0.210 HD
ENDBRANCH  12   2
BRANCH   9   5
ATOM      5  N   UNL     1      -4.624  -9.053  11.086  0.00  0.00    -0.306 NA
ATOM     22  H   UNL     1      -4.559  -8.523  11.955  0.00  0.00    +0.123 HD
BRANCH   5   8
ATOM      8  C   UNL     1      -3.577 -10.055  10.952  0.00  0.00    +0.054 C 
ATOM     10  C   UNL     1      -3.060 -10.441  12.355  0.00  0.00    +0.019 C 
ATOM     11  C   UNL     1      -2.222  -9.349  10.727  0.00  0.00    +0.019 C 
ATOM     13  C   UNL     1      -1.636 -10.336  11.764  0.00  0.00    +0.003 C 
ENDBRANCH   5   8
ENDBRANCH   9   5
BRANCH  14  16
ATOM     16  C   UNL     1      -9.090  -9.482  12.971  0.00  0.00    +0.140 C 
BRANCH  16   6
ATOM      3  O   UNL     1      -7.463 -10.333  19.121  0.00  0.00    -0.377 OA
ATOM      4  O   UNL     1     -10.595  -9.794  15.328  0.00  0.00    -0.253 OA
ATOM      6  N   UNL     1      -8.556  -9.514  14.314  0.00  0.00    -0.297 N 
ATOM      7  N   UNL     1      -8.704  -9.677  16.668  0.00  0.00    -0.281 N 
ATOM     17  C   UNL     1      -9.369  -9.672  15.430  0.00  0.00    +0.302 C 
ATOM     18  C   UNL     1      -7.280  -9.389  16.887  0.00  0.00    +0.137 C 
ATOM     19  C   UNL     1      -9.486  -9.833  17.897  0.00  0.00    +0.137 C 
ATOM     20  C   UNL     1      -6.687 -10.341  17.921  0.00  0.00    +0.179 C 
ATOM     21  C   UNL     1      -8.795 -10.781  18.865  0.00  0.00    +0.179 C 
ATOM     24  H   UNL     1      -7.557  -9.396  14.396  0.00  0.00    +0.150 HD
ENDBRANCH  16   6
ENDBRANCH  14  16
TORSDOF 5
ENDMDL
MODEL 5
REMARK VINA RESULT:      -4.4      1.879      5.971
REMARK  Name = 75367102
REMARK  5 active torsions:
REMARK  status: ('A' for Active; 'I' for Inactive)
REMARK    1  A    between atoms: O_2  and  C_12
REMARK    2  A    between atoms: N_5  and  C_8
REMARK    3  A    between atoms: N_5  and  C_9
REMARK    4  A    between atoms: N_6  and  C_16
REMARK    5  A    between atoms: C_14  and  C_16
REMARK                            x       y       z     vdW  Elec       q    Type
REMARK                         _______ _______ _______ _____ _____    ______ ____
ROOT
ATOM      1  O   UNL     1      -5.610   3.150  26.036  0.00  0.00    -0.371 OA
ATOM      9  C   UNL     1      -3.871   4.199  24.805  0.00  0.00    +0.111 C 
ATOM     12  C   UNL     1      -4.030   2.769  24.318  0.00  0.00    +0.164 C 
ATOM     14  C   UNL     1      -5.444   2.456  24.788  0.00  0.00    +0.165 C 
ATOM     15  C   UNL     1      -4.571   4.136  26.153  0.00  0.00    +0.181 C 
ENDROOT
BRANCH  12   2
ATOM      2  O   UNL     1      -3.904   2.655  22.914  0.00  0.00    -0.388 OA
ATOM     23  H   UNL     1      -3.517   1.786  22.711  0.00  0.00    +0.210 HD
ENDBRANCH  12   2
BRANCH   9   5
ATOM      5  N   UNL     1      -2.487   4.630  24.905  0.00  0.00    -0.306 NA
ATOM     22  H   UNL     1      -2.367   5.117  25.794  0.00  0.00    +0.123 HD
BRANCH   5   8
ATOM      8  C   UNL     1      -1.606   3.479  24.768  0.00  0.00    +0.054 C 
ATOM     10  C   UNL     1      -1.229   2.955  26.170  0.00  0.00    +0.019 C 
ATOM     11  C   UNL     1      -0.147   3.966  24.637  0.00  0.00    +0.019 C 
ATOM     13  C   UNL     1       0.222   2.856  25.647  0.00  0.00    +0.003 C 
ENDBRANCH   5   8
ENDBRANCH   9   5
BRANCH  14  16
ATOM     16  C   UNL     1      -5.694   0.971  24.990  0.00  0.00    +0.140 C 
BRANCH  16   6
ATOM      3  O   UNL     1      -0.240  -2.400  25.284  0.00  0.00    -0.377 OA
ATOM      4  O   UNL     1      -4.861  -1.438  23.798  0.00  0.00    -0.253 OA
ATOM      6  N   UNL     1      -4.468   0.264  25.285  0.00  0.00    -0.297 N 
ATOM      7  N   UNL     1      -2.908  -1.496  25.050  0.00  0.00    -0.281 N 
ATOM     17  C   UNL     1      -4.128  -0.925  24.651  0.00  0.00    +0.302 C 
ATOM     18  C   UNL     1      -2.055  -1.036  26.154  0.00  0.00    +0.137 C 
ATOM     19  C   UNL     1      -2.475  -2.754  24.436  0.00  0.00    +0.137 C 
ATOM     20  C   UNL     1      -0.582  -1.099  25.765  0.00  0.00    +0.179 C 
ATOM     21  C   UNL     1      -0.990  -2.719  24.111  0.00  0.00    +0.179 C 
ATOM     24  H   UNL     1      -3.879   0.676  25.995  0.00  0.00    +0.150 HD
ENDBRANCH  16   6
ENDBRANCH  14  16
TORSDOF 5
ENDMDL
MODEL 6
REMARK VINA RESULT:      -4.0     14.453     16.930
REMARK  Name = 75367102
REMARK  5 active torsions:
REMARK  status: ('A' for Active; 'I' for Inactive)
REMARK    1  A    between atoms: O_2  and  C_12
REMARK    2  A    between atoms: N_5  and  C_8
REMARK    3  A    between atoms: N_5  and  C_9
REMARK    4  A    between atoms: N_6  and  C_16
REMARK    5  A    between atoms: C_14  and  C_16
REMARK                            x       y       z     vdW  Elec       q    Type
REMARK                         _______ _______ _______ _____ _____    ______ ____
ROOT
ATOM      1  O   UNL     1      -3.772  -9.224  11.368  0.00  0.00    -0.371 OA
ATOM      9  C   UNL     1      -5.669  -9.547   9.977  0.00  0.00    +0.111 C 
ATOM     12  C   UNL     1      -5.800 -10.430  11.205  0.00  0.00    +0.164 C 
ATOM     14  C   UNL     1      -4.853  -9.731  12.171  0.00  0.00    +0.165 C 
ATOM     15  C   UNL     1      -4.182  -9.232   9.991  0.00  0.00    +0.181 C 
ENDROOT
BRANCH  12   2
ATOM      2  O   UNL     1      -7.122 -10.476  11.705  0.00  0.00    -0.388 OA
ATOM     23  H   UNL     1      -7.538  -9.610  11.554  0.00  0.00    +0.210 HD
ENDBRANCH  12   2
BRANCH   9   5
ATOM      5  N   UNL     1      -6.100 -10.191   8.747  0.00  0.00    -0.306 NA
ATOM     22  H   UNL     1      -6.400 -11.140   8.972  0.00  0.00    +0.123 HD
BRANCH   5   8
ATOM      8  C   UNL     1      -7.150  -9.398   8.124  0.00  0.00    +0.054 C 
ATOM     10  C   UNL     1      -7.447  -8.164   9.003  0.00  0.00    +0.019 C 
ATOM     11  C   UNL     1      -8.527  -9.946   8.554  0.00  0.00    +0.019 C 
ATOM     13  C   UNL     1      -8.945  -8.475   8.780  0.00  0.00    +0.003 C 
ENDBRANCH   5   8
ENDBRANCH   9   5
BRANCH  14  16
ATOM     16  C   UNL     1      -4.305 -10.653  13.246  0.00  0.00    +0.140 C 
BRANCH  16   6
ATOM      3  O   UNL     1      -7.264 -10.067  18.911  0.00  0.00    -0.377 OA
ATOM      4  O   UNL     1      -3.397 -10.781  15.907  0.00  0.00    -0.253 OA
ATOM      6  N   UNL     1      -5.143 -10.648  14.424  0.00  0.00    -0.297 N 
ATOM      7  N   UNL     1      -5.557 -10.706  16.751  0.00  0.00    -0.281 N 
ATOM     17  C   UNL     1      -4.615 -10.714  15.708  0.00  0.00    +0.302 C 
ATOM     18  C   UNL     1      -7.017 -10.781  16.600  0.00  0.00    +0.137 C 
ATOM     19  C   UNL     1      -5.088 -10.779  18.137  0.00  0.00    +0.137 C 
ATOM     20  C   UNL     1      -7.712  -9.836  17.575  0.00  0.00    +0.179 C 
ATOM     21  C   UNL     1      -5.861  -9.817  19.025  0.00  0.00    +0.179 C 
ATOM     24  H   UNL     1      -6.138 -10.611  14.259  0.00  0.00    +0.150 HD
ENDBRANCH  16   6
ENDBRANCH  14  16
TORSDOF 5
ENDMDL
MODEL 7
REMARK VINA RESULT:      -3.3     16.434     19.384
REMARK  Name = 75367102
REMARK  5 active torsions:
REMARK  status: ('A' for Active; 'I' for Inactive)
REMARK    1  A    between atoms: O_2  and  C_12
REMARK    2  A    between atoms: N_5  and  C_8
REMARK    3  A    between atoms: N_5  and  C_9
REMARK    4  A    between atoms: N_6  and  C_16
REMARK    5  A    between atoms: C_14  and  C_16
REMARK                            x       y       z     vdW  Elec       q    Type
REMARK                         _______ _______ _______ _____ _____    ______ ____
ROOT
ATOM      1  O   UNL     1      11.640  -6.389  32.873  0.00  0.00    -0.371 OA
ATOM      9  C   UNL     1      10.527  -8.479  32.692  0.00  0.00    +0.111 C 
ATOM     12  C   UNL     1      11.841  -8.550  31.934  0.00  0.00    +0.164 C 
ATOM     14  C   UNL     1      12.613  -7.406  32.577  0.00  0.00    +0.165 C 
ATOM     15  C   UNL     1      10.330  -6.976  32.810  0.00  0.00    +0.181 C 
ENDROOT
BRANCH  12   2
ATOM      2  O   UNL     1      12.500  -9.790  32.101  0.00  0.00    -0.388 OA
ATOM     23  H   UNL     1      13.226  -9.668  32.735  0.00  0.00    +0.210 HD
ENDBRANCH  12   2
BRANCH   9   5
ATOM      5  N   UNL     1       9.426  -9.143  32.015  0.00  0.00    -0.306 NA
ATOM     22  H   UNL     1       9.217 -10.007  32.517  0.00  0.00    +0.123 HD
BRANCH   5   8
ATOM      8  C   UNL     1       8.286  -8.242  31.939  0.00  0.00    +0.054 C 
ATOM     10  C   UNL     1       7.165  -8.759  32.867  0.00  0.00    +0.019 C 
ATOM     11  C   UNL     1       7.391  -8.653  30.750  0.00  0.00    +0.019 C 
ATOM     13  C   UNL     1       6.189  -8.469  31.704  0.00  0.00    +0.003 C 
ENDBRANCH   5   8
ENDBRANCH   9   5
BRANCH  14  16
ATOM     16  C   UNL     1      13.697  -6.834  31.680  0.00  0.00    +0.140 C 
BRANCH  16   6
ATOM      3  O   UNL     1      16.637 -10.531  27.334  0.00  0.00    -0.377 OA
ATOM      4  O   UNL     1      14.788  -6.311  29.140  0.00  0.00    -0.253 OA
ATOM      6  N   UNL     1      14.196  -7.828  30.756  0.00  0.00    -0.297 N 
ATOM      7  N   UNL     1      15.161  -8.564  28.727  0.00  0.00    -0.281 N 
ATOM     17  C   UNL     1      14.722  -7.486  29.515  0.00  0.00    +0.302 C 
ATOM     18  C   UNL     1      14.982  -9.990  29.031  0.00  0.00    +0.137 C 
ATOM     19  C   UNL     1      15.723  -8.295  27.401  0.00  0.00    +0.137 C 
ATOM     20  C   UNL     1      16.239 -10.781  28.683  0.00  0.00    +0.179 C 
ATOM     21  C   UNL     1      16.954  -9.150  27.148  0.00  0.00    +0.179 C 
ATOM     24  H   UNL     1      14.125  -8.788  31.058  0.00  0.00    +0.150 HD
ENDBRANCH  16   6
ENDBRANCH  14  16
TORSDOF 5
ENDMDL
MODEL 8
REMARK VINA RESULT:      -3.0      2.040      3.987
REMARK  Name = 75367102
REMARK  5 active torsions:
REMARK  status: ('A' for Active; 'I' for Inactive)
REMARK    1  A    between atoms: O_2  and  C_12
REMARK    2  A    between atoms: N_5  and  C_8
REMARK    3  A    between atoms: N_5  and  C_9
REMARK    4  A    between atoms: N_6  and  C_16
REMARK    5  A    between atoms: C_14  and  C_16
REMARK                            x       y       z     vdW  Elec       q    Type
REMARK                         _______ _______ _______ _____ _____    ______ ____
ROOT
ATOM      1  O   UNL     1      -3.053  -2.914  23.770  0.00  0.00    -0.371 OA
ATOM      9  C   UNL     1      -1.195  -2.160  25.043  0.00  0.00    +0.111 C 
ATOM     12  C   UNL     1      -2.351  -1.196  25.236  0.00  0.00    +0.164 C 
ATOM     14  C   UNL     1      -3.532  -2.068  24.830  0.00  0.00    +0.165 C 
ATOM     15  C   UNL     1      -1.616  -2.884  23.774  0.00  0.00    +0.181 C 
ENDROOT
BRANCH  12   2
ATOM      2  O   UNL     1      -2.466  -0.742  26.570  0.00  0.00    -0.388 OA
ATOM     23  H   UNL     1      -3.400  -0.536  26.745  0.00  0.00    +0.210 HD
ENDBRANCH  12   2
BRANCH   9   5
ATOM      5  N   UNL     1       0.096  -1.506  24.920  0.00  0.00    -0.306 NA
ATOM     22  H   UNL     1       0.787  -2.209  24.653  0.00  0.00    +0.123 HD
BRANCH   5   8
ATOM      8  C   UNL     1       0.001  -0.414  23.963  0.00  0.00    +0.054 C 
ATOM     10  C   UNL     1       1.415  -0.049  23.463  0.00  0.00    +0.019 C 
ATOM     11  C   UNL     1       0.001   0.931  24.721  0.00  0.00    +0.019 C 
ATOM     13  C   UNL     1       1.009   1.429  23.660  0.00  0.00    +0.003 C 
ENDBRANCH   5   8
ENDBRANCH   9   5
BRANCH  14  16
ATOM     16  C   UNL     1      -4.730  -1.269  24.347  0.00  0.00    +0.140 C 
BRANCH  16   6
ATOM      3  O   UNL     1      -3.267   4.969  24.722  0.00  0.00    -0.377 OA
ATOM      4  O   UNL     1      -5.600   0.808  26.035  0.00  0.00    -0.253 OA
ATOM      6  N   UNL     1      -4.405   0.132  24.196  0.00  0.00    -0.297 N 
ATOM      7  N   UNL     1      -4.481   2.418  24.795  0.00  0.00    -0.281 N 
ATOM     17  C   UNL     1      -4.877   1.099  25.076  0.00  0.00    +0.302 C 
ATOM     18  C   UNL     1      -3.754   2.868  23.600  0.00  0.00    +0.137 C 
ATOM     19  C   UNL     1      -4.937   3.502  25.668  0.00  0.00    +0.137 C 
ATOM     20  C   UNL     1      -2.693   3.901  23.967  0.00  0.00    +0.179 C 
ATOM     21  C   UNL     1      -3.812   4.485  25.951  0.00  0.00    +0.179 C 
ATOM     24  H   UNL     1      -3.830   0.370  23.403  0.00  0.00    +0.150 HD
ENDBRANCH  16   6
ENDBRANCH  14  16
TORSDOF 5
ENDMDL
MODEL 9
REMARK VINA RESULT:      -2.9      2.037      5.356
REMARK  Name = 75367102
REMARK  5 active torsions:
REMARK  status: ('A' for Active; 'I' for Inactive)
REMARK    1  A    between atoms: O_2  and  C_12
REMARK    2  A    between atoms: N_5  and  C_8
REMARK    3  A    between atoms: N_5  and  C_9
REMARK    4  A    between atoms: N_6  and  C_16
REMARK    5  A    between atoms: C_14  and  C_16
REMARK                            x       y       z     vdW  Elec       q    Type
REMARK                         _______ _______ _______ _____ _____    ______ ____
ROOT
ATOM      1  O   UNL     1      -4.191   3.909  26.255  0.00  0.00    -0.371 OA
ATOM      9  C   UNL     1      -2.502   4.120  24.599  0.00  0.00    +0.111 C 
ATOM     12  C   UNL     1      -3.575   3.172  24.093  0.00  0.00    +0.164 C 
ATOM     14  C   UNL     1      -4.752   3.565  24.976  0.00  0.00    +0.165 C 
ATOM     15  C   UNL     1      -2.777   4.116  26.094  0.00  0.00    +0.181 C 
ENDROOT
BRANCH  12   2
ATOM      2  O   UNL     1      -3.862   3.355  22.721  0.00  0.00    -0.388 OA
ATOM     23  H   UNL     1      -3.104   3.032  22.204  0.00  0.00    +0.210 HD
ENDBRANCH  12   2
BRANCH   9   5
ATOM      5  N   UNL     1      -1.150   3.698  24.271  0.00  0.00    -0.306 NA
ATOM     22  H   UNL     1      -0.497   4.330  24.736  0.00  0.00    +0.123 HD
BRANCH   5   8
ATOM      8  C   UNL     1      -0.966   2.308  24.659  0.00  0.00    +0.054 C 
ATOM     10  C   UNL     1       0.534   1.949  24.573  0.00  0.00    +0.019 C 
ATOM     11  C   UNL     1      -1.178   1.402  23.427  0.00  0.00    +0.019 C 
ATOM     13  C   UNL     1       0.092   0.643  23.874  0.00  0.00    +0.003 C 
ENDBRANCH   5   8
ENDBRANCH   9   5
BRANCH  14  16
ATOM     16  C   UNL     1      -5.772   2.453  25.146  0.00  0.00    +0.140 C 
BRANCH  16   6
ATOM      3  O   UNL     1      -3.389  -3.408  24.069  0.00  0.00    -0.377 OA
ATOM      4  O   UNL     1      -3.717   0.964  26.362  0.00  0.00    -0.253 OA
ATOM      6  N   UNL     1      -5.257   1.187  24.676  0.00  0.00    -0.297 N 
ATOM      7  N   UNL     1      -3.839  -0.703  24.753  0.00  0.00    -0.281 N 
ATOM     17  C   UNL     1      -4.236   0.512  25.336  0.00  0.00    +0.302 C 
ATOM     18  C   UNL     1      -4.294  -1.235  23.461  0.00  0.00    +0.137 C 
ATOM     19  C   UNL     1      -2.765  -1.477  25.380  0.00  0.00    +0.137 C 
ATOM     20  C   UNL     1      -4.539  -2.738  23.549  0.00  0.00    +0.179 C 
ATOM     21  C   UNL     1      -3.098  -2.961  25.394  0.00  0.00    +0.179 C 
ATOM     24  H   UNL     1      -5.670   0.828  23.827  0.00  0.00    +0.150 HD
ENDBRANCH  16   6
ENDBRANCH  14  16
TORSDOF 5
ENDMDL
MODEL 10
REMARK VINA RESULT:      -2.8     13.884     16.285
REMARK  Name = 75367102
REMARK  5 active torsions:
REMARK  status: ('A' for Active; 'I' for Inactive)
REMARK    1  A    between atoms: O_2  and  C_12
REMARK    2  A    between atoms: N_5  and  C_8
REMARK    3  A    between atoms: N_5  and  C_9
REMARK    4  A    between atoms: N_6  and  C_16
REMARK    5  A    between atoms: C_14  and  C_16
REMARK                            x       y       z     vdW  Elec       q    Type
REMARK                         _______ _______ _______ _____ _____    ______ ____
ROOT
ATOM      1  O   UNL     1      -5.063 -10.768  12.436  0.00  0.00    -0.371 OA
ATOM      9  C   UNL     1      -4.443  -9.851  10.334  0.00  0.00    +0.111 C 
ATOM     12  C   UNL     1      -3.471  -9.363  11.394  0.00  0.00    +0.164 C 
ATOM     14  C   UNL     1      -3.671 -10.411  12.480  0.00  0.00    +0.165 C 
ATOM     15  C   UNL     1      -5.614 -10.310  11.189  0.00  0.00    +0.181 C 
ENDROOT
BRANCH  12   2
ATOM      2  O   UNL     1      -2.135  -9.328  10.934  0.00  0.00    -0.388 OA
ATOM     23  H   UNL     1      -2.125  -8.924  10.049  0.00  0.00    +0.210 HD
ENDBRANCH  12   2
BRANCH   9   5
ATOM      5  N   UNL     1      -4.813  -8.832   9.368  0.00  0.00    -0.306 NA
ATOM     22  H   UNL     1      -4.688  -9.218   8.432  0.00  0.00    +0.123 HD
BRANCH   5   8
ATOM      8  C   UNL     1      -6.177  -8.392   9.621  0.00  0.00    +0.054 C 
ATOM     10  C   UNL     1      -7.083  -8.841   8.454  0.00  0.00    +0.019 C 
ATOM     11  C   UNL     1      -6.351  -6.947   9.104  0.00  0.00    +0.019 C 
ATOM     13  C   UNL     1      -7.691  -7.420   8.494  0.00  0.00    +0.003 C 
ENDBRANCH   5   8
ENDBRANCH   9   5
BRANCH  14  16
ATOM     16  C   UNL     1      -3.313  -9.911  13.869  0.00  0.00    +0.140 C 
BRANCH  16   6
ATOM      3  O   UNL     1      -7.737  -9.679  18.513  0.00  0.00    -0.377 OA
ATOM      4  O   UNL     1      -3.308 -10.717  16.565  0.00  0.00    -0.253 OA
ATOM      6  N   UNL     1      -4.461  -9.923  14.747  0.00  0.00    -0.297 N 
ATOM      7  N   UNL     1      -5.579 -10.298  16.796  0.00  0.00    -0.281 N 
ATOM     17  C   UNL     1      -4.376 -10.337  16.072  0.00  0.00    +0.302 C 
ATOM     18  C   UNL     1      -6.911 -10.006  16.250  0.00  0.00    +0.137 C 
ATOM     19  C   UNL     1      -5.581 -10.723  18.199  0.00  0.00    +0.137 C 
ATOM     20  C   UNL     1      -7.705  -9.116  17.201  0.00  0.00    +0.179 C 
ATOM     21  C   UNL     1      -6.418  -9.783  19.052  0.00  0.00    +0.179 C 
ATOM     24  H   UNL     1      -5.336  -9.629  14.337  0.00  0.00    +0.150 HD
ENDBRANCH  16   6
ENDBRANCH  14  16
TORSDOF 5
ENDMDL
