MODEL 1
REMARK VINA RESULT:       6.3      0.000      0.000
REMARK  Name = 45783323
REMARK  8 active torsions:
REMARK  status: ('A' for Active; 'I' for Inactive)
REMARK    1  A    between atoms: N_3  and  C_12
REMARK    2  A    between atoms: C_9  and  C_15
REMARK    3  A    between atoms: C_12  and  C_14
REMARK    4  A    between atoms: C_14  and  C_16
REMARK    5  A    between atoms: C_14  and  C_17
REMARK    6  A    between atoms: C_14  and  C_18
REMARK    7  A    between atoms: C_19  and  C_26
REMARK    8  A    between atoms: C_25  and  C_27
REMARK                            x       y       z     vdW  Elec       q    Type
REMARK                         _______ _______ _______ _____ _____    ______ ____
ROOT
ATOM      4  N   UNL     1      14.952  -9.037  28.524  0.00  0.00    -0.315 N 
ATOM      7  N   UNL     1      15.779 -10.503  26.859  0.00  0.00    -0.240 NA
ATOM     19  C   UNL     1      13.810  -8.584  31.155  0.00  0.00    +0.078 C 
ATOM     20  C   UNL     1      14.767  -7.587  30.506  0.00  0.00    +0.031 C 
ATOM     21  C   UNL     1      13.103  -9.440  30.106  0.00  0.00    +0.031 C 
ATOM     22  C   UNL     1      15.710  -8.240  29.496  0.00  0.00    +0.107 C 
ATOM     23  C   UNL     1      14.057 -10.056  29.080  0.00  0.00    +0.107 C 
ATOM     24  C   UNL     1      15.527  -9.238  27.264  0.00  0.00    +0.122 A 
ATOM     27  C   UNL     1      16.380  -8.294  25.254  0.00  0.00    +0.027 A 
ATOM     28  C   UNL     1      15.806  -8.111  26.507  0.00  0.00    +0.055 A 
ATOM     29  C   UNL     1      16.653  -9.580  24.803  0.00  0.00    +0.031 A 
ATOM     30  C   UNL     1      16.337 -10.641  25.636  0.00  0.00    +0.113 A 
ENDROOT
BRANCH  27  25
ATOM      1  O   UNL     1      17.403  -5.941  22.827  0.00  0.00    -0.336 OA
ATOM      5  N   UNL     1      16.342  -5.891  24.799  0.00  0.00    -0.190 NA
ATOM      6  N   UNL     1      17.325  -7.271  23.261  0.00  0.00    -0.056 NA
ATOM     15  C   UNL     1      16.801  -5.195  23.790  0.00  0.00    +0.245 A 
ATOM     25  C   UNL     1      16.687  -7.159  24.430  0.00  0.00    +0.202 A 
BRANCH  15   9
ATOM      3  N   UNL     1      15.373  -3.183  23.470  0.00  0.00    -0.291 NA
ATOM      9  C   UNL     1      16.753  -3.700  23.553  0.00  0.00    +0.146 C 
ATOM     10  C   UNL     1      17.404  -2.896  24.692  0.00  0.00    +0.030 C 
ATOM     11  C   UNL     1      15.421  -1.800  23.943  0.00  0.00    +0.085 C 
ATOM     13  C   UNL     1      16.337  -1.912  25.145  0.00  0.00    +0.017 C 
BRANCH   3  12
ATOM     12  C   UNL     1      14.799  -3.285  22.133  0.00  0.00    +0.091 C 
BRANCH  12  14
ATOM     14  C   UNL     1      13.371  -2.697  22.012  0.00  0.00    -0.025 C 
ATOM     16  C   UNL     1      13.491  -1.182  21.760  0.00  0.00    +0.012 C 
ATOM     17  C   UNL     1      12.565  -2.914  23.306  0.00  0.00    +0.012 C 
ATOM     18  C   UNL     1      12.615  -3.333  20.832  0.00  0.00    +0.012 C 
ENDBRANCH  12  14
ENDBRANCH   3  12
ENDBRANCH  15   9
ENDBRANCH  27  25
BRANCH  19  26
ATOM      2  O   UNL     1      13.971 -10.334  32.778  0.00  0.00    -0.276 OA
ATOM      8  N   UNL     1      15.856  -9.093  32.322  0.00  0.00    -0.329 N 
ATOM     26  C   UNL     1      14.533  -9.433  32.159  0.00  0.00    +0.214 C 
ATOM     31  H   UNL     1      16.443  -9.602  32.974  0.00  0.00    +0.145 HD
ATOM     32  H   UNL     1      16.286  -8.307  31.848  0.00  0.00    +0.145 HD
ENDBRANCH  19  26
TORSDOF 5
ENDMDL
MODEL 2
REMARK VINA RESULT:       8.1     15.808     19.277
REMARK  Name = 45783323
REMARK  8 active torsions:
REMARK  status: ('A' for Active; 'I' for Inactive)
REMARK    1  A    between atoms: N_3  and  C_12
REMARK    2  A    between atoms: C_9  and  C_15
REMARK    3  A    between atoms: C_12  and  C_14
REMARK    4  A    between atoms: C_14  and  C_16
REMARK    5  A    between atoms: C_14  and  C_17
REMARK    6  A    between atoms: C_14  and  C_18
REMARK    7  A    between atoms: C_19  and  C_26
REMARK    8  A    between atoms: C_25  and  C_27
REMARK                            x       y       z     vdW  Elec       q    Type
REMARK                         _______ _______ _______ _____ _____    ______ ____
ROOT
ATOM      4  N   UNL     1       1.402  -0.608  23.734  0.00  0.00    -0.315 N 
ATOM      7  N   UNL     1      -0.008  -2.506  23.607  0.00  0.00    -0.240 NA
ATOM     19  C   UNL     1       3.994   0.647  23.364  0.00  0.00    +0.078 C 
ATOM     20  C   UNL     1       2.687   1.414  23.168  0.00  0.00    +0.031 C 
ATOM     21  C   UNL     1       3.801  -0.546  24.297  0.00  0.00    +0.031 C 
ATOM     22  C   UNL     1       1.517   0.507  22.787  0.00  0.00    +0.107 C 
ATOM     23  C   UNL     1       2.604  -1.424  23.924  0.00  0.00    +0.107 C 
ATOM     24  C   UNL     1       0.139  -1.192  23.892  0.00  0.00    +0.122 A 
ATOM     27  C   UNL     1      -2.148  -0.940  24.495  0.00  0.00    +0.027 A 
ATOM     28  C   UNL     1      -0.888  -0.374  24.335  0.00  0.00    +0.055 A 
ATOM     29  C   UNL     1      -2.339  -2.288  24.211  0.00  0.00    +0.031 A 
ATOM     30  C   UNL     1      -1.247  -3.020  23.774  0.00  0.00    +0.113 A 
ENDROOT
BRANCH  27  25
ATOM      1  O   UNL     1      -5.205   0.504  25.513  0.00  0.00    -0.336 OA
ATOM      5  N   UNL     1      -3.073   1.163  25.331  0.00  0.00    -0.190 NA
ATOM      6  N   UNL     1      -4.494  -0.604  25.033  0.00  0.00    -0.056 NA
ATOM     15  C   UNL     1      -4.293   1.501  25.661  0.00  0.00    +0.245 A 
ATOM     25  C   UNL     1      -3.246  -0.136  24.952  0.00  0.00    +0.202 A 
BRANCH  15   9
ATOM      3  N   UNL     1      -4.193   3.982  25.510  0.00  0.00    -0.291 NA
ATOM      9  C   UNL     1      -4.819   2.824  26.177  0.00  0.00    +0.146 C 
ATOM     10  C   UNL     1      -6.328   3.000  25.933  0.00  0.00    +0.030 C 
ATOM     11  C   UNL     1      -5.185   5.057  25.530  0.00  0.00    +0.085 C 
ATOM     13  C   UNL     1      -6.458   4.313  25.176  0.00  0.00    +0.017 C 
BRANCH   3  12
ATOM     12  C   UNL     1      -2.934   4.388  26.124  0.00  0.00    +0.091 C 
BRANCH  12  14
ATOM     14  C   UNL     1      -1.696   4.197  25.212  0.00  0.00    -0.025 C 
ATOM     16  C   UNL     1      -1.065   5.580  24.957  0.00  0.00    +0.012 C 
ATOM     17  C   UNL     1      -2.090   3.584  23.856  0.00  0.00    +0.012 C 
ATOM     18  C   UNL     1      -0.649   3.297  25.890  0.00  0.00    +0.012 C 
ENDBRANCH  12  14
ENDBRANCH   3  12
ENDBRANCH  15   9
ENDBRANCH  27  25
BRANCH  19  26
ATOM      2  O   UNL     1       5.692  -0.245  21.936  0.00  0.00    -0.276 OA
ATOM      8  N   UNL     1       3.709   0.430  20.981  0.00  0.00    -0.329 N 
ATOM     26  C   UNL     1       4.561   0.224  22.041  0.00  0.00    +0.214 C 
ATOM     31  H   UNL     1       3.988   0.179  20.038  0.00  0.00    +0.145 HD
ATOM     32  H   UNL     1       2.804   0.877  21.078  0.00  0.00    +0.145 HD
ENDBRANCH  19  26
TORSDOF 5
ENDMDL
MODEL 3
REMARK VINA RESULT:       9.0     14.434     18.047
REMARK  Name = 45783323
REMARK  8 active torsions:
REMARK  status: ('A' for Active; 'I' for Inactive)
REMARK    1  A    between atoms: N_3  and  C_12
REMARK    2  A    between atoms: C_9  and  C_15
REMARK    3  A    between atoms: C_12  and  C_14
REMARK    4  A    between atoms: C_14  and  C_16
REMARK    5  A    between atoms: C_14  and  C_17
REMARK    6  A    between atoms: C_14  and  C_18
REMARK    7  A    between atoms: C_19  and  C_26
REMARK    8  A    between atoms: C_25  and  C_27
REMARK                            x       y       z     vdW  Elec       q    Type
REMARK                         _______ _______ _______ _____ _____    ______ ____
ROOT
ATOM      4  N   UNL     1       3.907  -0.260  23.324  0.00  0.00    -0.315 N 
ATOM      7  N   UNL     1       2.244  -0.979  21.801  0.00  0.00    -0.240 NA
ATOM     19  C   UNL     1       6.636  -0.341  24.314  0.00  0.00    +0.078 C 
ATOM     20  C   UNL     1       5.795   0.934  24.361  0.00  0.00    +0.031 C 
ATOM     21  C   UNL     1       5.754  -1.587  24.280  0.00  0.00    +0.031 C 
ATOM     22  C   UNL     1       4.710   0.969  23.286  0.00  0.00    +0.107 C 
ATOM     23  C   UNL     1       4.649  -1.520  23.223  0.00  0.00    +0.107 C 
ATOM     24  C   UNL     1       2.596  -0.190  22.841  0.00  0.00    +0.122 A 
ATOM     27  C   UNL     1       0.429   0.778  22.998  0.00  0.00    +0.027 A 
ATOM     28  C   UNL     1       1.735   0.696  23.469  0.00  0.00    +0.055 A 
ATOM     29  C   UNL     1       0.030  -0.018  21.930  0.00  0.00    +0.031 A 
ATOM     30  C   UNL     1       0.967  -0.872  21.372  0.00  0.00    +0.113 A 
ENDROOT
BRANCH  27  25
ATOM      1  O   UNL     1      -1.333   3.296  24.737  0.00  0.00    -0.336 OA
ATOM      5  N   UNL     1      -1.852   1.518  23.479  0.00  0.00    -0.190 NA
ATOM      6  N   UNL     1      -0.114   2.722  24.353  0.00  0.00    -0.056 NA
ATOM     15  C   UNL     1      -2.304   2.526  24.180  0.00  0.00    +0.245 A 
ATOM     25  C   UNL     1      -0.503   1.679  23.614  0.00  0.00    +0.202 A 
BRANCH  15   9
ATOM      3  N   UNL     1      -4.480   1.943  25.236  0.00  0.00    -0.291 NA
ATOM      9  C   UNL     1      -3.734   2.945  24.450  0.00  0.00    +0.146 C 
ATOM     10  C   UNL     1      -3.829   4.240  25.276  0.00  0.00    +0.030 C 
ATOM     11  C   UNL     1      -5.487   2.682  25.999  0.00  0.00    +0.085 C 
ATOM     13  C   UNL     1      -4.696   3.885  26.474  0.00  0.00    +0.017 C 
BRANCH   3  12
ATOM     12  C   UNL     1      -5.077   0.896  24.414  0.00  0.00    +0.091 C 
BRANCH  12  14
ATOM     14  C   UNL     1      -4.294  -0.442  24.430  0.00  0.00    -0.025 C 
ATOM     16  C   UNL     1      -3.323  -0.448  23.234  0.00  0.00    +0.012 C 
ATOM     17  C   UNL     1      -5.244  -1.646  24.293  0.00  0.00    +0.012 C 
ATOM     18  C   UNL     1      -3.478  -0.585  25.727  0.00  0.00    +0.012 C 
ENDBRANCH  12  14
ENDBRANCH   3  12
ENDBRANCH  15   9
ENDBRANCH  27  25
BRANCH  19  26
ATOM      2  O   UNL     1       7.262  -0.707  22.035  0.00  0.00    -0.276 OA
ATOM      8  N   UNL     1       8.826   0.194  23.463  0.00  0.00    -0.329 N 
ATOM     26  C   UNL     1       7.583  -0.306  23.151  0.00  0.00    +0.214 C 
ATOM     31  H   UNL     1       9.547   0.267  22.752  0.00  0.00    +0.145 HD
ATOM     32  H   UNL     1       9.093   0.463  24.403  0.00  0.00    +0.145 HD
ENDBRANCH  19  26
TORSDOF 5
ENDMDL
