MODEL 1
REMARK VINA RESULT:      -4.5      0.000      0.000
REMARK  Name = 7155482
REMARK  3 active torsions:
REMARK  status: ('A' for Active; 'I' for Inactive)
REMARK    1  A    between atoms: N_7  and  C_18
REMARK    2  A    between atoms: C_17  and  C_20
REMARK    3  A    between atoms: C_25  and  C_29
REMARK                            x       y       z     vdW  Elec       q    Type
REMARK                         _______ _______ _______ _____ _____    ______ ____
ROOT
ATOM      2  O   UNL     1      14.693  -7.687  25.879  0.00  0.00    -0.266 OA
ATOM      3  O   UNL     1      12.014  -7.063  30.261  0.00  0.00    -0.270 OA
ATOM      5  N   UNL     1      13.893  -8.365  30.758  0.00  0.00    -0.297 N 
ATOM      6  N   UNL     1      15.414  -8.431  27.974  0.00  0.00    -0.310 N 
ATOM      8  C   UNL     1      14.242 -10.316  29.252  0.00  0.00    +0.027 C 
ATOM      9  C   UNL     1      16.184  -9.182  30.253  0.00  0.00    +0.054 C 
ATOM     10  C   UNL     1      15.611 -10.549  29.882  0.00  0.00    +0.018 C 
ATOM     11  C   UNL     1      13.307  -9.604  30.247  0.00  0.00    +0.113 C 
ATOM     12  C   UNL     1      14.423  -9.516  27.956  0.00  0.00    +0.130 C 
ATOM     13  C   UNL     1      15.262  -8.497  31.282  0.00  0.00    +0.117 C 
ATOM     14  C   UNL     1      16.325  -8.299  29.026  0.00  0.00    +0.027 A 
ATOM     15  C   UNL     1      17.297  -7.372  28.969  0.00  0.00    +0.024 A 
ATOM     16  C   UNL     1      15.463  -7.600  26.837  0.00  0.00    +0.273 A 
ATOM     17  C   UNL     1      13.157  -7.180  30.698  0.00  0.00    +0.247 C 
ATOM     18  C   UNL     1      16.542  -6.562  26.823  0.00  0.00    +0.099 A 
ATOM     19  C   UNL     1      17.403  -6.487  27.843  0.00  0.00    +0.030 A 
ENDROOT
BRANCH  17  20
ATOM     20  C   UNL     1      13.796  -5.950  31.178  0.00  0.00    +0.037 A 
ATOM     21  C   UNL     1      14.754  -5.315  30.391  0.00  0.00    +0.021 A 
ATOM     22  C   UNL     1      13.440  -5.424  32.413  0.00  0.00    +0.013 A 
ATOM     23  C   UNL     1      15.375  -4.136  30.837  0.00  0.00    -0.017 A 
ATOM     24  C   UNL     1      14.047  -4.253  32.871  0.00  0.00    +0.009 A 
ATOM     26  C   UNL     1      15.015  -3.597  32.096  0.00  0.00    -0.018 A 
ATOM     27  C   UNL     1      16.343  -3.479  30.060  0.00  0.00    +0.008 A 
ATOM     28  C   UNL     1      15.636  -2.419  32.540  0.00  0.00    +0.008 A 
ATOM     30  C   UNL     1      16.949  -2.309  30.518  0.00  0.00    +0.001 A 
ATOM     31  C   UNL     1      16.597  -1.780  31.755  0.00  0.00    +0.001 A 
ENDBRANCH  17  20
BRANCH  18   7
ATOM      4  O   UNL     1      17.294  -3.809  26.879  0.00  0.00    -0.269 OA
ATOM      7  N   UNL     1      16.611  -5.725  25.749  0.00  0.00    -0.277 N 
ATOM     25  C   UNL     1      16.986  -4.391  25.841  0.00  0.00    +0.255 C 
ATOM     35  H   UNL     1      16.180  -6.063  24.895  0.00  0.00    +0.155 HD
BRANCH  25  29
ATOM      1  S   UNL     1      17.083  -1.960  24.645  0.00  0.00    -0.092 S 
ATOM     29  C   UNL     1      17.026  -3.642  24.559  0.00  0.00    +0.074 A 
ATOM     32  C   UNL     1      17.021  -4.163  23.323  0.00  0.00    +0.021 A 
ATOM     33  C   UNL     1      17.068  -3.120  22.352  0.00  0.00    +0.008 A 
ATOM     34  C   UNL     1      17.104  -1.873  22.935  0.00  0.00    +0.046 A 
ENDBRANCH  25  29
ENDBRANCH  18   7
TORSDOF 3
ENDMDL
