MODEL 1
REMARK VINA RESULT:      11.2      0.000      0.000
REMARK  Name = 11867064
REMARK  14 active torsions:
REMARK  status: ('A' for Active; 'I' for Inactive)
REMARK    1  A    between atoms: O_2  and  C_16
REMARK    2  A    between atoms: O_3  and  C_21
REMARK    3  A    between atoms: O_6  and  C_30
REMARK    4  A    between atoms: O_6  and  C_36
REMARK    5  A    between atoms: O_7  and  C_35
REMARK    6  A    between atoms: O_7  and  C_37
REMARK    7  A    between atoms: N_9  and  C_27
REMARK    8  A    between atoms: C_11  and  C_19
REMARK    9  A    between atoms: C_13  and  C_21
REMARK   10  A    between atoms: C_13  and  C_22
REMARK   11  A    between atoms: C_14  and  C_24
REMARK   12  A    between atoms: C_24  and  C_25
REMARK   13  A    between atoms: C_27  and  C_29
REMARK   14  A    between atoms: C_28  and  C_30
REMARK                            x       y       z     vdW  Elec       q    Type
REMARK                         _______ _______ _______ _____ _____    ______ ____
ROOT
ATOM      1  S   UNL     1      -0.789  -1.001  23.548  0.00  0.00    -0.057 S 
ATOM      5  O   UNL     1       3.006   1.691  23.234  0.00  0.00    -0.273 OA
ATOM      8  N   UNL     1       0.127   1.392  23.900  0.00  0.00    -0.229 NA
ATOM     10  N   UNL     1       1.684  -0.261  23.093  0.00  0.00    -0.263 N 
ATOM     11  C   UNL     1      -3.477   2.519  24.676  0.00  0.00    -0.019 C 
ATOM     12  C   UNL     1      -3.872   1.103  25.287  0.00  0.00    +0.011 C 
ATOM     13  C   UNL     1      -5.379   0.898  25.706  0.00  0.00    +0.021 C 
ATOM     14  C   UNL     1      -1.887   2.658  24.740  0.00  0.00    +0.054 C 
ATOM     15  C   UNL     1      -4.101   3.646  25.540  0.00  0.00    +0.010 C 
ATOM     16  C   UNL     1      -5.856   2.133  26.522  0.00  0.00    +0.123 C 
ATOM     17  C   UNL     1      -3.295  -0.065  24.435  0.00  0.00    +0.049 C 
ATOM     18  C   UNL     1      -5.586   3.459  25.818  0.00  0.00    +0.032 C 
ATOM     19  C   UNL     1      -3.952   2.696  23.212  0.00  0.00    +0.012 C 
ATOM     20  C   UNL     1      -1.214   1.407  24.237  0.00  0.00    +0.058 A 
ATOM     22  C   UNL     1      -5.483  -0.341  26.640  0.00  0.00    +0.016 C 
ATOM     23  C   UNL     1      -1.859   0.192  24.125  0.00  0.00    +0.015 A 
ATOM     26  C   UNL     1       0.459   0.179  23.516  0.00  0.00    +0.165 A 
ATOM     28  C   UNL     1       2.862   0.501  22.978  0.00  0.00    +0.244 C 
ATOM     41  H   UNL     1       1.725  -1.245  22.841  0.00  0.00    +0.157 HD
ENDROOT
BRANCH  16   2
ATOM      2  O   UNL     1      -7.252   2.041  26.806  0.00  0.00    -0.391 OA
ATOM     38  H   UNL     1      -7.637   2.928  26.712  0.00  0.00    +0.210 HD
ENDBRANCH  16   2
BRANCH  13  21
ATOM     21  C   UNL     1      -6.339   0.613  24.529  0.00  0.00    +0.165 C 
BRANCH  21   3
ATOM      3  O   UNL     1      -7.237   1.695  24.433  0.00  0.00    -0.394 OA
ATOM     39  H   UNL     1      -7.345   2.077  25.320  0.00  0.00    +0.209 HD
ENDBRANCH  21   3
ENDBRANCH  13  21
BRANCH  14  24
ATOM     24  C   UNL     1      -1.328   3.912  24.054  0.00  0.00    +0.106 C 
BRANCH  24  25
ATOM      4  O   UNL     1       0.273   5.614  24.683  0.00  0.00    -0.276 OA
ATOM      9  N   UNL     1       0.510   3.456  25.512  0.00  0.00    -0.311 N 
ATOM     25  C   UNL     1      -0.108   4.450  24.766  0.00  0.00    +0.214 C 
ATOM     40  H   UNL     1       0.090   2.533  25.567  0.00  0.00    +0.149 HD
BRANCH   9  27
ATOM     27  C   UNL     1       1.702   3.683  26.295  0.00  0.00    +0.139 C 
BRANCH  27  29
ATOM     29  C   UNL     1       1.560   3.166  27.697  0.00  0.00    -0.030 A 
ATOM     31  C   UNL     1       0.300   2.847  28.188  0.00  0.00    +0.009 A 
ATOM     32  C   UNL     1       2.691   3.013  28.491  0.00  0.00    +0.009 A 
ATOM     33  C   UNL     1       0.167   2.368  29.491  0.00  0.00    +0.046 A 
ATOM     34  C   UNL     1       2.558   2.534  29.795  0.00  0.00    +0.046 A 
ATOM     35  C   UNL     1       1.297   2.211  30.295  0.00  0.00    +0.120 A 
BRANCH  35   7
ATOM      7  O   UNL     1       1.167   1.743  31.566  0.00  0.00    -0.495 OA
ATOM     37  C   UNL     1       0.218   2.399  32.406  0.00  0.00    +0.277 C 
ENDBRANCH  35   7
ENDBRANCH  27  29
ENDBRANCH   9  27
ENDBRANCH  24  25
ENDBRANCH  14  24
BRANCH  28  30
ATOM     30  C   UNL     1       4.018  -0.344  22.475  0.00  0.00    +0.255 C 
BRANCH  30   6
ATOM      6  O   UNL     1       5.240   0.086  23.037  0.00  0.00    -0.374 OA
ATOM     36  C   UNL     1       5.500  -0.545  24.288  0.00  0.00    +0.194 C 
ENDBRANCH  30   6
ENDBRANCH  28  30
TORSDOF 10
ENDMDL
MODEL 2
REMARK VINA RESULT:      11.4      2.766      4.576
REMARK  Name = 11867064
REMARK  14 active torsions:
REMARK  status: ('A' for Active; 'I' for Inactive)
REMARK    1  A    between atoms: O_2  and  C_16
REMARK    2  A    between atoms: O_3  and  C_21
REMARK    3  A    between atoms: O_6  and  C_30
REMARK    4  A    between atoms: O_6  and  C_36
REMARK    5  A    between atoms: O_7  and  C_35
REMARK    6  A    between atoms: O_7  and  C_37
REMARK    7  A    between atoms: N_9  and  C_27
REMARK    8  A    between atoms: C_11  and  C_19
REMARK    9  A    between atoms: C_13  and  C_21
REMARK   10  A    between atoms: C_13  and  C_22
REMARK   11  A    between atoms: C_14  and  C_24
REMARK   12  A    between atoms: C_24  and  C_25
REMARK   13  A    between atoms: C_27  and  C_29
REMARK   14  A    between atoms: C_28  and  C_30
REMARK                            x       y       z     vdW  Elec       q    Type
REMARK                         _______ _______ _______ _____ _____    ______ ____
ROOT
ATOM      1  S   UNL     1       2.244  -1.769  22.562  0.00  0.00    -0.057 S 
ATOM      5  O   UNL     1       5.564   1.257  23.813  0.00  0.00    -0.273 OA
ATOM      8  N   UNL     1       2.713   0.427  23.846  0.00  0.00    -0.229 NA
ATOM     10  N   UNL     1       4.601  -0.649  22.804  0.00  0.00    -0.263 N 
ATOM     11  C   UNL     1      -1.093   0.801  24.338  0.00  0.00    -0.019 C 
ATOM     12  C   UNL     1      -1.324  -0.775  24.362  0.00  0.00    +0.011 C 
ATOM     13  C   UNL     1      -2.817  -1.279  24.429  0.00  0.00    +0.021 C 
ATOM     14  C   UNL     1       0.435   1.081  24.711  0.00  0.00    +0.054 C 
ATOM     15  C   UNL     1      -1.989   1.470  25.412  0.00  0.00    +0.010 C 
ATOM     16  C   UNL     1      -3.581  -0.475  25.520  0.00  0.00    +0.123 C 
ATOM     17  C   UNL     1      -0.468  -1.491  23.277  0.00  0.00    +0.049 C 
ATOM     18  C   UNL     1      -3.446   1.035  25.358  0.00  0.00    +0.032 C 
ATOM     19  C   UNL     1      -1.412   1.435  22.961  0.00  0.00    +0.012 C 
ATOM     20  C   UNL     1       1.357   0.174  23.937  0.00  0.00    +0.058 A 
ATOM     22  C   UNL     1      -2.830  -2.772  24.860  0.00  0.00    +0.016 C 
ATOM     23  C   UNL     1       0.934  -0.985  23.318  0.00  0.00    +0.015 A 
ATOM     26  C   UNL     1       3.279  -0.526  23.138  0.00  0.00    +0.165 A 
ATOM     28  C   UNL     1       5.646   0.228  23.152  0.00  0.00    +0.244 C 
ATOM     41  H   UNL     1       4.830  -1.468  22.247  0.00  0.00    +0.157 HD
ENDROOT
BRANCH  16   2
ATOM      2  O   UNL     1      -4.967  -0.816  25.517  0.00  0.00    -0.391 OA
ATOM     38  H   UNL     1      -5.471  -0.023  25.268  0.00  0.00    +0.210 HD
ENDBRANCH  16   2
BRANCH  13  21
ATOM     21  C   UNL     1      -3.571  -1.229  23.081  0.00  0.00    +0.165 C 
BRANCH  21   3
ATOM      3  O   UNL     1      -4.537  -2.256  23.089  0.00  0.00    -0.394 OA
ATOM     39  H   UNL     1      -4.090  -3.089  23.316  0.00  0.00    +0.209 HD
ENDBRANCH  21   3
ENDBRANCH  13  21
BRANCH  14  24
ATOM     24  C   UNL     1       0.862   2.550  24.591  0.00  0.00    +0.106 C 
BRANCH  24  25
ATOM      4  O   UNL     1      -0.326   3.411  26.514  0.00  0.00    -0.276 OA
ATOM      9  N   UNL     1      -0.643   4.398  24.435  0.00  0.00    -0.311 N 
ATOM     25  C   UNL     1      -0.087   3.477  25.312  0.00  0.00    +0.214 C 
ATOM     40  H   UNL     1      -0.342   4.415  23.465  0.00  0.00    +0.149 HD
BRANCH   9  27
ATOM     27  C   UNL     1      -1.591   5.409  24.847  0.00  0.00    +0.139 C 
BRANCH  27  29
ATOM     29  C   UNL     1      -2.934   4.821  25.169  0.00  0.00    -0.030 A 
ATOM     31  C   UNL     1      -3.316   4.668  26.496  0.00  0.00    +0.009 A 
ATOM     32  C   UNL     1      -3.781   4.435  24.136  0.00  0.00    +0.009 A 
ATOM     33  C   UNL     1      -4.564   4.121  26.796  0.00  0.00    +0.046 A 
ATOM     34  C   UNL     1      -5.029   3.889  24.436  0.00  0.00    +0.046 A 
ATOM     35  C   UNL     1      -5.420   3.731  25.765  0.00  0.00    +0.120 A 
BRANCH  35   7
ATOM      7  O   UNL     1      -6.638   3.199  26.059  0.00  0.00    -0.495 OA
ATOM     37  C   UNL     1      -6.661   1.855  26.540  0.00  0.00    +0.277 C 
ENDBRANCH  35   7
ENDBRANCH  27  29
ENDBRANCH   9  27
ENDBRANCH  24  25
ENDBRANCH  14  24
BRANCH  28  30
ATOM     30  C   UNL     1       6.975  -0.250  22.595  0.00  0.00    +0.255 C 
BRANCH  30   6
ATOM      6  O   UNL     1       7.977  -0.222  23.589  0.00  0.00    -0.374 OA
ATOM     36  C   UNL     1       9.260   0.066  23.042  0.00  0.00    +0.194 C 
ENDBRANCH  30   6
ENDBRANCH  28  30
TORSDOF 10
ENDMDL
MODEL 3
REMARK VINA RESULT:      13.8      2.989      5.454
REMARK  Name = 11867064
REMARK  14 active torsions:
REMARK  status: ('A' for Active; 'I' for Inactive)
REMARK    1  A    between atoms: O_2  and  C_16
REMARK    2  A    between atoms: O_3  and  C_21
REMARK    3  A    between atoms: O_6  and  C_30
REMARK    4  A    between atoms: O_6  and  C_36
REMARK    5  A    between atoms: O_7  and  C_35
REMARK    6  A    between atoms: O_7  and  C_37
REMARK    7  A    between atoms: N_9  and  C_27
REMARK    8  A    between atoms: C_11  and  C_19
REMARK    9  A    between atoms: C_13  and  C_21
REMARK   10  A    between atoms: C_13  and  C_22
REMARK   11  A    between atoms: C_14  and  C_24
REMARK   12  A    between atoms: C_24  and  C_25
REMARK   13  A    between atoms: C_27  and  C_29
REMARK   14  A    between atoms: C_28  and  C_30
REMARK                            x       y       z     vdW  Elec       q    Type
REMARK                         _______ _______ _______ _____ _____    ______ ____
ROOT
ATOM      1  S   UNL     1      -0.064  -0.140  22.715  0.00  0.00    -0.057 S 
ATOM      5  O   UNL     1       4.153   1.573  23.732  0.00  0.00    -0.273 OA
ATOM      8  N   UNL     1       1.205   1.655  24.079  0.00  0.00    -0.229 NA
ATOM     10  N   UNL     1       2.539   0.173  22.726  0.00  0.00    -0.263 N 
ATOM     11  C   UNL     1      -2.216   3.119  25.089  0.00  0.00    -0.019 C 
ATOM     12  C   UNL     1      -2.930   1.697  25.032  0.00  0.00    +0.011 C 
ATOM     13  C   UNL     1      -4.491   1.669  25.258  0.00  0.00    +0.021 C 
ATOM     14  C   UNL     1      -0.648   2.877  25.278  0.00  0.00    +0.054 C 
ATOM     15  C   UNL     1      -2.740   3.910  26.316  0.00  0.00    +0.010 C 
ATOM     16  C   UNL     1      -4.846   2.545  26.493  0.00  0.00    +0.123 C 
ATOM     17  C   UNL     1      -2.460   0.874  23.797  0.00  0.00    +0.049 C 
ATOM     18  C   UNL     1      -4.257   3.950  26.422  0.00  0.00    +0.032 C 
ATOM     19  C   UNL     1      -2.457   3.965  23.814  0.00  0.00    +0.012 C 
ATOM     20  C   UNL     1      -0.145   1.820  24.329  0.00  0.00    +0.058 A 
ATOM     22  C   UNL     1      -4.931   0.214  25.580  0.00  0.00    +0.016 C 
ATOM     23  C   UNL     1      -0.974   0.921  23.689  0.00  0.00    +0.015 A 
ATOM     26  C   UNL     1       1.365   0.657  23.237  0.00  0.00    +0.165 A 
ATOM     28  C   UNL     1       3.837   0.646  22.995  0.00  0.00    +0.244 C 
ATOM     41  H   UNL     1       2.438  -0.612  22.087  0.00  0.00    +0.157 HD
ENDROOT
BRANCH  16   2
ATOM      2  O   UNL     1      -6.261   2.647  26.647  0.00  0.00    -0.391 OA
ATOM     38  H   UNL     1      -6.511   3.577  26.519  0.00  0.00    +0.210 HD
ENDBRANCH  16   2
BRANCH  13  21
ATOM     21  C   UNL     1      -5.324   2.092  24.026  0.00  0.00    +0.165 C 
BRANCH  21   3
ATOM      3  O   UNL     1      -6.664   1.728  24.267  0.00  0.00    -0.394 OA
ATOM     39  H   UNL     1      -7.038   2.358  24.904  0.00  0.00    +0.209 HD
ENDBRANCH  21   3
ENDBRANCH  13  21
BRANCH  14  24
ATOM     24  C   UNL     1       0.207   4.149  25.207  0.00  0.00    +0.106 C 
BRANCH  24  25
ATOM      4  O   UNL     1      -1.323   5.778  24.282  0.00  0.00    -0.276 OA
ATOM      9  N   UNL     1       0.547   5.140  23.060  0.00  0.00    -0.311 N 
ATOM     25  C   UNL     1      -0.298   5.114  24.161  0.00  0.00    +0.214 C 
ATOM     40  H   UNL     1       1.406   4.598  23.072  0.00  0.00    +0.149 HD
BRANCH   9  27
ATOM     27  C   UNL     1       0.311   5.971  21.902  0.00  0.00    +0.139 C 
BRANCH  27  29
ATOM     29  C   UNL     1       1.414   5.852  20.891  0.00  0.00    -0.030 A 
ATOM     31  C   UNL     1       1.101   5.756  19.540  0.00  0.00    +0.009 A 
ATOM     32  C   UNL     1       2.738   5.837  21.315  0.00  0.00    +0.009 A 
ATOM     33  C   UNL     1       2.125   5.644  18.600  0.00  0.00    +0.046 A 
ATOM     34  C   UNL     1       3.762   5.725  20.375  0.00  0.00    +0.046 A 
ATOM     35  C   UNL     1       3.456   5.628  19.018  0.00  0.00    +0.120 A 
BRANCH  35   7
ATOM      7  O   UNL     1       4.455   5.520  18.100  0.00  0.00    -0.495 OA
ATOM     37  C   UNL     1       4.919   4.204  17.797  0.00  0.00    +0.277 C 
ENDBRANCH  35   7
ENDBRANCH  27  29
ENDBRANCH   9  27
ENDBRANCH  24  25
ENDBRANCH  14  24
BRANCH  28  30
ATOM     30  C   UNL     1       4.882  -0.153  22.237  0.00  0.00    +0.255 C 
BRANCH  30   6
ATOM      6  O   UNL     1       6.043  -0.335  23.020  0.00  0.00    -0.374 OA
ATOM     36  C   UNL     1       5.754  -0.986  24.254  0.00  0.00    +0.194 C 
ENDBRANCH  30   6
ENDBRANCH  28  30
TORSDOF 10
ENDMDL
MODEL 4
REMARK VINA RESULT:      14.7      2.099      3.437
REMARK  Name = 11867064
REMARK  14 active torsions:
REMARK  status: ('A' for Active; 'I' for Inactive)
REMARK    1  A    between atoms: O_2  and  C_16
REMARK    2  A    between atoms: O_3  and  C_21
REMARK    3  A    between atoms: O_6  and  C_30
REMARK    4  A    between atoms: O_6  and  C_36
REMARK    5  A    between atoms: O_7  and  C_35
REMARK    6  A    between atoms: O_7  and  C_37
REMARK    7  A    between atoms: N_9  and  C_27
REMARK    8  A    between atoms: C_11  and  C_19
REMARK    9  A    between atoms: C_13  and  C_21
REMARK   10  A    between atoms: C_13  and  C_22
REMARK   11  A    between atoms: C_14  and  C_24
REMARK   12  A    between atoms: C_24  and  C_25
REMARK   13  A    between atoms: C_27  and  C_29
REMARK   14  A    between atoms: C_28  and  C_30
REMARK                            x       y       z     vdW  Elec       q    Type
REMARK                         _______ _______ _______ _____ _____    ______ ____
ROOT
ATOM      1  S   UNL     1       0.411   2.947  23.992  0.00  0.00    -0.057 S 
ATOM      5  O   UNL     1       2.874  -0.779  22.651  0.00  0.00    -0.273 OA
ATOM      8  N   UNL     1       0.274   0.424  23.437  0.00  0.00    -0.229 NA
ATOM     10  N   UNL     1       2.442   1.463  23.254  0.00  0.00    -0.263 N 
ATOM     11  C   UNL     1      -3.403   0.499  24.594  0.00  0.00    -0.019 C 
ATOM     12  C   UNL     1      -3.598   2.012  24.137  0.00  0.00    +0.011 C 
ATOM     13  C   UNL     1      -4.978   2.693  24.483  0.00  0.00    +0.021 C 
ATOM     14  C   UNL     1      -2.168  -0.106  23.781  0.00  0.00    +0.054 C 
ATOM     15  C   UNL     1      -4.672  -0.316  24.234  0.00  0.00    +0.010 C 
ATOM     16  C   UNL     1      -6.135   1.727  24.103  0.00  0.00    +0.123 C 
ATOM     17  C   UNL     1      -2.360   2.882  24.505  0.00  0.00    +0.049 C 
ATOM     18  C   UNL     1      -5.971   0.330  24.693  0.00  0.00    +0.032 C 
ATOM     19  C   UNL     1      -3.138   0.360  26.114  0.00  0.00    +0.012 C 
ATOM     20  C   UNL     1      -0.995   0.840  23.793  0.00  0.00    +0.058 A 
ATOM     22  C   UNL     1      -5.142   3.975  23.619  0.00  0.00    +0.016 C 
ATOM     23  C   UNL     1      -1.107   2.180  24.103  0.00  0.00    +0.015 A 
ATOM     26  C   UNL     1       1.097   1.448  23.513  0.00  0.00    +0.165 A 
ATOM     28  C   UNL     1       3.236   0.375  22.847  0.00  0.00    +0.244 C 
ATOM     41  H   UNL     1       2.892   2.367  23.374  0.00  0.00    +0.157 HD
ENDROOT
BRANCH  16   2
ATOM      2  O   UNL     1      -7.392   2.258  24.522  0.00  0.00    -0.391 OA
ATOM     38  H   UNL     1      -7.270   2.665  25.396  0.00  0.00    +0.210 HD
ENDBRANCH  16   2
BRANCH  13  21
ATOM     21  C   UNL     1      -5.111   3.161  25.949  0.00  0.00    +0.165 C 
BRANCH  21   3
ATOM      3  O   UNL     1      -6.123   4.142  25.998  0.00  0.00    -0.394 OA
ATOM     39  H   UNL     1      -6.958   3.703  26.228  0.00  0.00    +0.209 HD
ENDBRANCH  21   3
ENDBRANCH  13  21
BRANCH  14  24
ATOM     24  C   UNL     1      -1.753  -1.520  24.210  0.00  0.00    +0.106 C 
BRANCH  24  25
ATOM      4  O   UNL     1      -2.158  -2.547  26.363  0.00  0.00    -0.276 OA
ATOM      9  N   UNL     1      -0.877  -0.612  26.239  0.00  0.00    -0.311 N 
ATOM     25  C   UNL     1      -1.638  -1.645  25.711  0.00  0.00    +0.214 C 
ATOM     40  H   UNL     1      -0.438   0.058  25.615  0.00  0.00    +0.149 HD
BRANCH   9  27
ATOM     27  C   UNL     1      -0.602  -0.475  27.650  0.00  0.00    +0.139 C 
BRANCH  27  29
ATOM     29  C   UNL     1       0.202   0.757  27.949  0.00  0.00    -0.030 A 
ATOM     31  C   UNL     1       0.923   0.837  29.135  0.00  0.00    +0.009 A 
ATOM     32  C   UNL     1       0.216   1.806  27.037  0.00  0.00    +0.009 A 
ATOM     33  C   UNL     1       1.669   1.982  29.413  0.00  0.00    +0.046 A 
ATOM     34  C   UNL     1       0.963   2.951  27.316  0.00  0.00    +0.046 A 
ATOM     35  C   UNL     1       1.689   3.040  28.503  0.00  0.00    +0.120 A 
BRANCH  35   7
ATOM      7  O   UNL     1       2.417   4.156  28.775  0.00  0.00    -0.495 OA
ATOM     37  C   UNL     1       3.736   3.963  29.286  0.00  0.00    +0.277 C 
ENDBRANCH  35   7
ENDBRANCH  27  29
ENDBRANCH   9  27
ENDBRANCH  24  25
ENDBRANCH  14  24
BRANCH  28  30
ATOM     30  C   UNL     1       4.684   0.791  22.659  0.00  0.00    +0.255 C 
BRANCH  30   6
ATOM      6  O   UNL     1       5.377   0.774  23.889  0.00  0.00    -0.374 OA
ATOM     36  C   UNL     1       5.686  -0.553  24.306  0.00  0.00    +0.194 C 
ENDBRANCH  30   6
ENDBRANCH  28  30
TORSDOF 10
ENDMDL
