MODEL 1
REMARK VINA RESULT:      -4.8      0.000      0.000
REMARK  Name = 11911997
REMARK  5 active torsions:
REMARK  status: ('A' for Active; 'I' for Inactive)
REMARK    1  A    between atoms: O_3  and  C_10
REMARK    2  A    between atoms: O_3  and  C_13
REMARK    3  A    between atoms: N_4  and  C_9
REMARK    4  A    between atoms: C_13  and  C_15
REMARK    5  A    between atoms: C_16  and  C_21
REMARK                            x       y       z     vdW  Elec       q    Type
REMARK                         _______ _______ _______ _____ _____    ______ ____
ROOT
ATOM      1  O   UNL     1      -2.100  -1.872  23.725  0.00  0.00    -0.369 OA
ATOM      2  O   UNL     1      -0.924  -1.010  26.422  0.00  0.00    -0.369 OA
ATOM      7  C   UNL     1      -2.079  -0.547  25.691  0.00  0.00    +0.172 C 
ATOM      8  C   UNL     1      -1.711  -0.580  24.221  0.00  0.00    +0.180 C 
ATOM      9  C   UNL     1      -3.202  -1.551  25.807  0.00  0.00    +0.130 C 
ATOM     10  C   UNL     1      -0.209  -0.424  24.257  0.00  0.00    +0.175 C 
ATOM     11  C   UNL     1      -2.833  -2.570  24.743  0.00  0.00    +0.185 C 
ATOM     12  C   UNL     1       0.162  -1.197  25.503  0.00  0.00    +0.194 C 
ENDROOT
BRANCH   9   4
ATOM      4  N   UNL     1      -4.480  -0.940  25.529  0.00  0.00    -0.306 N 
ATOM      5  N   UNL     1      -3.515   1.165  25.150  0.00  0.00    -0.214 NA
ATOM      6  N   UNL     1      -5.896   0.844  24.965  0.00  0.00    -0.223 NA
ATOM     14  C   UNL     1      -4.635   0.397  25.204  0.00  0.00    +0.216 A 
ATOM     16  C   UNL     1      -3.703   2.463  24.832  0.00  0.00    +0.076 A 
ATOM     19  C   UNL     1      -6.011   2.151  24.651  0.00  0.00    +0.116 A 
ATOM     20  C   UNL     1      -4.939   3.016  24.570  0.00  0.00    +0.048 A 
ATOM     30  H   UNL     1      -5.314  -1.515  25.516  0.00  0.00    +0.149 HD
BRANCH  16  21
ATOM     21  C   UNL     1      -2.502   3.261  24.779  0.00  0.00    +0.001 A 
ATOM     25  C   UNL     1      -1.330   2.728  24.236  0.00  0.00    +0.010 A 
ATOM     26  C   UNL     1      -2.506   4.568  25.270  0.00  0.00    +0.010 A 
ATOM     27  C   UNL     1      -0.169   3.500  24.184  0.00  0.00    +0.001 A 
ATOM     28  C   UNL     1      -1.344   5.340  25.218  0.00  0.00    +0.001 A 
ATOM     29  C   UNL     1      -0.176   4.805  24.675  0.00  0.00    +0.000 A 
ENDBRANCH  16  21
ENDBRANCH   9   4
BRANCH  10   3
ATOM      3  O   UNL     1       0.437  -0.927  23.109  0.00  0.00    -0.367 OA
BRANCH   3  13
ATOM     13  C   UNL     1       1.225   0.069  22.462  0.00  0.00    +0.195 C 
BRANCH  13  15
ATOM     15  C   UNL     1       2.654  -0.079  22.896  0.00  0.00    -0.022 A 
ATOM     17  C   UNL     1       3.088  -1.285  23.435  0.00  0.00    +0.006 A 
ATOM     18  C   UNL     1       3.531   0.991  22.755  0.00  0.00    +0.006 A 
ATOM     22  C   UNL     1       4.416  -1.423  23.838  0.00  0.00    +0.000 A 
ATOM     23  C   UNL     1       4.859   0.852  23.158  0.00  0.00    +0.000 A 
ATOM     24  C   UNL     1       5.302  -0.354  23.699  0.00  0.00    +0.000 A 
ENDBRANCH  13  15
ENDBRANCH   3  13
ENDBRANCH  10   3
TORSDOF 5
ENDMDL
MODEL 2
REMARK VINA RESULT:      -4.5      1.610      4.013
REMARK  Name = 11911997
REMARK  5 active torsions:
REMARK  status: ('A' for Active; 'I' for Inactive)
REMARK    1  A    between atoms: O_3  and  C_10
REMARK    2  A    between atoms: O_3  and  C_13
REMARK    3  A    between atoms: N_4  and  C_9
REMARK    4  A    between atoms: C_13  and  C_15
REMARK    5  A    between atoms: C_16  and  C_21
REMARK                            x       y       z     vdW  Elec       q    Type
REMARK                         _______ _______ _______ _____ _____    ______ ____
ROOT
ATOM      1  O   UNL     1      -1.229   1.710  25.625  0.00  0.00    -0.369 OA
ATOM      2  O   UNL     1       0.094   3.942  23.990  0.00  0.00    -0.369 OA
ATOM      7  C   UNL     1      -1.291   3.579  24.167  0.00  0.00    +0.172 C 
ATOM      8  C   UNL     1      -1.344   2.066  24.237  0.00  0.00    +0.180 C 
ATOM      9  C   UNL     1      -1.774   4.023  25.528  0.00  0.00    +0.130 C 
ATOM     10  C   UNL     1      -0.120   1.660  23.452  0.00  0.00    +0.175 C 
ATOM     11  C   UNL     1      -1.279   2.902  26.426  0.00  0.00    +0.185 C 
ATOM     12  C   UNL     1       0.868   2.745  23.818  0.00  0.00    +0.194 C 
ENDROOT
BRANCH   9   4
ATOM      4  N   UNL     1      -3.213   4.129  25.565  0.00  0.00    -0.306 N 
ATOM      5  N   UNL     1      -3.501   1.826  25.222  0.00  0.00    -0.214 NA
ATOM      6  N   UNL     1      -5.401   3.287  25.470  0.00  0.00    -0.223 NA
ATOM     14  C   UNL     1      -4.063   3.048  25.415  0.00  0.00    +0.216 A 
ATOM     16  C   UNL     1      -4.360   0.795  25.079  0.00  0.00    +0.076 A 
ATOM     19  C   UNL     1      -6.201   2.211  25.320  0.00  0.00    +0.116 A 
ATOM     20  C   UNL     1      -5.732   0.929  25.120  0.00  0.00    +0.048 A 
ATOM     30  H   UNL     1      -3.640   5.027  25.759  0.00  0.00    +0.149 HD
BRANCH  16  21
ATOM     21  C   UNL     1      -3.742  -0.494  24.876  0.00  0.00    +0.001 A 
ATOM     25  C   UNL     1      -2.535  -0.800  25.509  0.00  0.00    +0.010 A 
ATOM     26  C   UNL     1      -4.348  -1.439  24.046  0.00  0.00    +0.010 A 
ATOM     27  C   UNL     1      -1.938  -2.045  25.314  0.00  0.00    +0.001 A 
ATOM     28  C   UNL     1      -3.751  -2.685  23.851  0.00  0.00    +0.001 A 
ATOM     29  C   UNL     1      -2.546  -2.987  24.485  0.00  0.00    +0.000 A 
ENDBRANCH  16  21
ENDBRANCH   9   4
BRANCH  10   3
ATOM      3  O   UNL     1       0.359   0.376  23.781  0.00  0.00    -0.367 OA
BRANCH   3  13
ATOM     13  C   UNL     1       1.062  -0.225  22.695  0.00  0.00    +0.195 C 
BRANCH  13  15
ATOM     15  C   UNL     1       2.531  -0.210  22.995  0.00  0.00    -0.022 A 
ATOM     17  C   UNL     1       3.124  -1.319  23.590  0.00  0.00    +0.006 A 
ATOM     18  C   UNL     1       3.288   0.911  22.673  0.00  0.00    +0.006 A 
ATOM     22  C   UNL     1       4.491  -1.305  23.869  0.00  0.00    +0.000 A 
ATOM     23  C   UNL     1       4.656   0.923  22.953  0.00  0.00    +0.000 A 
ATOM     24  C   UNL     1       5.257  -0.184  23.549  0.00  0.00    +0.000 A 
ENDBRANCH  13  15
ENDBRANCH   3  13
ENDBRANCH  10   3
TORSDOF 5
ENDMDL
MODEL 3
REMARK VINA RESULT:      -3.6      2.300      5.888
REMARK  Name = 11911997
REMARK  5 active torsions:
REMARK  status: ('A' for Active; 'I' for Inactive)
REMARK    1  A    between atoms: O_3  and  C_10
REMARK    2  A    between atoms: O_3  and  C_13
REMARK    3  A    between atoms: N_4  and  C_9
REMARK    4  A    between atoms: C_13  and  C_15
REMARK    5  A    between atoms: C_16  and  C_21
REMARK                            x       y       z     vdW  Elec       q    Type
REMARK                         _______ _______ _______ _____ _____    ______ ____
ROOT
ATOM      1  O   UNL     1      -2.264  -0.281  24.837  0.00  0.00    -0.369 OA
ATOM      2  O   UNL     1      -2.768  -3.291  25.142  0.00  0.00    -0.369 OA
ATOM      7  C   UNL     1      -1.842  -2.555  24.314  0.00  0.00    +0.172 C 
ATOM      8  C   UNL     1      -2.558  -1.297  23.865  0.00  0.00    +0.180 C 
ATOM      9  C   UNL     1      -0.695  -2.040  25.151  0.00  0.00    +0.130 C 
ATOM     10  C   UNL     1      -4.009  -1.713  23.912  0.00  0.00    +0.175 C 
ATOM     11  C   UNL     1      -1.282  -0.778  25.761  0.00  0.00    +0.185 C 
ATOM     12  C   UNL     1      -4.040  -2.627  25.117  0.00  0.00    +0.194 C 
ENDROOT
BRANCH   9   4
ATOM      4  N   UNL     1       0.456  -1.742  24.333  0.00  0.00    -0.306 N 
ATOM      5  N   UNL     1       0.114   0.573  24.501  0.00  0.00    -0.214 NA
ATOM      6  N   UNL     1       1.961  -0.316  23.234  0.00  0.00    -0.223 NA
ATOM     14  C   UNL     1       0.856  -0.456  24.014  0.00  0.00    +0.216 A 
ATOM     16  C   UNL     1       0.531   1.813  24.169  0.00  0.00    +0.076 A 
ATOM     19  C   UNL     1       2.322   0.951  22.942  0.00  0.00    +0.116 A 
ATOM     20  C   UNL     1       1.638   2.064  23.385  0.00  0.00    +0.048 A 
ATOM     30  H   UNL     1       1.045  -2.500  24.008  0.00  0.00    +0.149 HD
BRANCH  16  21
ATOM     21  C   UNL     1      -0.270   2.891  24.697  0.00  0.00    +0.001 A 
ATOM     25  C   UNL     1      -1.079   2.680  25.817  0.00  0.00    +0.010 A 
ATOM     26  C   UNL     1      -0.240   4.149  24.091  0.00  0.00    +0.010 A 
ATOM     27  C   UNL     1      -1.852   3.722  26.328  0.00  0.00    +0.001 A 
ATOM     28  C   UNL     1      -1.014   5.191  24.603  0.00  0.00    +0.001 A 
ATOM     29  C   UNL     1      -1.820   4.977  25.721  0.00  0.00    +0.000 A 
ENDBRANCH  16  21
ENDBRANCH   9   4
BRANCH  10   3
ATOM      3  O   UNL     1      -4.901  -0.630  24.045  0.00  0.00    -0.367 OA
BRANCH   3  13
ATOM     13  C   UNL     1      -4.690   0.088  25.259  0.00  0.00    +0.195 C 
BRANCH  13  15
ATOM     15  C   UNL     1      -4.739   1.560  24.973  0.00  0.00    -0.022 A 
ATOM     17  C   UNL     1      -4.080   2.066  23.857  0.00  0.00    +0.006 A 
ATOM     18  C   UNL     1      -5.442   2.404  25.824  0.00  0.00    +0.006 A 
ATOM     22  C   UNL     1      -4.126   3.434  23.590  0.00  0.00    +0.000 A 
ATOM     23  C   UNL     1      -5.487   3.773  25.556  0.00  0.00    +0.000 A 
ATOM     24  C   UNL     1      -4.829   4.288  24.440  0.00  0.00    +0.000 A 
ENDBRANCH  13  15
ENDBRANCH   3  13
ENDBRANCH  10   3
TORSDOF 5
ENDMDL
MODEL 4
REMARK VINA RESULT:      -3.5      1.099      1.817
REMARK  Name = 11911997
REMARK  5 active torsions:
REMARK  status: ('A' for Active; 'I' for Inactive)
REMARK    1  A    between atoms: O_3  and  C_10
REMARK    2  A    between atoms: O_3  and  C_13
REMARK    3  A    between atoms: N_4  and  C_9
REMARK    4  A    between atoms: C_13  and  C_15
REMARK    5  A    between atoms: C_16  and  C_21
REMARK                            x       y       z     vdW  Elec       q    Type
REMARK                         _______ _______ _______ _____ _____    ______ ____
ROOT
ATOM      1  O   UNL     1      -2.195   0.465  23.733  0.00  0.00    -0.369 OA
ATOM      2  O   UNL     1      -2.147  -2.561  24.229  0.00  0.00    -0.369 OA
ATOM      7  C   UNL     1      -2.912  -1.502  24.844  0.00  0.00    +0.172 C 
ATOM      8  C   UNL     1      -1.999  -0.296  24.936  0.00  0.00    +0.180 C 
ATOM      9  C   UNL     1      -4.016  -1.053  23.916  0.00  0.00    +0.130 C 
ATOM     10  C   UNL     1      -0.628  -0.928  24.982  0.00  0.00    +0.175 C 
ATOM     11  C   UNL     1      -3.286  -0.098  22.987  0.00  0.00    +0.185 C 
ATOM     12  C   UNL     1      -0.794  -2.116  24.061  0.00  0.00    +0.194 C 
ENDROOT
BRANCH   9   4
ATOM      4  N   UNL     1      -5.067  -0.380  24.640  0.00  0.00    -0.306 N 
ATOM      5  N   UNL     1      -3.826   1.603  24.818  0.00  0.00    -0.214 NA
ATOM      6  N   UNL     1      -6.041   1.441  25.754  0.00  0.00    -0.223 NA
ATOM     14  C   UNL     1      -4.975   0.928  25.084  0.00  0.00    +0.216 A 
ATOM     16  C   UNL     1      -3.770   2.875  25.266  0.00  0.00    +0.076 A 
ATOM     19  C   UNL     1      -5.917   2.718  26.172  0.00  0.00    +0.116 A 
ATOM     20  C   UNL     1      -4.795   3.490  25.955  0.00  0.00    +0.048 A 
ATOM     30  H   UNL     1      -5.947  -0.858  24.798  0.00  0.00    +0.149 HD
BRANCH  16  21
ATOM     21  C   UNL     1      -2.542   3.575  24.973  0.00  0.00    +0.001 A 
ATOM     25  C   UNL     1      -2.421   4.934  25.272  0.00  0.00    +0.010 A 
ATOM     26  C   UNL     1      -1.471   2.895  24.387  0.00  0.00    +0.010 A 
ATOM     27  C   UNL     1      -1.234   5.610  24.990  0.00  0.00    +0.001 A 
ATOM     28  C   UNL     1      -0.284   3.572  24.105  0.00  0.00    +0.001 A 
ATOM     29  C   UNL     1      -0.166   4.929  24.406  0.00  0.00    +0.000 A 
ENDBRANCH  16  21
ENDBRANCH   9   4
BRANCH  10   3
ATOM      3  O   UNL     1       0.403  -0.066  24.555  0.00  0.00    -0.367 OA
BRANCH   3  13
ATOM     13  C   UNL     1       0.910  -0.435  23.275  0.00  0.00    +0.195 C 
BRANCH  13  15
ATOM     15  C   UNL     1       2.399  -0.254  23.267  0.00  0.00    -0.022 A 
ATOM     17  C   UNL     1       2.945   0.933  22.790  0.00  0.00    +0.006 A 
ATOM     18  C   UNL     1       3.220  -1.273  23.737  0.00  0.00    +0.006 A 
ATOM     22  C   UNL     1       4.330   1.102  22.783  0.00  0.00    +0.000 A 
ATOM     23  C   UNL     1       4.605  -1.103  23.729  0.00  0.00    +0.000 A 
ATOM     24  C   UNL     1       5.160   0.084  23.253  0.00  0.00    +0.000 A 
ENDBRANCH  13  15
ENDBRANCH   3  13
ENDBRANCH  10   3
TORSDOF 5
ENDMDL
MODEL 5
REMARK VINA RESULT:      -2.8     14.220     16.513
REMARK  Name = 11911997
REMARK  5 active torsions:
REMARK  status: ('A' for Active; 'I' for Inactive)
REMARK    1  A    between atoms: O_3  and  C_10
REMARK    2  A    between atoms: O_3  and  C_13
REMARK    3  A    between atoms: N_4  and  C_9
REMARK    4  A    between atoms: C_13  and  C_15
REMARK    5  A    between atoms: C_16  and  C_21
REMARK                            x       y       z     vdW  Elec       q    Type
REMARK                         _______ _______ _______ _____ _____    ______ ____
ROOT
ATOM      1  O   UNL     1      -7.142 -10.377  15.182  0.00  0.00    -0.369 OA
ATOM      2  O   UNL     1      -4.855 -10.200  17.218  0.00  0.00    -0.369 OA
ATOM      7  C   UNL     1      -5.915  -9.278  16.888  0.00  0.00    +0.172 C 
ATOM      8  C   UNL     1      -6.132  -9.375  15.391  0.00  0.00    +0.180 C 
ATOM      9  C   UNL     1      -7.222  -9.758  17.476  0.00  0.00    +0.130 C 
ATOM     10  C   UNL     1      -4.781  -9.830  14.894  0.00  0.00    +0.175 C 
ATOM     11  C   UNL     1      -7.680 -10.781  16.451  0.00  0.00    +0.185 C 
ATOM     12  C   UNL     1      -4.328 -10.753  16.003  0.00  0.00    +0.194 C 
ENDROOT
BRANCH   9   4
ATOM      4  N   UNL     1      -8.169  -8.676  17.598  0.00  0.00    -0.306 N 
ATOM      5  N   UNL     1      -8.943  -8.960  15.401  0.00  0.00    -0.214 NA
ATOM      6  N   UNL     1      -9.863  -7.248  16.826  0.00  0.00    -0.223 NA
ATOM     14  C   UNL     1      -9.018  -8.283  16.578  0.00  0.00    +0.216 A 
ATOM     16  C   UNL     1      -9.784  -8.550  14.429  0.00  0.00    +0.076 A 
ATOM     19  C   UNL     1     -10.676  -6.891  15.810  0.00  0.00    +0.116 A 
ATOM     20  C   UNL     1     -10.680  -7.512  14.578  0.00  0.00    +0.048 A 
ATOM     30  H   UNL     1      -8.268  -8.199  18.487  0.00  0.00    +0.149 HD
BRANCH  16  21
ATOM     21  C   UNL     1      -9.690  -9.283  13.188  0.00  0.00    +0.001 A 
ATOM     25  C   UNL     1     -10.720  -9.203  12.248  0.00  0.00    +0.010 A 
ATOM     26  C   UNL     1      -8.570 -10.074  12.925  0.00  0.00    +0.010 A 
ATOM     27  C   UNL     1     -10.628  -9.910  11.048  0.00  0.00    +0.001 A 
ATOM     28  C   UNL     1      -8.479 -10.781  11.726  0.00  0.00    +0.001 A 
ATOM     29  C   UNL     1      -9.508 -10.699  10.788  0.00  0.00    +0.000 A 
ENDBRANCH  16  21
ENDBRANCH   9   4
BRANCH  10   3
ATOM      3  O   UNL     1      -4.831 -10.485  13.647  0.00  0.00    -0.367 OA
BRANCH   3  13
ATOM     13  C   UNL     1      -3.900  -9.934  12.718  0.00  0.00    +0.195 C 
BRANCH  13  15
ATOM     15  C   UNL     1      -4.587  -9.728  11.400  0.00  0.00    -0.022 A 
ATOM     17  C   UNL     1      -5.354  -8.586  11.194  0.00  0.00    +0.006 A 
ATOM     18  C   UNL     1      -4.451 -10.680  10.396  0.00  0.00    +0.006 A 
ATOM     22  C   UNL     1      -5.992  -8.394   9.969  0.00  0.00    +0.000 A 
ATOM     23  C   UNL     1      -5.090 -10.487   9.171  0.00  0.00    +0.000 A 
ATOM     24  C   UNL     1      -5.860  -9.345   8.957  0.00  0.00    +0.000 A 
ENDBRANCH  13  15
ENDBRANCH   3  13
ENDBRANCH  10   3
TORSDOF 5
ENDMDL
