MODEL 1
REMARK VINA RESULT:      -1.9      0.000      0.000
REMARK  Name = 51137072
REMARK  3 active torsions:
REMARK  status: ('A' for Active; 'I' for Inactive)
REMARK    1  A    between atoms: N_3  and  C_9
REMARK    2  A    between atoms: C_5  and  C_10
REMARK    3  A    between atoms: C_9  and  C_11
REMARK                            x       y       z     vdW  Elec       q    Type
REMARK                         _______ _______ _______ _____ _____    ______ ____
ROOT
ATOM      3  N   UNL     1       0.514  -0.670  23.698  0.00  0.00    -0.297 NA
ATOM      5  C   UNL     1      -1.211  -0.010  25.144  0.00  0.00    +0.060 C 
ATOM      6  C   UNL     1      -1.437  -1.468  24.705  0.00  0.00    +0.027 C 
ATOM      7  C   UNL     1      -0.178   0.539  24.151  0.00  0.00    +0.095 C 
ATOM      8  C   UNL     1      -0.548  -1.653  23.482  0.00  0.00    +0.085 C 
ENDROOT
BRANCH   5  10
ATOM      2  S   UNL     1      -3.989   0.066  25.120  0.00  0.00    -0.072 S 
ATOM      4  N   UNL     1      -2.471   2.139  25.348  0.00  0.00    -0.244 NA
ATOM     10  C   UNL     1      -2.463   0.832  25.216  0.00  0.00    +0.084 A 
ATOM     12  C   UNL     1      -4.759   1.602  25.267  0.00  0.00    +0.039 A 
ATOM     13  C   UNL     1      -3.780   2.595  25.379  0.00  0.00    +0.078 A 
ATOM     16  C   UNL     1      -6.129   1.908  25.282  0.00  0.00    +0.017 A 
ATOM     17  C   UNL     1      -4.191   3.939  25.510  0.00  0.00    +0.029 A 
ATOM     20  C   UNL     1      -6.508   3.245  25.413  0.00  0.00    +0.001 A 
ATOM     21  C   UNL     1      -5.554   4.250  25.526  0.00  0.00    +0.002 A 
ENDBRANCH   5  10
BRANCH   3   9
ATOM      9  C   UNL     1       1.308  -0.440  22.500  0.00  0.00    +0.119 C 
BRANCH   9  11
ATOM      1 CL   UNL     1       5.909  -1.916  24.453  0.00  0.00    -0.084 Cl
ATOM     11  C   UNL     1       2.736  -0.097  22.833  0.00  0.00    -0.032 A 
ATOM     14  C   UNL     1       3.564  -1.053  23.420  0.00  0.00    +0.025 A 
ATOM     15  C   UNL     1       3.232   1.177  22.553  0.00  0.00    +0.005 A 
ATOM     18  C   UNL     1       4.888  -0.736  23.727  0.00  0.00    +0.041 A 
ATOM     19  C   UNL     1       4.555   1.494  22.861  0.00  0.00    +0.002 A 
ATOM     22  C   UNL     1       5.383   0.538  23.448  0.00  0.00    +0.020 A 
ENDBRANCH   9  11
ENDBRANCH   3   9
TORSDOF 3
ENDMDL
MODEL 2
REMARK VINA RESULT:      -1.6      2.644      7.694
REMARK  Name = 51137072
REMARK  3 active torsions:
REMARK  status: ('A' for Active; 'I' for Inactive)
REMARK    1  A    between atoms: N_3  and  C_9
REMARK    2  A    between atoms: C_5  and  C_10
REMARK    3  A    between atoms: C_9  and  C_11
REMARK                            x       y       z     vdW  Elec       q    Type
REMARK                         _______ _______ _______ _____ _____    ______ ____
ROOT
ATOM      3  N   UNL     1      -3.236  -0.917  24.520  0.00  0.00    -0.297 NA
ATOM      5  C   UNL     1      -0.958  -1.469  24.438  0.00  0.00    +0.060 C 
ATOM      6  C   UNL     1      -1.366  -1.182  25.893  0.00  0.00    +0.027 C 
ATOM      7  C   UNL     1      -2.102  -0.892  23.593  0.00  0.00    +0.095 C 
ATOM      8  C   UNL     1      -2.693  -0.441  25.792  0.00  0.00    +0.085 C 
ENDROOT
BRANCH   5  10
ATOM      2  S   UNL     1       0.500   0.628  23.341  0.00  0.00    -0.072 S 
ATOM      4  N   UNL     1       1.527  -1.580  24.191  0.00  0.00    -0.244 NA
ATOM     10  C   UNL     1       0.396  -0.930  24.040  0.00  0.00    +0.084 A 
ATOM     12  C   UNL     1       2.211   0.447  23.216  0.00  0.00    +0.039 A 
ATOM     13  C   UNL     1       2.576  -0.804  23.723  0.00  0.00    +0.078 A 
ATOM     16  C   UNL     1       3.161   1.347  22.706  0.00  0.00    +0.017 A 
ATOM     17  C   UNL     1       3.941  -1.164  23.718  0.00  0.00    +0.029 A 
ATOM     20  C   UNL     1       4.504   0.966  22.713  0.00  0.00    +0.001 A 
ATOM     21  C   UNL     1       4.893  -0.273  23.212  0.00  0.00    +0.002 A 
ENDBRANCH   5  10
BRANCH   3   9
ATOM      9  C   UNL     1      -4.351  -0.104  24.054  0.00  0.00    +0.119 C 
BRANCH   9  11
ATOM      1 CL   UNL     1      -1.746   4.302  25.034  0.00  0.00    -0.084 Cl
ATOM     11  C   UNL     1      -4.332   1.273  24.663  0.00  0.00    -0.032 A 
ATOM     14  C   UNL     1      -3.183   2.057  24.577  0.00  0.00    +0.025 A 
ATOM     15  C   UNL     1      -5.465   1.764  25.312  0.00  0.00    +0.005 A 
ATOM     18  C   UNL     1      -3.165   3.334  25.139  0.00  0.00    +0.041 A 
ATOM     19  C   UNL     1      -5.447   3.041  25.875  0.00  0.00    +0.002 A 
ATOM     22  C   UNL     1      -4.298   3.826  25.789  0.00  0.00    +0.020 A 
ENDBRANCH   9  11
ENDBRANCH   3   9
TORSDOF 3
ENDMDL
MODEL 3
REMARK VINA RESULT:      -1.4      3.956      6.497
REMARK  Name = 51137072
REMARK  3 active torsions:
REMARK  status: ('A' for Active; 'I' for Inactive)
REMARK    1  A    between atoms: N_3  and  C_9
REMARK    2  A    between atoms: C_5  and  C_10
REMARK    3  A    between atoms: C_9  and  C_11
REMARK                            x       y       z     vdW  Elec       q    Type
REMARK                         _______ _______ _______ _____ _____    ______ ____
ROOT
ATOM      3  N   UNL     1      -5.022   3.936  25.369  0.00  0.00    -0.297 NA
ATOM      5  C   UNL     1      -5.163   1.739  24.559  0.00  0.00    +0.060 C 
ATOM      6  C   UNL     1      -6.014   1.873  25.834  0.00  0.00    +0.027 C 
ATOM      7  C   UNL     1      -4.259   2.979  24.563  0.00  0.00    +0.095 C 
ATOM      8  C   UNL     1      -5.530   3.156  26.497  0.00  0.00    +0.085 C 
ENDROOT
BRANCH   5  10
ATOM      2  S   UNL     1      -2.696   0.466  24.697  0.00  0.00    -0.072 S 
ATOM      4  N   UNL     1      -4.924  -0.717  24.160  0.00  0.00    -0.244 NA
ATOM     10  C   UNL     1      -4.388   0.447  24.446  0.00  0.00    +0.084 A 
ATOM     12  C   UNL     1      -2.643  -1.233  24.405  0.00  0.00    +0.039 A 
ATOM     13  C   UNL     1      -3.937  -1.690  24.133  0.00  0.00    +0.078 A 
ATOM     16  C   UNL     1      -1.538  -2.098  24.415  0.00  0.00    +0.017 A 
ATOM     17  C   UNL     1      -4.126  -3.062  23.862  0.00  0.00    +0.029 A 
ATOM     20  C   UNL     1      -1.753  -3.451  24.144  0.00  0.00    +0.001 A 
ATOM     21  C   UNL     1      -3.030  -3.930  23.871  0.00  0.00    +0.002 A 
ENDBRANCH   5  10
BRANCH   3   9
ATOM      9  C   UNL     1      -4.215   5.069  25.797  0.00  0.00    +0.119 C 
BRANCH   9  11
ATOM      1 CL   UNL     1       0.014   2.107  26.506  0.00  0.00    -0.084 Cl
ATOM     11  C   UNL     1      -2.748   4.837  25.547  0.00  0.00    -0.032 A 
ATOM     14  C   UNL     1      -2.120   3.712  26.080  0.00  0.00    +0.025 A 
ATOM     15  C   UNL     1      -2.017   5.748  24.784  0.00  0.00    +0.005 A 
ATOM     18  C   UNL     1      -0.761   3.496  25.848  0.00  0.00    +0.041 A 
ATOM     19  C   UNL     1      -0.659   5.532  24.552  0.00  0.00    +0.002 A 
ATOM     22  C   UNL     1      -0.031   4.406  25.084  0.00  0.00    +0.020 A 
ENDBRANCH   9  11
ENDBRANCH   3   9
TORSDOF 3
ENDMDL
MODEL 4
REMARK VINA RESULT:      -1.3      3.662      6.517
REMARK  Name = 51137072
REMARK  3 active torsions:
REMARK  status: ('A' for Active; 'I' for Inactive)
REMARK    1  A    between atoms: N_3  and  C_9
REMARK    2  A    between atoms: C_5  and  C_10
REMARK    3  A    between atoms: C_9  and  C_11
REMARK                            x       y       z     vdW  Elec       q    Type
REMARK                         _______ _______ _______ _____ _____    ______ ____
ROOT
ATOM      3  N   UNL     1      -5.221   3.502  25.032  0.00  0.00    -0.297 NA
ATOM      5  C   UNL     1      -4.918   1.233  24.520  0.00  0.00    +0.060 C 
ATOM      6  C   UNL     1      -5.803   1.364  25.771  0.00  0.00    +0.027 C 
ATOM      7  C   UNL     1      -4.272   2.616  24.355  0.00  0.00    +0.095 C 
ATOM      8  C   UNL     1      -5.590   2.792  26.257  0.00  0.00    +0.085 C 
ENDROOT
BRANCH   5  10
ATOM      2  S   UNL     1      -4.339  -1.431  23.981  0.00  0.00    -0.072 S 
ATOM      4  N   UNL     1      -2.689   0.236  25.052  0.00  0.00    -0.244 NA
ATOM     10  C   UNL     1      -3.905   0.114  24.573  0.00  0.00    +0.084 A 
ATOM     12  C   UNL     1      -2.770  -2.018  24.388  0.00  0.00    +0.039 A 
ATOM     13  C   UNL     1      -2.025  -0.978  24.953  0.00  0.00    +0.078 A 
ATOM     16  C   UNL     1      -2.236  -3.306  24.221  0.00  0.00    +0.017 A 
ATOM     17  C   UNL     1      -0.701  -1.239  25.363  0.00  0.00    +0.029 A 
ATOM     20  C   UNL     1      -0.923  -3.537  24.635  0.00  0.00    +0.001 A 
ATOM     21  C   UNL     1      -0.162  -2.519  25.199  0.00  0.00    +0.002 A 
ENDBRANCH   5  10
BRANCH   3   9
ATOM      9  C   UNL     1      -4.657   4.817  25.302  0.00  0.00    +0.119 C 
BRANCH   9  11
ATOM      1 CL   UNL     1      -0.165   2.408  26.388  0.00  0.00    -0.084 Cl
ATOM     11  C   UNL     1      -3.153   4.805  25.236  0.00  0.00    -0.032 A 
ATOM     14  C   UNL     1      -2.440   3.737  25.779  0.00  0.00    +0.025 A 
ATOM     15  C   UNL     1      -2.473   5.862  24.630  0.00  0.00    +0.005 A 
ATOM     18  C   UNL     1      -1.046   3.725  25.716  0.00  0.00    +0.041 A 
ATOM     19  C   UNL     1      -1.079   5.850  24.567  0.00  0.00    +0.002 A 
ATOM     22  C   UNL     1      -0.366   4.782  25.111  0.00  0.00    +0.020 A 
ENDBRANCH   9  11
ENDBRANCH   3   9
TORSDOF 3
ENDMDL
MODEL 5
REMARK VINA RESULT:      -0.9      3.360      7.729
REMARK  Name = 51137072
REMARK  3 active torsions:
REMARK  status: ('A' for Active; 'I' for Inactive)
REMARK    1  A    between atoms: N_3  and  C_9
REMARK    2  A    between atoms: C_5  and  C_10
REMARK    3  A    between atoms: C_9  and  C_11
REMARK                            x       y       z     vdW  Elec       q    Type
REMARK                         _______ _______ _______ _____ _____    ______ ____
ROOT
ATOM      3  N   UNL     1      -3.147  -1.398  24.786  0.00  0.00    -0.297 NA
ATOM      5  C   UNL     1      -0.825  -1.722  24.707  0.00  0.00    +0.060 C 
ATOM      6  C   UNL     1      -1.238  -1.309  26.130  0.00  0.00    +0.027 C 
ATOM      7  C   UNL     1      -2.036  -1.368  23.832  0.00  0.00    +0.095 C 
ATOM      8  C   UNL     1      -2.636  -0.723  25.979  0.00  0.00    +0.085 C 
ENDROOT
BRANCH   5  10
ATOM      2  S   UNL     1       0.407   0.436  23.462  0.00  0.00    -0.072 S 
ATOM      4  N   UNL     1       1.642  -1.661  24.313  0.00  0.00    -0.244 NA
ATOM     10  C   UNL     1       0.460  -1.100  24.212  0.00  0.00    +0.084 A 
ATOM     12  C   UNL     1       2.115   0.376  23.240  0.00  0.00    +0.039 A 
ATOM     13  C   UNL     1       2.602  -0.827  23.760  0.00  0.00    +0.078 A 
ATOM     16  C   UNL     1       2.964   1.325  22.647  0.00  0.00    +0.017 A 
ATOM     17  C   UNL     1       3.987  -1.086  23.684  0.00  0.00    +0.029 A 
ATOM     20  C   UNL     1       4.331   1.043  22.585  0.00  0.00    +0.001 A 
ATOM     21  C   UNL     1       4.839  -0.146  23.095  0.00  0.00    +0.002 A 
ENDBRANCH   5  10
BRANCH   3   9
ATOM      9  C   UNL     1      -4.347  -0.763  24.261  0.00  0.00    +0.119 C 
BRANCH   9  11
ATOM      1 CL   UNL     1      -5.857   3.998  25.749  0.00  0.00    -0.084 Cl
ATOM     11  C   UNL     1      -4.189   0.731  24.154  0.00  0.00    -0.032 A 
ATOM     14  C   UNL     1      -5.001   1.574  24.912  0.00  0.00    +0.025 A 
ATOM     15  C   UNL     1      -3.229   1.272  23.297  0.00  0.00    +0.005 A 
ATOM     18  C   UNL     1      -4.854   2.958  24.815  0.00  0.00    +0.041 A 
ATOM     19  C   UNL     1      -3.083   2.656  23.200  0.00  0.00    +0.002 A 
ATOM     22  C   UNL     1      -3.895   3.499  23.958  0.00  0.00    +0.020 A 
ENDBRANCH   9  11
ENDBRANCH   3   9
TORSDOF 3
ENDMDL
MODEL 6
REMARK VINA RESULT:      -0.7      2.893      7.883
REMARK  Name = 51137072
REMARK  3 active torsions:
REMARK  status: ('A' for Active; 'I' for Inactive)
REMARK    1  A    between atoms: N_3  and  C_9
REMARK    2  A    between atoms: C_5  and  C_10
REMARK    3  A    between atoms: C_9  and  C_11
REMARK                            x       y       z     vdW  Elec       q    Type
REMARK                         _______ _______ _______ _____ _____    ______ ____
ROOT
ATOM      3  N   UNL     1      -2.695   4.395  25.803  0.00  0.00    -0.297 NA
ATOM      5  C   UNL     1      -0.631   3.327  25.485  0.00  0.00    +0.060 C 
ATOM      6  C   UNL     1      -0.515   4.804  25.071  0.00  0.00    +0.027 C 
ATOM      7  C   UNL     1      -2.141   3.062  25.558  0.00  0.00    +0.095 C 
ATOM      8  C   UNL     1      -1.953   5.282  24.907  0.00  0.00    +0.085 C 
ENDROOT
BRANCH   5  10
ATOM      2  S   UNL     1      -0.777   1.063  23.880  0.00  0.00    -0.072 S 
ATOM      4  N   UNL     1       1.372   2.427  24.292  0.00  0.00    -0.244 NA
ATOM     10  C   UNL     1       0.094   2.356  24.583  0.00  0.00    +0.084 A 
ATOM     12  C   UNL     1       0.665   0.526  23.102  0.00  0.00    +0.039 A 
ATOM     13  C   UNL     1       1.715   1.385  23.444  0.00  0.00    +0.078 A 
ATOM     16  C   UNL     1       0.854  -0.575  22.252  0.00  0.00    +0.017 A 
ATOM     17  C   UNL     1       2.997   1.129  22.914  0.00  0.00    +0.029 A 
ATOM     20  C   UNL     1       2.133  -0.805  21.741  0.00  0.00    +0.001 A 
ATOM     21  C   UNL     1       3.194   0.035  22.066  0.00  0.00    +0.002 A 
ENDBRANCH   5  10
BRANCH   3   9
ATOM      9  C   UNL     1      -4.132   4.451  25.572  0.00  0.00    +0.119 C 
BRANCH   9  11
ATOM      1 CL   UNL     1      -3.919  -0.358  23.573  0.00  0.00    -0.084 Cl
ATOM     11  C   UNL     1      -4.733   3.075  25.459  0.00  0.00    -0.032 A 
ATOM     14  C   UNL     1      -4.119   2.109  24.662  0.00  0.00    +0.025 A 
ATOM     15  C   UNL     1      -5.904   2.766  26.151  0.00  0.00    +0.005 A 
ATOM     18  C   UNL     1      -4.675   0.834  24.558  0.00  0.00    +0.041 A 
ATOM     19  C   UNL     1      -6.461   1.491  26.046  0.00  0.00    +0.002 A 
ATOM     22  C   UNL     1      -5.847   0.525  25.250  0.00  0.00    +0.020 A 
ENDBRANCH   9  11
ENDBRANCH   3   9
TORSDOF 3
ENDMDL
MODEL 7
REMARK VINA RESULT:      -0.6      3.849      6.847
REMARK  Name = 51137072
REMARK  3 active torsions:
REMARK  status: ('A' for Active; 'I' for Inactive)
REMARK    1  A    between atoms: N_3  and  C_9
REMARK    2  A    between atoms: C_5  and  C_10
REMARK    3  A    between atoms: C_9  and  C_11
REMARK                            x       y       z     vdW  Elec       q    Type
REMARK                         _______ _______ _______ _____ _____    ______ ____
ROOT
ATOM      3  N   UNL     1      -0.202   3.638  25.379  0.00  0.00    -0.297 NA
ATOM      5  C   UNL     1      -0.242   1.294  25.289  0.00  0.00    +0.060 C 
ATOM      6  C   UNL     1       0.555   1.842  24.091  0.00  0.00    +0.027 C 
ATOM      7  C   UNL     1      -1.016   2.506  25.827  0.00  0.00    +0.095 C 
ATOM      8  C   UNL     1       0.169   3.313  24.002  0.00  0.00    +0.085 C 
ENDROOT
BRANCH   5  10
ATOM      2  S   UNL     1      -0.504  -1.466  25.100  0.00  0.00    -0.072 S 
ATOM      4  N   UNL     1      -2.389   0.220  24.595  0.00  0.00    -0.244 NA
ATOM     10  C   UNL     1      -1.136   0.118  24.973  0.00  0.00    +0.084 A 
ATOM     12  C   UNL     1      -2.030  -2.104  24.612  0.00  0.00    +0.039 A 
ATOM     13  C   UNL     1      -2.916  -1.046  24.385  0.00  0.00    +0.078 A 
ATOM     16  C   UNL     1      -2.416  -3.443  24.442  0.00  0.00    +0.017 A 
ATOM     17  C   UNL     1      -4.233  -1.342  23.974  0.00  0.00    +0.029 A 
ATOM     20  C   UNL     1      -3.725  -3.708  24.035  0.00  0.00    +0.001 A 
ATOM     21  C   UNL     1      -4.625  -2.673  23.803  0.00  0.00    +0.002 A 
ENDBRANCH   5  10
BRANCH   3   9
ATOM      9  C   UNL     1      -0.912   4.905  25.477  0.00  0.00    +0.119 C 
BRANCH   9  11
ATOM      1 CL   UNL     1      -5.527   2.654  26.370  0.00  0.00    -0.084 Cl
ATOM     11  C   UNL     1      -2.366   4.761  25.115  0.00  0.00    -0.032 A 
ATOM     14  C   UNL     1      -3.177   3.878  25.827  0.00  0.00    +0.025 A 
ATOM     15  C   UNL     1      -2.903   5.512  24.069  0.00  0.00    +0.005 A 
ATOM     18  C   UNL     1      -4.525   3.745  25.493  0.00  0.00    +0.041 A 
ATOM     19  C   UNL     1      -4.251   5.379  23.735  0.00  0.00    +0.002 A 
ATOM     22  C   UNL     1      -5.062   4.496  24.447  0.00  0.00    +0.020 A 
ENDBRANCH   9  11
ENDBRANCH   3   9
TORSDOF 3
ENDMDL
MODEL 8
REMARK VINA RESULT:      -0.6      3.068      7.458
REMARK  Name = 51137072
REMARK  3 active torsions:
REMARK  status: ('A' for Active; 'I' for Inactive)
REMARK    1  A    between atoms: N_3  and  C_9
REMARK    2  A    between atoms: C_5  and  C_10
REMARK    3  A    between atoms: C_9  and  C_11
REMARK                            x       y       z     vdW  Elec       q    Type
REMARK                         _______ _______ _______ _____ _____    ______ ____
ROOT
ATOM      3  N   UNL     1      -3.542   2.054  24.898  0.00  0.00    -0.297 NA
ATOM      5  C   UNL     1      -1.256   2.394  24.496  0.00  0.00    +0.060 C 
ATOM      6  C   UNL     1      -2.078   3.021  23.356  0.00  0.00    +0.027 C 
ATOM      7  C   UNL     1      -2.240   1.463  25.218  0.00  0.00    +0.095 C 
ATOM      8  C   UNL     1      -3.461   2.395  23.478  0.00  0.00    +0.085 C 
ENDROOT
BRANCH   5  10
ATOM      2  S   UNL     1      -0.007  -0.013  23.885  0.00  0.00    -0.072 S 
ATOM      4  N   UNL     1       1.140   2.295  23.791  0.00  0.00    -0.244 NA
ATOM     10  C   UNL     1       0.006   1.689  24.056  0.00  0.00    +0.084 A 
ATOM     12  C   UNL     1       1.649   0.031  23.410  0.00  0.00    +0.039 A 
ATOM     13  C   UNL     1       2.092   1.358  23.419  0.00  0.00    +0.078 A 
ATOM     16  C   UNL     1       2.496  -1.030  23.054  0.00  0.00    +0.017 A 
ATOM     17  C   UNL     1       3.430   1.628  23.059  0.00  0.00    +0.029 A 
ATOM     20  C   UNL     1       3.815  -0.736  22.702  0.00  0.00    +0.001 A 
ATOM     21  C   UNL     1       4.279   0.575  22.704  0.00  0.00    +0.002 A 
ENDBRANCH   5  10
BRANCH   3   9
ATOM      9  C   UNL     1      -4.647   1.152  25.190  0.00  0.00    +0.119 C 
BRANCH   9  11
ATOM      1 CL   UNL     1      -4.666  -3.341  22.549  0.00  0.00    -0.084 Cl
ATOM     11  C   UNL     1      -4.229  -0.292  25.102  0.00  0.00    -0.032 A 
ATOM     14  C   UNL     1      -4.598  -1.057  23.996  0.00  0.00    +0.025 A 
ATOM     15  C   UNL     1      -3.473  -0.863  26.125  0.00  0.00    +0.005 A 
ATOM     18  C   UNL     1      -4.210  -2.395  23.913  0.00  0.00    +0.041 A 
ATOM     19  C   UNL     1      -3.085  -2.201  26.042  0.00  0.00    +0.002 A 
ATOM     22  C   UNL     1      -3.454  -2.967  24.937  0.00  0.00    +0.020 A 
ENDBRANCH   9  11
ENDBRANCH   3   9
TORSDOF 3
ENDMDL
MODEL 9
REMARK VINA RESULT:       0.2      2.752      7.609
REMARK  Name = 51137072
REMARK  3 active torsions:
REMARK  status: ('A' for Active; 'I' for Inactive)
REMARK    1  A    between atoms: N_3  and  C_9
REMARK    2  A    between atoms: C_5  and  C_10
REMARK    3  A    between atoms: C_9  and  C_11
REMARK                            x       y       z     vdW  Elec       q    Type
REMARK                         _______ _______ _______ _____ _____    ______ ____
ROOT
ATOM      3  N   UNL     1      -2.797  -0.430  24.617  0.00  0.00    -0.297 NA
ATOM      5  C   UNL     1      -0.849  -0.934  23.411  0.00  0.00    +0.060 C 
ATOM      6  C   UNL     1      -1.323  -2.186  24.169  0.00  0.00    +0.027 C 
ATOM      7  C   UNL     1      -1.610   0.228  24.065  0.00  0.00    +0.095 C 
ATOM      8  C   UNL     1      -2.296  -1.666  25.220  0.00  0.00    +0.085 C 
ENDROOT
BRANCH   5  10
ATOM      2  S   UNL     1       1.654  -1.881  24.162  0.00  0.00    -0.072 S 
ATOM      4  N   UNL     1       1.250   0.299  22.844  0.00  0.00    -0.244 NA
ATOM     10  C   UNL     1       0.647  -0.726  23.401  0.00  0.00    +0.084 A 
ATOM     12  C   UNL     1       3.038  -0.952  23.720  0.00  0.00    +0.039 A 
ATOM     13  C   UNL     1       2.621   0.184  23.018  0.00  0.00    +0.078 A 
ATOM     16  C   UNL     1       4.394  -1.208  23.976  0.00  0.00    +0.017 A 
ATOM     17  C   UNL     1       3.598   1.092  22.557  0.00  0.00    +0.029 A 
ATOM     20  C   UNL     1       5.341  -0.294  23.509  0.00  0.00    +0.001 A 
ATOM     21  C   UNL     1       4.951   0.843  22.808  0.00  0.00    +0.002 A 
ENDBRANCH   5  10
BRANCH   3   9
ATOM      9  C   UNL     1      -3.500   0.409  25.577  0.00  0.00    +0.119 C 
BRANCH   9  11
ATOM      1 CL   UNL     1      -1.036   4.980  25.129  0.00  0.00    -0.084 Cl
ATOM     11  C   UNL     1      -3.529   1.851  25.143  0.00  0.00    -0.032 A 
ATOM     14  C   UNL     1      -2.401   2.653  25.316  0.00  0.00    +0.025 A 
ATOM     15  C   UNL     1      -4.683   2.384  24.568  0.00  0.00    +0.005 A 
ATOM     18  C   UNL     1      -2.427   3.989  24.914  0.00  0.00    +0.041 A 
ATOM     19  C   UNL     1      -4.708   3.720  24.166  0.00  0.00    +0.002 A 
ATOM     22  C   UNL     1      -3.581   4.522  24.339  0.00  0.00    +0.020 A 
ENDBRANCH   9  11
ENDBRANCH   3   9
TORSDOF 3
ENDMDL
MODEL 10
REMARK VINA RESULT:       1.3      3.505      8.614
REMARK  Name = 51137072
REMARK  3 active torsions:
REMARK  status: ('A' for Active; 'I' for Inactive)
REMARK    1  A    between atoms: N_3  and  C_9
REMARK    2  A    between atoms: C_5  and  C_10
REMARK    3  A    between atoms: C_9  and  C_11
REMARK                            x       y       z     vdW  Elec       q    Type
REMARK                         _______ _______ _______ _____ _____    ______ ____
ROOT
ATOM      3  N   UNL     1      -2.091   0.878  23.653  0.00  0.00    -0.297 NA
ATOM      5  C   UNL     1      -0.204  -0.507  23.503  0.00  0.00    +0.060 C 
ATOM      6  C   UNL     1      -0.840  -0.654  24.896  0.00  0.00    +0.027 C 
ATOM      7  C   UNL     1      -0.824   0.772  22.925  0.00  0.00    +0.095 C 
ATOM      8  C   UNL     1      -1.756   0.554  25.040  0.00  0.00    +0.085 C 
ENDROOT
BRANCH   5  10
ATOM      2  S   UNL     1       2.164  -1.837  24.095  0.00  0.00    -0.072 S 
ATOM      4  N   UNL     1       2.031   0.518  23.053  0.00  0.00    -0.244 NA
ATOM     10  C   UNL     1       1.307  -0.485  23.494  0.00  0.00    +0.084 A 
ATOM     12  C   UNL     1       3.651  -1.039  23.745  0.00  0.00    +0.039 A 
ATOM     13  C   UNL     1       3.377   0.216  23.189  0.00  0.00    +0.078 A 
ATOM     16  C   UNL     1       4.966  -1.488  23.946  0.00  0.00    +0.017 A 
ATOM     17  C   UNL     1       4.458   1.046  22.824  0.00  0.00    +0.029 A 
ATOM     20  C   UNL     1       6.018  -0.647  23.575  0.00  0.00    +0.001 A 
ATOM     21  C   UNL     1       5.770   0.604  23.022  0.00  0.00    +0.002 A 
ENDBRANCH   5  10
BRANCH   3   9
ATOM      9  C   UNL     1      -2.699   2.194  23.522  0.00  0.00    +0.119 C 
BRANCH   9  11
ATOM      1 CL   UNL     1      -6.271   5.223  25.809  0.00  0.00    -0.084 Cl
ATOM     11  C   UNL     1      -3.966   2.308  24.327  0.00  0.00    -0.032 A 
ATOM     14  C   UNL     1      -4.472   3.565  24.656  0.00  0.00    +0.025 A 
ATOM     15  C   UNL     1      -4.635   1.156  24.742  0.00  0.00    +0.005 A 
ATOM     18  C   UNL     1      -5.647   3.671  25.401  0.00  0.00    +0.041 A 
ATOM     19  C   UNL     1      -5.810   1.263  25.487  0.00  0.00    +0.002 A 
ATOM     22  C   UNL     1      -6.316   2.520  25.816  0.00  0.00    +0.020 A 
ENDBRANCH   9  11
ENDBRANCH   3   9
TORSDOF 3
ENDMDL
