MODEL 1
REMARK VINA RESULT:      -5.5      0.000      0.000
REMARK  Name = 38029461
REMARK  11 active torsions:
REMARK  status: ('A' for Active; 'I' for Inactive)
REMARK    1  A    between atoms: N_3  and  C_14
REMARK    2  A    between atoms: N_5  and  C_22
REMARK    3  A    between atoms: C_7  and  C_11
REMARK    4  A    between atoms: C_8  and  C_14
REMARK    5  A    between atoms: C_10  and  C_15
REMARK    6  A    between atoms: C_11  and  C_16
REMARK    7  A    between atoms: C_11  and  C_17
REMARK    8  A    between atoms: C_12  and  C_18
REMARK    9  A    between atoms: C_15  and  C_19
REMARK   10  A    between atoms: C_22  and  C_23
REMARK   11  A    between atoms: C_22  and  C_24
REMARK                            x       y       z     vdW  Elec       q    Type
REMARK                         _______ _______ _______ _____ _____    ______ ____
ROOT
ATOM      7  C   UNL     1      -2.762   2.391  23.936  0.00  0.00    +0.000 C 
ATOM      8  C   UNL     1      -1.523   2.851  24.744  0.00  0.00    +0.032 C 
ATOM      9  C   UNL     1      -3.825   3.500  23.905  0.00  0.00    +0.012 C 
ATOM     10  C   UNL     1      -4.287   3.904  25.318  0.00  0.00    +0.023 C 
ATOM     12  C   UNL     1      -3.114   4.115  26.254  0.00  0.00    -0.073 C 
ATOM     13  C   UNL     1      -1.884   3.650  25.975  0.00  0.00    -0.022 C 
ATOM     18  C   UNL     1      -3.378   4.916  27.500  0.00  0.00    +0.039 C 
ENDROOT
BRANCH   7  11
ATOM     11  C   UNL     1      -2.391   1.989  22.505  0.00  0.00    -0.013 C 
ATOM     16  C   UNL     1      -3.173   2.826  21.498  0.00  0.00    +0.007 C 
ATOM     17  C   UNL     1      -2.646   0.501  22.286  0.00  0.00    +0.007 C 
ENDBRANCH   7  11
BRANCH   8  14
ATOM     14  C   UNL     1      -0.652   1.656  25.147  0.00  0.00    +0.113 C 
BRANCH  14   3
ATOM      2  O   UNL     1       0.745   0.177  23.102  0.00  0.00    -0.253 OA
ATOM      3  N   UNL     1       0.698   1.846  24.719  0.00  0.00    -0.299 N 
ATOM      5  N   UNL     1       2.626   1.477  23.495  0.00  0.00    -0.297 N 
ATOM     20  C   UNL     1       1.309   1.083  23.714  0.00  0.00    +0.300 C 
ATOM     29  H   UNL     1       1.229   2.615  25.114  0.00  0.00    +0.150 HD
ATOM     31  H   UNL     1       2.979   2.285  24.001  0.00  0.00    +0.150 HD
BRANCH   5  22
ATOM     22  C   UNL     1       3.478   0.850  22.513  0.00  0.00    +0.068 C 
ATOM     23  C   UNL     1       2.713  -0.229  21.758  0.00  0.00    +0.027 C 
ATOM     24  C   UNL     1       4.728   0.282  23.175  0.00  0.00    +0.027 C 
ENDBRANCH   5  22
ENDBRANCH  14   3
ENDBRANCH   8  14
BRANCH  10  15
ATOM     15  C   UNL     1      -5.270   2.877  25.893  0.00  0.00    +0.104 C 
BRANCH  15  19
ATOM      1  O   UNL     1      -5.999   1.334  24.193  0.00  0.00    -0.275 OA
ATOM      4  N   UNL     1      -4.263   0.730  25.657  0.00  0.00    -0.270 N 
ATOM      6  N   UNL     1      -2.932  -1.229  25.876  0.00  0.00    -0.240 NA
ATOM     19  C   UNL     1      -5.242   1.567  25.131  0.00  0.00    +0.219 C 
ATOM     21  C   UNL     1      -3.923  -0.575  25.228  0.00  0.00    +0.125 A 
ATOM     25  C   UNL     1      -4.633  -1.103  24.162  0.00  0.00    +0.044 A 
ATOM     26  C   UNL     1      -4.306  -2.385  23.733  0.00  0.00    +0.005 A 
ATOM     27  C   UNL     1      -2.643  -2.472  25.431  0.00  0.00    +0.113 A 
ATOM     28  C   UNL     1      -3.293  -3.089  24.373  0.00  0.00    +0.020 A 
ATOM     30  H   UNL     1      -3.711   1.068  26.442  0.00  0.00    +0.156 HD
ENDBRANCH  15  19
ENDBRANCH  10  15
TORSDOF 6
ENDMDL
MODEL 2
REMARK VINA RESULT:      -4.5      1.410      5.345
REMARK  Name = 38029461
REMARK  11 active torsions:
REMARK  status: ('A' for Active; 'I' for Inactive)
REMARK    1  A    between atoms: N_3  and  C_14
REMARK    2  A    between atoms: N_5  and  C_22
REMARK    3  A    between atoms: C_7  and  C_11
REMARK    4  A    between atoms: C_8  and  C_14
REMARK    5  A    between atoms: C_10  and  C_15
REMARK    6  A    between atoms: C_11  and  C_16
REMARK    7  A    between atoms: C_11  and  C_17
REMARK    8  A    between atoms: C_12  and  C_18
REMARK    9  A    between atoms: C_15  and  C_19
REMARK   10  A    between atoms: C_22  and  C_23
REMARK   11  A    between atoms: C_22  and  C_24
REMARK                            x       y       z     vdW  Elec       q    Type
REMARK                         _______ _______ _______ _____ _____    ______ ____
ROOT
ATOM      7  C   UNL     1      -3.833   3.248  25.653  0.00  0.00    +0.000 C 
ATOM      8  C   UNL     1      -3.798   3.582  24.140  0.00  0.00    +0.032 C 
ATOM      9  C   UNL     1      -2.902   4.192  26.432  0.00  0.00    +0.012 C 
ATOM     10  C   UNL     1      -1.443   4.103  25.945  0.00  0.00    +0.023 C 
ATOM     12  C   UNL     1      -1.350   4.155  24.434  0.00  0.00    -0.073 C 
ATOM     13  C   UNL     1      -2.415   3.933  23.644  0.00  0.00    -0.022 C 
ATOM     18  C   UNL     1      -0.011   4.514  23.851  0.00  0.00    +0.039 C 
ENDROOT
BRANCH   7  11
ATOM     11  C   UNL     1      -5.252   3.335  26.222  0.00  0.00    -0.013 C 
ATOM     16  C   UNL     1      -5.974   2.001  26.057  0.00  0.00    +0.007 C 
ATOM     17  C   UNL     1      -6.030   4.460  25.546  0.00  0.00    +0.007 C 
ENDBRANCH   7  11
BRANCH   8  14
ATOM     14  C   UNL     1      -4.362   2.426  23.307  0.00  0.00    +0.113 C 
BRANCH  14   3
ATOM      2  O   UNL     1      -4.892  -0.068  24.658  0.00  0.00    -0.253 OA
ATOM      3  N   UNL     1      -3.504   1.285  23.375  0.00  0.00    -0.299 N 
ATOM      5  N   UNL     1      -2.820  -0.845  23.962  0.00  0.00    -0.297 N 
ATOM     20  C   UNL     1      -3.833   0.105  24.055  0.00  0.00    +0.300 C 
ATOM     29  H   UNL     1      -2.635   1.301  22.852  0.00  0.00    +0.150 HD
ATOM     31  H   UNL     1      -2.014  -0.636  23.379  0.00  0.00    +0.150 HD
BRANCH   5  22
ATOM     22  C   UNL     1      -2.909  -2.148  24.575  0.00  0.00    +0.068 C 
ATOM     23  C   UNL     1      -1.549  -2.833  24.567  0.00  0.00    +0.027 C 
ATOM     24  C   UNL     1      -3.961  -2.998  23.873  0.00  0.00    +0.027 C 
ENDBRANCH   5  22
ENDBRANCH  14   3
ENDBRANCH   8  14
BRANCH  10  15
ATOM     15  C   UNL     1      -0.753   2.849  26.495  0.00  0.00    +0.104 C 
BRANCH  15  19
ATOM      1  O   UNL     1      -1.352   0.973  25.109  0.00  0.00    -0.275 OA
ATOM      4  N   UNL     1       0.764   1.967  24.883  0.00  0.00    -0.270 N 
ATOM      6  N   UNL     1       2.629   1.515  23.477  0.00  0.00    -0.240 NA
ATOM     19  C   UNL     1      -0.510   1.809  25.420  0.00  0.00    +0.219 C 
ATOM     21  C   UNL     1       1.372   1.199  23.861  0.00  0.00    +0.125 A 
ATOM     25  C   UNL     1       0.631   0.163  23.316  0.00  0.00    +0.044 A 
ATOM     26  C   UNL     1       1.218  -0.598  22.311  0.00  0.00    +0.005 A 
ATOM     27  C   UNL     1       3.167   0.754  22.498  0.00  0.00    +0.113 A 
ATOM     28  C   UNL     1       2.510  -0.304  21.888  0.00  0.00    +0.020 A 
ATOM     30  H   UNL     1       1.352   2.713  25.248  0.00  0.00    +0.156 HD
ENDBRANCH  15  19
ENDBRANCH  10  15
TORSDOF 6
ENDMDL
MODEL 3
REMARK VINA RESULT:      -3.0      1.734      4.565
REMARK  Name = 38029461
REMARK  11 active torsions:
REMARK  status: ('A' for Active; 'I' for Inactive)
REMARK    1  A    between atoms: N_3  and  C_14
REMARK    2  A    between atoms: N_5  and  C_22
REMARK    3  A    between atoms: C_7  and  C_11
REMARK    4  A    between atoms: C_8  and  C_14
REMARK    5  A    between atoms: C_10  and  C_15
REMARK    6  A    between atoms: C_11  and  C_16
REMARK    7  A    between atoms: C_11  and  C_17
REMARK    8  A    between atoms: C_12  and  C_18
REMARK    9  A    between atoms: C_15  and  C_19
REMARK   10  A    between atoms: C_22  and  C_23
REMARK   11  A    between atoms: C_22  and  C_24
REMARK                            x       y       z     vdW  Elec       q    Type
REMARK                         _______ _______ _______ _____ _____    ______ ____
ROOT
ATOM      7  C   UNL     1      -1.461   0.897  25.272  0.00  0.00    +0.000 C 
ATOM      8  C   UNL     1      -0.193   0.263  24.647  0.00  0.00    +0.032 C 
ATOM      9  C   UNL     1      -2.214  -0.138  26.123  0.00  0.00    +0.012 C 
ATOM     10  C   UNL     1      -2.639  -1.369  25.301  0.00  0.00    +0.023 C 
ATOM     12  C   UNL     1      -1.504  -1.894  24.446  0.00  0.00    -0.073 C 
ATOM     13  C   UNL     1      -0.413  -1.156  24.175  0.00  0.00    -0.022 C 
ATOM     18  C   UNL     1      -1.630  -3.306  23.945  0.00  0.00    +0.039 C 
ENDROOT
BRANCH   7  11
ATOM     11  C   UNL     1      -1.122   2.122  26.126  0.00  0.00    -0.013 C 
ATOM     16  C   UNL     1      -1.295   3.401  25.315  0.00  0.00    +0.007 C 
ATOM     17  C   UNL     1       0.299   2.014  26.672  0.00  0.00    +0.007 C 
ENDBRANCH   7  11
BRANCH   8  14
ATOM     14  C   UNL     1       0.334   1.112  23.485  0.00  0.00    +0.113 C 
BRANCH  14   3
ATOM      2  O   UNL     1       2.449  -0.728  22.805  0.00  0.00    -0.253 OA
ATOM      3  N   UNL     1       1.740   1.332  23.614  0.00  0.00    -0.299 N 
ATOM      5  N   UNL     1       3.999   0.856  23.488  0.00  0.00    -0.297 N 
ATOM     20  C   UNL     1       2.710   0.384  23.261  0.00  0.00    +0.300 C 
ATOM     29  H   UNL     1       2.062   2.245  23.917  0.00  0.00    +0.150 HD
ATOM     31  H   UNL     1       4.115   1.817  23.799  0.00  0.00    +0.150 HD
BRANCH   5  22
ATOM     22  C   UNL     1       5.180   0.074  23.208  0.00  0.00    +0.068 C 
ATOM     23  C   UNL     1       5.023  -1.339  23.755  0.00  0.00    +0.027 C 
ATOM     24  C   UNL     1       6.419   0.754  23.780  0.00  0.00    +0.027 C 
ENDBRANCH   5  22
ENDBRANCH  14   3
ENDBRANCH   8  14
BRANCH  10  15
ATOM     15  C   UNL     1      -3.875  -1.064  24.446  0.00  0.00    +0.104 C 
BRANCH  15  19
ATOM      1  O   UNL     1      -3.442   0.837  23.032  0.00  0.00    -0.275 OA
ATOM      4  N   UNL     1      -4.674   1.108  25.014  0.00  0.00    -0.270 N 
ATOM      6  N   UNL     1      -5.689   2.994  26.050  0.00  0.00    -0.240 NA
ATOM     19  C   UNL     1      -3.956   0.399  24.057  0.00  0.00    +0.219 C 
ATOM     21  C   UNL     1      -4.972   2.492  25.020  0.00  0.00    +0.125 A 
ATOM     25  C   UNL     1      -4.504   3.249  23.958  0.00  0.00    +0.044 A 
ATOM     26  C   UNL     1      -4.791   4.610  23.954  0.00  0.00    +0.005 A 
ATOM     27  C   UNL     1      -5.949   4.320  26.011  0.00  0.00    +0.113 A 
ATOM     28  C   UNL     1      -5.526   5.164  24.996  0.00  0.00    +0.020 A 
ATOM     30  H   UNL     1      -5.041   0.601  25.816  0.00  0.00    +0.156 HD
ENDBRANCH  15  19
ENDBRANCH  10  15
TORSDOF 6
ENDMDL
MODEL 4
REMARK VINA RESULT:      -2.9      2.183      2.955
REMARK  Name = 38029461
REMARK  11 active torsions:
REMARK  status: ('A' for Active; 'I' for Inactive)
REMARK    1  A    between atoms: N_3  and  C_14
REMARK    2  A    between atoms: N_5  and  C_22
REMARK    3  A    between atoms: C_7  and  C_11
REMARK    4  A    between atoms: C_8  and  C_14
REMARK    5  A    between atoms: C_10  and  C_15
REMARK    6  A    between atoms: C_11  and  C_16
REMARK    7  A    between atoms: C_11  and  C_17
REMARK    8  A    between atoms: C_12  and  C_18
REMARK    9  A    between atoms: C_15  and  C_19
REMARK   10  A    between atoms: C_22  and  C_23
REMARK   11  A    between atoms: C_22  and  C_24
REMARK                            x       y       z     vdW  Elec       q    Type
REMARK                         _______ _______ _______ _____ _____    ______ ____
ROOT
ATOM      7  C   UNL     1      -2.962   2.548  23.763  0.00  0.00    +0.000 C 
ATOM      8  C   UNL     1      -1.679   2.908  24.554  0.00  0.00    +0.032 C 
ATOM      9  C   UNL     1      -4.001   3.674  23.886  0.00  0.00    +0.012 C 
ATOM     10  C   UNL     1      -4.392   3.947  25.351  0.00  0.00    +0.023 C 
ATOM     12  C   UNL     1      -3.175   4.049  26.248  0.00  0.00    -0.073 C 
ATOM     13  C   UNL     1      -1.968   3.592  25.870  0.00  0.00    -0.022 C 
ATOM     18  C   UNL     1      -3.367   4.731  27.575  0.00  0.00    +0.039 C 
ENDROOT
BRANCH   7  11
ATOM     11  C   UNL     1      -2.662   2.280  22.285  0.00  0.00    -0.013 C 
ATOM     16  C   UNL     1      -3.677   2.993  21.398  0.00  0.00    +0.007 C 
ATOM     17  C   UNL     1      -2.659   0.780  22.007  0.00  0.00    +0.007 C 
ENDBRANCH   7  11
BRANCH   8  14
ATOM     14  C   UNL     1      -0.816   1.666  24.801  0.00  0.00    +0.113 C 
BRANCH  14   3
ATOM      2  O   UNL     1       0.964   3.362  26.312  0.00  0.00    -0.253 OA
ATOM      3  N   UNL     1      -0.483   1.547  26.186  0.00  0.00    -0.299 N 
ATOM      5  N   UNL     1       0.541   2.071  28.192  0.00  0.00    -0.297 N 
ATOM     20  C   UNL     1       0.395   2.414  26.851  0.00  0.00    +0.300 C 
ATOM     29  H   UNL     1      -0.953   0.838  26.738  0.00  0.00    +0.150 HD
ATOM     31  H   UNL     1      -0.028   1.315  28.563  0.00  0.00    +0.150 HD
BRANCH   5  22
ATOM     22  C   UNL     1       1.391   2.805  29.100  0.00  0.00    +0.068 C 
ATOM     23  C   UNL     1       2.855   2.617  28.725  0.00  0.00    +0.027 C 
ATOM     24  C   UNL     1       1.129   2.378  30.539  0.00  0.00    +0.027 C 
ENDBRANCH   5  22
ENDBRANCH  14   3
ENDBRANCH   8  14
BRANCH  10  15
ATOM     15  C   UNL     1      -5.370   2.887  25.870  0.00  0.00    +0.104 C 
BRANCH  15  19
ATOM      1  O   UNL     1      -6.000   1.315  24.158  0.00  0.00    -0.275 OA
ATOM      4  N   UNL     1      -4.245   0.800  25.633  0.00  0.00    -0.270 N 
ATOM      6  N   UNL     1      -2.811  -1.085  25.854  0.00  0.00    -0.240 NA
ATOM     19  C   UNL     1      -5.264   1.584  25.102  0.00  0.00    +0.219 C 
ATOM     21  C   UNL     1      -3.830  -0.483  25.201  0.00  0.00    +0.125 A 
ATOM     25  C   UNL     1      -4.502  -1.043  24.127  0.00  0.00    +0.044 A 
ATOM     26  C   UNL     1      -4.102  -2.303  23.695  0.00  0.00    +0.005 A 
ATOM     27  C   UNL     1      -2.450  -2.308  25.405  0.00  0.00    +0.113 A 
ATOM     28  C   UNL     1      -3.058  -2.954  24.340  0.00  0.00    +0.020 A 
ATOM     30  H   UNL     1      -3.719   1.163  26.424  0.00  0.00    +0.156 HD
ENDBRANCH  15  19
ENDBRANCH  10  15
TORSDOF 6
ENDMDL
MODEL 5
REMARK VINA RESULT:      -2.5      2.000      4.771
REMARK  Name = 38029461
REMARK  11 active torsions:
REMARK  status: ('A' for Active; 'I' for Inactive)
REMARK    1  A    between atoms: N_3  and  C_14
REMARK    2  A    between atoms: N_5  and  C_22
REMARK    3  A    between atoms: C_7  and  C_11
REMARK    4  A    between atoms: C_8  and  C_14
REMARK    5  A    between atoms: C_10  and  C_15
REMARK    6  A    between atoms: C_11  and  C_16
REMARK    7  A    between atoms: C_11  and  C_17
REMARK    8  A    between atoms: C_12  and  C_18
REMARK    9  A    between atoms: C_15  and  C_19
REMARK   10  A    between atoms: C_22  and  C_23
REMARK   11  A    between atoms: C_22  and  C_24
REMARK                            x       y       z     vdW  Elec       q    Type
REMARK                         _______ _______ _______ _____ _____    ______ ____
ROOT
ATOM      7  C   UNL     1      -1.021   0.606  24.583  0.00  0.00    +0.000 C 
ATOM      8  C   UNL     1      -0.042  -0.513  24.147  0.00  0.00    +0.032 C 
ATOM      9  C   UNL     1      -1.947   0.102  25.702  0.00  0.00    +0.012 C 
ATOM     10  C   UNL     1      -2.771  -1.126  25.267  0.00  0.00    +0.023 C 
ATOM     12  C   UNL     1      -1.909  -2.166  24.582  0.00  0.00    -0.073 C 
ATOM     13  C   UNL     1      -0.687  -1.878  24.099  0.00  0.00    -0.022 C 
ATOM     18  C   UNL     1      -2.466  -3.561  24.503  0.00  0.00    +0.039 C 
ENDROOT
BRANCH   7  11
ATOM     11  C   UNL     1      -0.279   1.861  25.051  0.00  0.00    -0.013 C 
ATOM     16  C   UNL     1      -0.617   2.168  26.506  0.00  0.00    +0.007 C 
ATOM     17  C   UNL     1      -0.621   3.047  24.154  0.00  0.00    +0.007 C 
ENDBRANCH   7  11
BRANCH   8  14
ATOM     14  C   UNL     1       0.587  -0.197  22.786  0.00  0.00    +0.113 C 
BRANCH  14   3
ATOM      2  O   UNL     1       2.882   1.441  23.398  0.00  0.00    -0.253 OA
ATOM      3  N   UNL     1       1.960  -0.594  22.757  0.00  0.00    -0.299 N 
ATOM      5  N   UNL     1       4.253  -0.378  22.960  0.00  0.00    -0.297 N 
ATOM     20  C   UNL     1       3.023   0.264  23.068  0.00  0.00    +0.300 C 
ATOM     29  H   UNL     1       2.179  -1.565  22.563  0.00  0.00    +0.150 HD
ATOM     31  H   UNL     1       4.263  -1.373  22.752  0.00  0.00    +0.150 HD
BRANCH   5  22
ATOM     22  C   UNL     1       5.508   0.284  23.226  0.00  0.00    +0.068 C 
ATOM     23  C   UNL     1       6.670  -0.549  22.699  0.00  0.00    +0.027 C 
ATOM     24  C   UNL     1       5.659   0.563  24.717  0.00  0.00    +0.027 C 
ENDBRANCH   5  22
ENDBRANCH  14   3
ENDBRANCH   8  14
BRANCH  10  15
ATOM     15  C   UNL     1      -3.948  -0.714  24.377  0.00  0.00    +0.104 C 
BRANCH  15  19
ATOM      1  O   UNL     1      -5.582   0.400  25.752  0.00  0.00    -0.275 OA
ATOM      4  N   UNL     1      -4.187   1.656  24.340  0.00  0.00    -0.270 N 
ATOM      6  N   UNL     1      -3.991   3.987  23.908  0.00  0.00    -0.240 NA
ATOM     19  C   UNL     1      -4.685   0.494  24.921  0.00  0.00    +0.219 C 
ATOM     21  C   UNL     1      -4.606   2.987  24.579  0.00  0.00    +0.125 A 
ATOM     25  C   UNL     1      -5.628   3.181  25.493  0.00  0.00    +0.044 A 
ATOM     26  C   UNL     1      -6.047   4.485  25.735  0.00  0.00    +0.005 A 
ATOM     27  C   UNL     1      -4.424   5.240  24.169  0.00  0.00    +0.113 A 
ATOM     28  C   UNL     1      -5.438   5.540  25.065  0.00  0.00    +0.020 A 
ATOM     30  H   UNL     1      -3.435   1.572  23.660  0.00  0.00    +0.156 HD
ENDBRANCH  15  19
ENDBRANCH  10  15
TORSDOF 6
ENDMDL
