MODEL 1
REMARK VINA RESULT:       8.7      0.000      0.000
REMARK  Name = 45360398
REMARK  10 active torsions:
REMARK  status: ('A' for Active; 'I' for Inactive)
REMARK    1  A    between atoms: O_4  and  C_14
REMARK    2  A    between atoms: O_7  and  C_29
REMARK    3  A    between atoms: O_7  and  C_33
REMARK    4  A    between atoms: N_10  and  C_13
REMARK    5  A    between atoms: N_11  and  C_22
REMARK    6  A    between atoms: C_20  and  C_21
REMARK    7  A    between atoms: C_30  and  C_34
REMARK    8  A    between atoms: C_33  and  C_35
REMARK    9  A    between atoms: C_36  and  C_38
REMARK   10  A    between atoms: C_37  and  C_39
REMARK                            x       y       z     vdW  Elec       q    Type
REMARK                         _______ _______ _______ _____ _____    ______ ____
ROOT
ATOM      5  O   UNL     1      -6.298   1.431  24.748  0.00  0.00    -0.252 OA
ATOM      9  N   UNL     1      -5.244   2.976  26.108  0.00  0.00    -0.284 N 
ATOM     11  N   UNL     1      -4.192   0.923  25.587  0.00  0.00    -0.269 N 
ATOM     13  C   UNL     1      -3.051   4.210  26.015  0.00  0.00    +0.119 C 
ATOM     14  C   UNL     1      -3.592   5.082  24.867  0.00  0.00    +0.136 C 
ATOM     15  C   UNL     1      -4.895   5.833  25.160  0.00  0.00    +0.035 C 
ATOM     16  C   UNL     1      -4.094   3.480  26.870  0.00  0.00    +0.134 C 
ATOM     17  C   UNL     1      -6.146   4.980  24.942  0.00  0.00    +0.022 C 
ATOM     18  C   UNL     1      -6.370   3.905  26.000  0.00  0.00    +0.109 C 
ATOM     19  C   UNL     1      -5.314   1.737  25.425  0.00  0.00    +0.307 C 
ATOM     42  H   UNL     1      -3.422   1.272  26.145  0.00  0.00    +0.156 HD
ENDROOT
BRANCH  11  22
ATOM     22  C   UNL     1      -3.963  -0.363  25.036  0.00  0.00    +0.035 A 
ATOM     25  C   UNL     1      -2.711  -0.965  25.167  0.00  0.00    +0.035 A 
ATOM     26  C   UNL     1      -4.989  -1.027  24.365  0.00  0.00    +0.023 A 
ATOM     30  C   UNL     1      -2.486  -2.230  24.625  0.00  0.00    +0.057 A 
ATOM     31  C   UNL     1      -4.763  -2.293  23.823  0.00  0.00    +0.002 A 
ATOM     32  C   UNL     1      -3.512  -2.894  23.954  0.00  0.00    +0.012 A 
BRANCH  30  34
ATOM      1  F   UNL     1      -0.179  -2.028  25.228  0.00  0.00    -0.166 F 
ATOM      2  F   UNL     1      -0.672  -3.357  23.580  0.00  0.00    -0.166 F 
ATOM      3  F   UNL     1      -1.136  -3.935  25.624  0.00  0.00    -0.166 F 
ATOM     34  C   UNL     1      -1.147  -2.873  24.765  0.00  0.00    +0.417 C 
ENDBRANCH  30  34
ENDBRANCH  11  22
BRANCH  13  10
ATOM      6  O   UNL     1      -3.076   3.042  23.394  0.00  0.00    -0.270 OA
ATOM     10  N   UNL     1      -2.085   3.271  25.476  0.00  0.00    -0.305 N 
ATOM     20  C   UNL     1      -2.187   2.765  24.194  0.00  0.00    +0.244 C 
ATOM     40  H   UNL     1      -1.260   3.083  26.037  0.00  0.00    +0.149 HD
BRANCH  20  21
ATOM     21  C   UNL     1      -1.133   1.794  23.801  0.00  0.00    +0.037 A 
ATOM     23  C   UNL     1      -1.402   0.826  22.834  0.00  0.00    +0.016 A 
ATOM     24  C   UNL     1       0.125   1.851  24.401  0.00  0.00    +0.016 A 
ATOM     27  C   UNL     1      -0.413  -0.087  22.467  0.00  0.00    +0.046 A 
ATOM     28  C   UNL     1       1.114   0.937  24.035  0.00  0.00    +0.046 A 
ATOM     29  C   UNL     1       0.845  -0.031  23.067  0.00  0.00    +0.121 A 
BRANCH  29   7
ATOM      7  O   UNL     1       1.810  -0.922  22.709  0.00  0.00    -0.487 OA
BRANCH   7  33
ATOM     33  C   UNL     1       2.889  -0.428  21.916  0.00  0.00    +0.269 C 
BRANCH  33  35
ATOM      8  O   UNL     1       5.551   1.181  23.901  0.00  0.00    -0.359 OA
ATOM     12  N   UNL     1       5.706  -0.128  24.341  0.00  0.00    -0.083 NA
ATOM     35  C   UNL     1       4.015  -0.020  22.819  0.00  0.00    +0.054 A 
ATOM     36  C   UNL     1       4.542   1.232  22.994  0.00  0.00    +0.141 A 
ATOM     37  C   UNL     1       4.776  -0.827  23.682  0.00  0.00    +0.087 A 
ATOM     38  C   UNL     1       4.244   2.553  22.424  0.00  0.00    +0.089 C 
ATOM     39  C   UNL     1       4.657  -2.276  23.912  0.00  0.00    +0.069 C 
ENDBRANCH  33  35
ENDBRANCH   7  33
ENDBRANCH  29   7
ENDBRANCH  20  21
ENDBRANCH  13  10
BRANCH  14   4
ATOM      4  O   UNL     1      -2.597   6.071  24.565  0.00  0.00    -0.390 OA
ATOM     41  H   UNL     1      -1.882   5.978  25.218  0.00  0.00    +0.210 HD
ENDBRANCH  14   4
TORSDOF 8
ENDMDL
MODEL 2
REMARK VINA RESULT:      10.1      2.268      7.682
REMARK  Name = 45360398
REMARK  10 active torsions:
REMARK  status: ('A' for Active; 'I' for Inactive)
REMARK    1  A    between atoms: O_4  and  C_14
REMARK    2  A    between atoms: O_7  and  C_29
REMARK    3  A    between atoms: O_7  and  C_33
REMARK    4  A    between atoms: N_10  and  C_13
REMARK    5  A    between atoms: N_11  and  C_22
REMARK    6  A    between atoms: C_20  and  C_21
REMARK    7  A    between atoms: C_30  and  C_34
REMARK    8  A    between atoms: C_33  and  C_35
REMARK    9  A    between atoms: C_36  and  C_38
REMARK   10  A    between atoms: C_37  and  C_39
REMARK                            x       y       z     vdW  Elec       q    Type
REMARK                         _______ _______ _______ _____ _____    ______ ____
ROOT
ATOM      5  O   UNL     1       1.874  -2.287  25.375  0.00  0.00    -0.252 OA
ATOM      9  N   UNL     1       2.779  -1.596  23.363  0.00  0.00    -0.284 N 
ATOM     11  N   UNL     1       0.499  -1.202  23.849  0.00  0.00    -0.269 N 
ATOM     13  C   UNL     1       2.988   0.620  22.184  0.00  0.00    +0.119 C 
ATOM     14  C   UNL     1       4.055   1.060  23.203  0.00  0.00    +0.136 C 
ATOM     15  C   UNL     1       5.267   0.134  23.339  0.00  0.00    +0.035 C 
ATOM     16  C   UNL     1       2.724  -0.887  22.077  0.00  0.00    +0.134 C 
ATOM     17  C   UNL     1       5.024  -1.047  24.282  0.00  0.00    +0.022 C 
ATOM     18  C   UNL     1       4.096  -2.120  23.724  0.00  0.00    +0.109 C 
ATOM     19  C   UNL     1       1.712  -1.735  24.283  0.00  0.00    +0.307 C 
ATOM     42  H   UNL     1       0.470  -0.747  22.945  0.00  0.00    +0.156 HD
ENDROOT
BRANCH  11  22
ATOM     22  C   UNL     1      -0.741  -1.185  24.537  0.00  0.00    +0.035 A 
ATOM     25  C   UNL     1      -1.901  -1.617  23.894  0.00  0.00    +0.035 A 
ATOM     26  C   UNL     1      -0.801  -0.738  25.856  0.00  0.00    +0.023 A 
ATOM     30  C   UNL     1      -3.121  -1.601  24.571  0.00  0.00    +0.057 A 
ATOM     31  C   UNL     1      -2.021  -0.721  26.533  0.00  0.00    +0.002 A 
ATOM     32  C   UNL     1      -3.180  -1.154  25.890  0.00  0.00    +0.012 A 
BRANCH  30  34
ATOM      1  F   UNL     1      -4.286  -2.003  22.521  0.00  0.00    -0.166 F 
ATOM      2  F   UNL     1      -5.455  -1.319  24.222  0.00  0.00    -0.166 F 
ATOM      3  F   UNL     1      -4.696  -3.356  24.167  0.00  0.00    -0.166 F 
ATOM     34  C   UNL     1      -4.361  -2.062  23.883  0.00  0.00    +0.417 C 
ENDBRANCH  30  34
ENDBRANCH  11  22
BRANCH  13  10
ATOM      6  O   UNL     1       1.951   1.331  24.764  0.00  0.00    -0.270 OA
ATOM     10  N   UNL     1       1.755   1.336  22.454  0.00  0.00    -0.305 N 
ATOM     20  C   UNL     1       1.343   1.631  23.740  0.00  0.00    +0.244 C 
ATOM     40  H   UNL     1       1.257   1.717  21.657  0.00  0.00    +0.149 HD
BRANCH  20  21
ATOM     21  C   UNL     1       0.046   2.347  23.850  0.00  0.00    +0.037 A 
ATOM     23  C   UNL     1      -1.074   1.871  23.168  0.00  0.00    +0.016 A 
ATOM     24  C   UNL     1      -0.052   3.496  24.636  0.00  0.00    +0.016 A 
ATOM     27  C   UNL     1      -2.291   2.544  23.269  0.00  0.00    +0.046 A 
ATOM     28  C   UNL     1      -1.270   4.170  24.737  0.00  0.00    +0.046 A 
ATOM     29  C   UNL     1      -2.388   3.693  24.054  0.00  0.00    +0.121 A 
BRANCH  29   7
ATOM      7  O   UNL     1      -3.577   4.351  24.154  0.00  0.00    -0.487 OA
BRANCH   7  33
ATOM     33  C   UNL     1      -4.756   3.610  23.846  0.00  0.00    +0.269 C 
BRANCH  33  35
ATOM      8  O   UNL     1      -5.674   2.539  27.255  0.00  0.00    -0.359 OA
ATOM     12  N   UNL     1      -6.554   1.746  26.528  0.00  0.00    -0.083 NA
ATOM     35  C   UNL     1      -5.306   3.015  25.108  0.00  0.00    +0.054 A 
ATOM     36  C   UNL     1      -4.936   3.290  26.398  0.00  0.00    +0.141 A 
ATOM     37  C   UNL     1      -6.316   2.048  25.248  0.00  0.00    +0.087 A 
ATOM     38  C   UNL     1      -3.949   4.191  27.006  0.00  0.00    +0.089 C 
ATOM     39  C   UNL     1      -7.086   1.379  24.188  0.00  0.00    +0.069 C 
ENDBRANCH  33  35
ENDBRANCH   7  33
ENDBRANCH  29   7
ENDBRANCH  20  21
ENDBRANCH  13  10
BRANCH  14   4
ATOM      4  O   UNL     1       4.550   2.341  22.790  0.00  0.00    -0.390 OA
ATOM     41  H   UNL     1       4.015   2.634  22.032  0.00  0.00    +0.210 HD
ENDBRANCH  14   4
TORSDOF 8
ENDMDL
