MODEL 1
REMARK VINA RESULT:       7.1      0.000      0.000
REMARK  Name = 7155442
REMARK  5 active torsions:
REMARK  status: ('A' for Active; 'I' for Inactive)
REMARK    1  A    between atoms: S_1  and  N_6
REMARK    2  A    between atoms: S_1  and  C_19
REMARK    3  A    between atoms: O_5  and  C_29
REMARK    4  A    between atoms: O_5  and  C_31
REMARK    5  A    between atoms: C_15  and  C_20
REMARK                            x       y       z     vdW  Elec       q    Type
REMARK                         _______ _______ _______ _____ _____    ______ ____
ROOT
ATOM      4  O   UNL     1      -1.571   3.463  22.145  0.00  0.00    -0.268 OA
ATOM      6  N   UNL     1      -2.038  -0.536  25.028  0.00  0.00    -0.176 NA
ATOM      7  N   UNL     1      -0.673   1.984  23.724  0.00  0.00    -0.311 N 
ATOM      8  C   UNL     1      -0.348  -0.505  23.198  0.00  0.00    +0.025 C 
ATOM      9  C   UNL     1       0.248   0.368  25.414  0.00  0.00    +0.053 C 
ATOM     10  C   UNL     1       0.774  -0.423  24.220  0.00  0.00    +0.017 C 
ATOM     11  C   UNL     1      -1.574  -1.220  23.789  0.00  0.00    +0.114 C 
ATOM     12  C   UNL     1      -0.949  -0.379  26.036  0.00  0.00    +0.119 C 
ATOM     13  C   UNL     1      -0.677   0.911  22.720  0.00  0.00    +0.130 C 
ATOM     14  C   UNL     1      -0.148   1.793  25.017  0.00  0.00    +0.034 A 
ATOM     15  C   UNL     1      -0.030   2.850  25.862  0.00  0.00    +0.002 A 
ATOM     16  C   UNL     1      -1.119   3.238  23.267  0.00  0.00    +0.252 A 
ATOM     17  C   UNL     1      -0.483   4.157  25.428  0.00  0.00    +0.015 A 
ATOM     18  C   UNL     1      -1.009   4.365  24.222  0.00  0.00    +0.071 A 
ENDROOT
BRANCH  15  20
ATOM     20  C   UNL     1       0.533   2.702  27.222  0.00  0.00    -0.016 A 
ATOM     23  C   UNL     1       1.903   2.837  27.421  0.00  0.00    +0.008 A 
ATOM     24  C   UNL     1      -0.311   2.431  28.294  0.00  0.00    +0.008 A 
ATOM     27  C   UNL     1       2.435   2.699  28.703  0.00  0.00    +0.001 A 
ATOM     28  C   UNL     1       0.219   2.292  29.577  0.00  0.00    +0.001 A 
ATOM     30  C   UNL     1       1.593   2.427  29.781  0.00  0.00    +0.000 A 
ENDBRANCH  15  20
BRANCH   6   1
ATOM      1  S   UNL     1      -3.547  -1.060  25.643  0.00  0.00    +0.061 S 
ATOM      2  O   UNL     1      -3.380  -1.473  27.020  0.00  0.00    -0.153 OA
ATOM      3  O   UNL     1      -4.173  -1.935  24.674  0.00  0.00    -0.153 OA
BRANCH   1  19
ATOM     19  C   UNL     1      -4.429   0.470  25.642  0.00  0.00    +0.106 A 
ATOM     21  C   UNL     1      -5.639   0.555  26.311  0.00  0.00    +0.032 A 
ATOM     22  C   UNL     1      -3.896   1.559  24.971  0.00  0.00    +0.032 A 
ATOM     25  C   UNL     1      -6.335   1.764  26.309  0.00  0.00    +0.047 A 
ATOM     26  C   UNL     1      -4.592   2.768  24.970  0.00  0.00    +0.047 A 
ATOM     29  C   UNL     1      -5.812   2.869  25.639  0.00  0.00    +0.120 A 
BRANCH  29   5
ATOM      5  O   UNL     1      -6.492   4.049  25.638  0.00  0.00    -0.495 OA
ATOM     31  C   UNL     1      -5.736   5.233  25.389  0.00  0.00    +0.277 C 
ENDBRANCH  29   5
ENDBRANCH   1  19
ENDBRANCH   6   1
TORSDOF 4
ENDMDL
MODEL 2
REMARK VINA RESULT:       7.1      2.522      5.110
REMARK  Name = 7155442
REMARK  5 active torsions:
REMARK  status: ('A' for Active; 'I' for Inactive)
REMARK    1  A    between atoms: S_1  and  N_6
REMARK    2  A    between atoms: S_1  and  C_19
REMARK    3  A    between atoms: O_5  and  C_29
REMARK    4  A    between atoms: O_5  and  C_31
REMARK    5  A    between atoms: C_15  and  C_20
REMARK                            x       y       z     vdW  Elec       q    Type
REMARK                         _______ _______ _______ _____ _____    ______ ____
ROOT
ATOM      4  O   UNL     1      -2.503   5.337  26.476  0.00  0.00    -0.268 OA
ATOM      6  N   UNL     1      -4.173   1.333  24.085  0.00  0.00    -0.176 NA
ATOM      7  N   UNL     1      -2.361   3.840  24.679  0.00  0.00    -0.311 N 
ATOM      8  C   UNL     1      -4.280   3.573  23.000  0.00  0.00    +0.025 C 
ATOM      9  C   UNL     1      -2.252   2.210  22.769  0.00  0.00    +0.053 C 
ATOM     10  C   UNL     1      -3.181   3.170  22.031  0.00  0.00    +0.017 C 
ATOM     11  C   UNL     1      -5.076   2.343  23.467  0.00  0.00    +0.114 C 
ATOM     12  C   UNL     1      -3.041   0.955  23.190  0.00  0.00    +0.119 C 
ATOM     13  C   UNL     1      -3.647   4.332  24.168  0.00  0.00    +0.130 C 
ATOM     14  C   UNL     1      -1.603   2.876  23.985  0.00  0.00    +0.034 A 
ATOM     15  C   UNL     1      -0.354   2.559  24.417  0.00  0.00    +0.002 A 
ATOM     16  C   UNL     1      -1.889   4.479  25.840  0.00  0.00    +0.252 A 
ATOM     17  C   UNL     1       0.164   3.195  25.613  0.00  0.00    +0.015 A 
ATOM     18  C   UNL     1      -0.539   4.088  26.307  0.00  0.00    +0.071 A 
ENDROOT
BRANCH  15  20
ATOM     20  C   UNL     1       0.488   1.569  23.710  0.00  0.00    -0.016 A 
ATOM     23  C   UNL     1       1.825   1.854  23.457  0.00  0.00    +0.008 A 
ATOM     24  C   UNL     1      -0.065   0.357  23.304  0.00  0.00    +0.008 A 
ATOM     27  C   UNL     1       2.620   0.920  22.791  0.00  0.00    +0.001 A 
ATOM     28  C   UNL     1       0.729  -0.577  22.638  0.00  0.00    +0.001 A 
ATOM     30  C   UNL     1       2.071  -0.295  22.382  0.00  0.00    +0.000 A 
ENDBRANCH  15  20
BRANCH   6   1
ATOM      1  S   UNL     1      -4.949   0.037  24.887  0.00  0.00    +0.061 S 
ATOM      2  O   UNL     1      -5.887  -0.588  23.979  0.00  0.00    -0.153 OA
ATOM      3  O   UNL     1      -5.367   0.478  26.202  0.00  0.00    -0.153 OA
BRANCH   1  19
ATOM     19  C   UNL     1      -3.583  -1.062  25.093  0.00  0.00    +0.106 A 
ATOM     21  C   UNL     1      -3.620  -2.310  24.493  0.00  0.00    +0.032 A 
ATOM     22  C   UNL     1      -2.496  -0.658  25.853  0.00  0.00    +0.032 A 
ATOM     25  C   UNL     1      -2.539  -3.177  24.656  0.00  0.00    +0.047 A 
ATOM     26  C   UNL     1      -1.416  -1.525  26.015  0.00  0.00    +0.047 A 
ATOM     29  C   UNL     1      -1.439  -2.785  25.416  0.00  0.00    +0.120 A 
BRANCH  29   5
ATOM      5  O   UNL     1      -0.384  -3.632  25.574  0.00  0.00    -0.495 OA
ATOM     31  C   UNL     1       0.922  -3.068  25.475  0.00  0.00    +0.277 C 
ENDBRANCH  29   5
ENDBRANCH   1  19
ENDBRANCH   6   1
TORSDOF 4
ENDMDL
MODEL 3
REMARK VINA RESULT:       7.9      2.778      6.940
REMARK  Name = 7155442
REMARK  5 active torsions:
REMARK  status: ('A' for Active; 'I' for Inactive)
REMARK    1  A    between atoms: S_1  and  N_6
REMARK    2  A    between atoms: S_1  and  C_19
REMARK    3  A    between atoms: O_5  and  C_29
REMARK    4  A    between atoms: O_5  and  C_31
REMARK    5  A    between atoms: C_15  and  C_20
REMARK                            x       y       z     vdW  Elec       q    Type
REMARK                         _______ _______ _______ _____ _____    ______ ____
ROOT
ATOM      4  O   UNL     1      -5.485   4.605  25.439  0.00  0.00    -0.268 OA
ATOM      6  N   UNL     1      -1.007   2.763  24.397  0.00  0.00    -0.176 NA
ATOM      7  N   UNL     1      -3.849   2.955  25.741  0.00  0.00    -0.311 N 
ATOM      8  C   UNL     1      -1.542   3.515  26.711  0.00  0.00    +0.025 C 
ATOM      9  C   UNL     1      -2.061   1.213  26.034  0.00  0.00    +0.053 C 
ATOM     10  C   UNL     1      -1.556   2.073  27.190  0.00  0.00    +0.017 C 
ATOM     11  C   UNL     1      -0.609   3.680  25.501  0.00  0.00    +0.114 C 
ATOM     12  C   UNL     1      -1.094   1.340  24.841  0.00  0.00    +0.119 C 
ATOM     13  C   UNL     1      -2.978   3.939  26.398  0.00  0.00    +0.130 C 
ATOM     14  C   UNL     1      -3.485   1.600  25.624  0.00  0.00    +0.034 A 
ATOM     15  C   UNL     1      -4.380   0.698  25.142  0.00  0.00    +0.002 A 
ATOM     16  C   UNL     1      -5.111   3.435  25.345  0.00  0.00    +0.252 A 
ATOM     17  C   UNL     1      -5.690   1.157  24.720  0.00  0.00    +0.015 A 
ATOM     18  C   UNL     1      -6.054   2.436  24.792  0.00  0.00    +0.071 A 
ENDROOT
BRANCH  15  20
ATOM     20  C   UNL     1      -4.051  -0.739  25.020  0.00  0.00    -0.016 A 
ATOM     23  C   UNL     1      -4.378  -1.426  23.855  0.00  0.00    +0.008 A 
ATOM     24  C   UNL     1      -3.415  -1.394  26.070  0.00  0.00    +0.008 A 
ATOM     27  C   UNL     1      -4.067  -2.781  23.739  0.00  0.00    +0.001 A 
ATOM     28  C   UNL     1      -3.104  -2.749  25.955  0.00  0.00    +0.001 A 
ATOM     30  C   UNL     1      -3.430  -3.442  24.789  0.00  0.00    +0.000 A 
ENDBRANCH  15  20
BRANCH   6   1
ATOM      1  S   UNL     1      -0.227   3.025  22.897  0.00  0.00    +0.061 S 
ATOM      2  O   UNL     1       0.423   4.317  22.920  0.00  0.00    -0.153 OA
ATOM      3  O   UNL     1      -1.134   2.667  21.826  0.00  0.00    -0.153 OA
BRANCH   1  19
ATOM     19  C   UNL     1       1.028   1.786  22.981  0.00  0.00    +0.106 A 
ATOM     21  C   UNL     1       2.357   2.171  23.041  0.00  0.00    +0.032 A 
ATOM     22  C   UNL     1       0.663   0.450  22.985  0.00  0.00    +0.032 A 
ATOM     25  C   UNL     1       3.349   1.192  23.108  0.00  0.00    +0.047 A 
ATOM     26  C   UNL     1       1.654  -0.529  23.052  0.00  0.00    +0.047 A 
ATOM     29  C   UNL     1       2.997  -0.157  23.113  0.00  0.00    +0.120 A 
BRANCH  29   5
ATOM      5  O   UNL     1       3.965  -1.112  23.178  0.00  0.00    -0.495 OA
ATOM     31  C   UNL     1       5.158  -0.780  23.887  0.00  0.00    +0.277 C 
ENDBRANCH  29   5
ENDBRANCH   1  19
ENDBRANCH   6   1
TORSDOF 4
ENDMDL
MODEL 4
REMARK VINA RESULT:       8.1      2.312      5.220
REMARK  Name = 7155442
REMARK  5 active torsions:
REMARK  status: ('A' for Active; 'I' for Inactive)
REMARK    1  A    between atoms: S_1  and  N_6
REMARK    2  A    between atoms: S_1  and  C_19
REMARK    3  A    between atoms: O_5  and  C_29
REMARK    4  A    between atoms: O_5  and  C_31
REMARK    5  A    between atoms: C_15  and  C_20
REMARK                            x       y       z     vdW  Elec       q    Type
REMARK                         _______ _______ _______ _____ _____    ______ ____
ROOT
ATOM      4  O   UNL     1      -1.692   3.990  28.922  0.00  0.00    -0.268 OA
ATOM      6  N   UNL     1      -4.346   2.432  25.042  0.00  0.00    -0.176 NA
ATOM      7  N   UNL     1      -1.871   3.566  26.625  0.00  0.00    -0.311 N 
ATOM      8  C   UNL     1      -3.579   4.799  25.163  0.00  0.00    +0.025 C 
ATOM      9  C   UNL     1      -2.114   3.099  24.167  0.00  0.00    +0.053 C 
ATOM     10  C   UNL     1      -2.583   4.546  24.043  0.00  0.00    +0.017 C 
ATOM     11  C   UNL     1      -4.787   3.855  25.044  0.00  0.00    +0.114 C 
ATOM     12  C   UNL     1      -3.319   2.153  23.996  0.00  0.00    +0.119 C 
ATOM     13  C   UNL     1      -2.856   4.650  26.502  0.00  0.00    +0.130 C 
ATOM     14  C   UNL     1      -1.412   2.847  25.504  0.00  0.00    +0.034 A 
ATOM     15  C   UNL     1      -0.396   1.956  25.643  0.00  0.00    +0.002 A 
ATOM     16  C   UNL     1      -1.338   3.379  27.914  0.00  0.00    +0.252 A 
ATOM     17  C   UNL     1       0.176   1.733  26.957  0.00  0.00    +0.015 A 
ATOM     18  C   UNL     1      -0.255   2.377  28.041  0.00  0.00    +0.071 A 
ENDROOT
BRANCH  15  20
ATOM     20  C   UNL     1       0.134   1.192  24.492  0.00  0.00    -0.016 A 
ATOM     23  C   UNL     1       1.319   1.592  23.883  0.00  0.00    +0.008 A 
ATOM     24  C   UNL     1      -0.556   0.076  24.027  0.00  0.00    +0.008 A 
ATOM     27  C   UNL     1       1.820   0.872  22.799  0.00  0.00    +0.001 A 
ATOM     28  C   UNL     1      -0.056  -0.645  22.943  0.00  0.00    +0.001 A 
ATOM     30  C   UNL     1       1.132  -0.247  22.329  0.00  0.00    +0.000 A 
ENDBRANCH  15  20
BRANCH   6   1
ATOM      1  S   UNL     1      -5.593   1.270  25.184  0.00  0.00    +0.061 S 
ATOM      2  O   UNL     1      -6.489   1.395  24.054  0.00  0.00    -0.153 OA
ATOM      3  O   UNL     1      -6.100   1.285  26.541  0.00  0.00    -0.153 OA
BRANCH   1  19
ATOM     19  C   UNL     1      -4.659  -0.214  24.972  0.00  0.00    +0.106 A 
ATOM     21  C   UNL     1      -4.858  -0.983  23.837  0.00  0.00    +0.032 A 
ATOM     22  C   UNL     1      -3.744  -0.583  25.944  0.00  0.00    +0.032 A 
ATOM     25  C   UNL     1      -4.119  -2.155  23.670  0.00  0.00    +0.047 A 
ATOM     26  C   UNL     1      -3.005  -1.754  25.776  0.00  0.00    +0.047 A 
ATOM     29  C   UNL     1      -3.194  -2.540  24.639  0.00  0.00    +0.120 A 
BRANCH  29   5
ATOM      5  O   UNL     1      -2.473  -3.683  24.475  0.00  0.00    -0.495 OA
ATOM     31  C   UNL     1      -1.544  -3.715  23.393  0.00  0.00    +0.277 C 
ENDBRANCH  29   5
ENDBRANCH   1  19
ENDBRANCH   6   1
TORSDOF 4
ENDMDL
MODEL 5
REMARK VINA RESULT:       8.9      2.882      6.819
REMARK  Name = 7155442
REMARK  5 active torsions:
REMARK  status: ('A' for Active; 'I' for Inactive)
REMARK    1  A    between atoms: S_1  and  N_6
REMARK    2  A    between atoms: S_1  and  C_19
REMARK    3  A    between atoms: O_5  and  C_29
REMARK    4  A    between atoms: O_5  and  C_31
REMARK    5  A    between atoms: C_15  and  C_20
REMARK                            x       y       z     vdW  Elec       q    Type
REMARK                         _______ _______ _______ _____ _____    ______ ____
ROOT
ATOM      4  O   UNL     1      -0.122   5.985  24.123  0.00  0.00    -0.268 OA
ATOM      6  N   UNL     1      -0.282   1.046  24.449  0.00  0.00    -0.176 NA
ATOM      7  N   UNL     1      -0.978   4.045  25.117  0.00  0.00    -0.311 N 
ATOM      8  C   UNL     1       0.536   2.400  26.373  0.00  0.00    +0.025 C 
ATOM      9  C   UNL     1      -1.863   1.933  26.154  0.00  0.00    +0.053 C 
ATOM     10  C   UNL     1      -0.722   2.069  27.158  0.00  0.00    +0.017 C 
ATOM     11  C   UNL     1       0.865   1.283  25.369  0.00  0.00    +0.114 C 
ATOM     12  C   UNL     1      -1.555   0.778  25.181  0.00  0.00    +0.119 C 
ATOM     13  C   UNL     1       0.343   3.756  25.691  0.00  0.00    +0.130 C 
ATOM     14  C   UNL     1      -2.101   3.238  25.389  0.00  0.00    +0.034 A 
ATOM     15  C   UNL     1      -3.330   3.623  24.959  0.00  0.00    +0.002 A 
ATOM     16  C   UNL     1      -1.067   5.238  24.377  0.00  0.00    +0.252 A 
ATOM     17  C   UNL     1      -3.460   4.846  24.190  0.00  0.00    +0.015 A 
ATOM     18  C   UNL     1      -2.414   5.615  23.892  0.00  0.00    +0.071 A 
ENDROOT
BRANCH  15  20
ATOM     20  C   UNL     1      -4.542   2.821  25.238  0.00  0.00    -0.016 A 
ATOM     23  C   UNL     1      -5.359   3.155  26.313  0.00  0.00    +0.008 A 
ATOM     24  C   UNL     1      -4.856   1.737  24.423  0.00  0.00    +0.008 A 
ATOM     27  C   UNL     1      -6.502   2.399  26.576  0.00  0.00    +0.001 A 
ATOM     28  C   UNL     1      -5.998   0.981  24.685  0.00  0.00    +0.001 A 
ATOM     30  C   UNL     1      -6.821   1.312  25.762  0.00  0.00    +0.000 A 
ENDBRANCH  15  20
BRANCH   6   1
ATOM      1  S   UNL     1       0.036   0.022  23.116  0.00  0.00    +0.061 S 
ATOM      2  O   UNL     1      -0.415   0.670  21.903  0.00  0.00    -0.153 OA
ATOM      3  O   UNL     1      -0.387  -1.323  23.444  0.00  0.00    -0.153 OA
BRANCH   1  19
ATOM     19  C   UNL     1       1.802   0.051  23.119  0.00  0.00    +0.106 A 
ATOM     21  C   UNL     1       2.462   1.220  22.779  0.00  0.00    +0.032 A 
ATOM     22  C   UNL     1       2.497  -1.098  23.461  0.00  0.00    +0.032 A 
ATOM     25  C   UNL     1       3.857   1.241  22.781  0.00  0.00    +0.047 A 
ATOM     26  C   UNL     1       3.892  -1.076  23.465  0.00  0.00    +0.047 A 
ATOM     29  C   UNL     1       4.571   0.094  23.124  0.00  0.00    +0.120 A 
BRANCH  29   5
ATOM      5  O   UNL     1       5.932   0.116  23.127  0.00  0.00    -0.495 OA
ATOM     31  C   UNL     1       6.593  -0.726  24.071  0.00  0.00    +0.277 C 
ENDBRANCH  29   5
ENDBRANCH   1  19
ENDBRANCH   6   1
TORSDOF 4
ENDMDL
MODEL 6
REMARK VINA RESULT:       9.0      2.741      5.960
REMARK  Name = 7155442
REMARK  5 active torsions:
REMARK  status: ('A' for Active; 'I' for Inactive)
REMARK    1  A    between atoms: S_1  and  N_6
REMARK    2  A    between atoms: S_1  and  C_19
REMARK    3  A    between atoms: O_5  and  C_29
REMARK    4  A    between atoms: O_5  and  C_31
REMARK    5  A    between atoms: C_15  and  C_20
REMARK                            x       y       z     vdW  Elec       q    Type
REMARK                         _______ _______ _______ _____ _____    ______ ____
ROOT
ATOM      4  O   UNL     1      -6.650   0.900  26.684  0.00  0.00    -0.268 OA
ATOM      6  N   UNL     1      -2.364  -0.255  24.488  0.00  0.00    -0.176 NA
ATOM      7  N   UNL     1      -4.960   1.405  25.143  0.00  0.00    -0.311 N 
ATOM      8  C   UNL     1      -4.461  -0.128  23.149  0.00  0.00    +0.025 C 
ATOM      9  C   UNL     1      -3.122   1.900  23.500  0.00  0.00    +0.053 C 
ATOM     10  C   UNL     1      -3.972   1.145  22.480  0.00  0.00    +0.017 C 
ATOM     11  C   UNL     1      -3.277  -1.007  23.583  0.00  0.00    +0.114 C 
ATOM     12  C   UNL     1      -1.908   1.036  23.894  0.00  0.00    +0.119 C 
ATOM     13  C   UNL     1      -5.362   0.253  24.324  0.00  0.00    +0.130 C 
ATOM     14  C   UNL     1      -3.938   2.286  24.737  0.00  0.00    +0.034 A 
ATOM     15  C   UNL     1      -3.699   3.418  25.450  0.00  0.00    +0.002 A 
ATOM     16  C   UNL     1      -5.738   1.629  26.293  0.00  0.00    +0.252 A 
ATOM     17  C   UNL     1      -4.479   3.680  26.644  0.00  0.00    +0.015 A 
ATOM     18  C   UNL     1      -5.432   2.853  27.069  0.00  0.00    +0.071 A 
ENDROOT
BRANCH  15  20
ATOM     20  C   UNL     1      -2.651   4.384  25.051  0.00  0.00    -0.016 A 
ATOM     23  C   UNL     1      -3.012   5.585  24.449  0.00  0.00    +0.008 A 
ATOM     24  C   UNL     1      -1.312   4.085  25.283  0.00  0.00    +0.008 A 
ATOM     27  C   UNL     1      -2.025   6.496  24.074  0.00  0.00    +0.001 A 
ATOM     28  C   UNL     1      -0.324   4.996  24.908  0.00  0.00    +0.001 A 
ATOM     30  C   UNL     1      -0.681   6.202  24.304  0.00  0.00    +0.000 A 
ENDBRANCH  15  20
BRANCH   6   1
ATOM      1  S   UNL     1      -1.152  -1.184  25.259  0.00  0.00    +0.061 S 
ATOM      2  O   UNL     1      -1.313  -2.573  24.888  0.00  0.00    -0.153 OA
ATOM      3  O   UNL     1      -1.070  -0.789  26.651  0.00  0.00    -0.153 OA
BRANCH   1  19
ATOM     19  C   UNL     1       0.282  -0.567  24.436  0.00  0.00    +0.106 A 
ATOM     21  C   UNL     1       0.470   0.802  24.334  0.00  0.00    +0.032 A 
ATOM     22  C   UNL     1       1.196  -1.463  23.904  0.00  0.00    +0.032 A 
ATOM     25  C   UNL     1       1.604   1.288  23.683  0.00  0.00    +0.047 A 
ATOM     26  C   UNL     1       2.330  -0.976  23.254  0.00  0.00    +0.047 A 
ATOM     29  C   UNL     1       2.533   0.400  23.144  0.00  0.00    +0.120 A 
BRANCH  29   5
ATOM      5  O   UNL     1       3.640   0.875  22.509  0.00  0.00    -0.495 OA
ATOM     31  C   UNL     1       4.907   0.474  23.027  0.00  0.00    +0.277 C 
ENDBRANCH  29   5
ENDBRANCH   1  19
ENDBRANCH   6   1
TORSDOF 4
ENDMDL
MODEL 7
REMARK VINA RESULT:      10.2      2.388      5.214
REMARK  Name = 7155442
REMARK  5 active torsions:
REMARK  status: ('A' for Active; 'I' for Inactive)
REMARK    1  A    between atoms: S_1  and  N_6
REMARK    2  A    between atoms: S_1  and  C_19
REMARK    3  A    between atoms: O_5  and  C_29
REMARK    4  A    between atoms: O_5  and  C_31
REMARK    5  A    between atoms: C_15  and  C_20
REMARK                            x       y       z     vdW  Elec       q    Type
REMARK                         _______ _______ _______ _____ _____    ______ ____
ROOT
ATOM      4  O   UNL     1       0.526   1.986  27.964  0.00  0.00    -0.268 OA
ATOM      6  N   UNL     1      -1.947   3.035  23.803  0.00  0.00    -0.176 NA
ATOM      7  N   UNL     1      -0.221   1.357  25.835  0.00  0.00    -0.311 N 
ATOM      8  C   UNL     1       0.509   2.624  23.728  0.00  0.00    +0.025 C 
ATOM      9  C   UNL     1      -1.043   0.731  23.543  0.00  0.00    +0.053 C 
ATOM     10  C   UNL     1       0.278   1.296  23.027  0.00  0.00    +0.017 C 
ATOM     11  C   UNL     1      -0.628   3.611  23.419  0.00  0.00    +0.114 C 
ATOM     12  C   UNL     1      -2.188   1.698  23.185  0.00  0.00    +0.119 C 
ATOM     13  C   UNL     1       0.660   2.365  25.228  0.00  0.00    +0.130 C 
ATOM     14  C   UNL     1      -0.997   0.479  25.053  0.00  0.00    +0.034 A 
ATOM     15  C   UNL     1      -1.683  -0.531  25.649  0.00  0.00    +0.002 A 
ATOM     16  C   UNL     1      -0.146   1.255  27.236  0.00  0.00    +0.252 A 
ATOM     17  C   UNL     1      -1.633  -0.665  27.092  0.00  0.00    +0.015 A 
ATOM     18  C   UNL     1      -0.931   0.166  27.861  0.00  0.00    +0.071 A 
ENDROOT
BRANCH  15  20
ATOM     20  C   UNL     1      -2.494  -1.490  24.868  0.00  0.00    -0.016 A 
ATOM     23  C   UNL     1      -3.819  -1.191  24.567  0.00  0.00    +0.008 A 
ATOM     24  C   UNL     1      -1.926  -2.686  24.439  0.00  0.00    +0.008 A 
ATOM     27  C   UNL     1      -4.584  -2.095  23.830  0.00  0.00    +0.001 A 
ATOM     28  C   UNL     1      -2.691  -3.591  23.702  0.00  0.00    +0.001 A 
ATOM     30  C   UNL     1      -4.020  -3.295  23.398  0.00  0.00    +0.000 A 
ENDBRANCH  15  20
BRANCH   6   1
ATOM      1  S   UNL     1      -3.270   4.119  23.764  0.00  0.00    +0.061 S 
ATOM      2  O   UNL     1      -3.771   4.207  22.409  0.00  0.00    -0.153 OA
ATOM      3  O   UNL     1      -2.923   5.313  24.508  0.00  0.00    -0.153 OA
BRANCH   1  19
ATOM     19  C   UNL     1      -4.444   3.209  24.717  0.00  0.00    +0.106 A 
ATOM     21  C   UNL     1      -4.665   3.561  26.038  0.00  0.00    +0.032 A 
ATOM     22  C   UNL     1      -5.126   2.156  24.126  0.00  0.00    +0.032 A 
ATOM     25  C   UNL     1      -5.594   2.841  26.790  0.00  0.00    +0.047 A 
ATOM     26  C   UNL     1      -6.055   1.437  24.878  0.00  0.00    +0.047 A 
ATOM     29  C   UNL     1      -6.288   1.780  26.210  0.00  0.00    +0.120 A 
BRANCH  29   5
ATOM      5  O   UNL     1      -7.195   1.078  26.944  0.00  0.00    -0.495 OA
ATOM     31  C   UNL     1      -6.911   0.903  28.331  0.00  0.00    +0.277 C 
ENDBRANCH  29   5
ENDBRANCH   1  19
ENDBRANCH   6   1
TORSDOF 4
ENDMDL
MODEL 8
REMARK VINA RESULT:      10.2      2.660      6.238
REMARK  Name = 7155442
REMARK  5 active torsions:
REMARK  status: ('A' for Active; 'I' for Inactive)
REMARK    1  A    between atoms: S_1  and  N_6
REMARK    2  A    between atoms: S_1  and  C_19
REMARK    3  A    between atoms: O_5  and  C_29
REMARK    4  A    between atoms: O_5  and  C_31
REMARK    5  A    between atoms: C_15  and  C_20
REMARK                            x       y       z     vdW  Elec       q    Type
REMARK                         _______ _______ _______ _____ _____    ______ ____
ROOT
ATOM      4  O   UNL     1      -3.534   4.295  28.087  0.00  0.00    -0.268 OA
ATOM      6  N   UNL     1      -4.333   0.016  25.725  0.00  0.00    -0.176 NA
ATOM      7  N   UNL     1      -4.393   3.121  26.251  0.00  0.00    -0.311 N 
ATOM      8  C   UNL     1      -6.258   1.382  26.523  0.00  0.00    +0.025 C 
ATOM      9  C   UNL     1      -5.301   1.816  24.304  0.00  0.00    +0.053 C 
ATOM     10  C   UNL     1      -6.608   1.749  25.091  0.00  0.00    +0.017 C 
ATOM     11  C   UNL     1      -5.552   0.018  26.582  0.00  0.00    +0.114 C 
ATOM     12  C   UNL     1      -4.622   0.432  24.321  0.00  0.00    +0.119 C 
ATOM     13  C   UNL     1      -5.404   2.503  27.119  0.00  0.00    +0.130 C 
ATOM     14  C   UNL     1      -4.362   2.889  24.862  0.00  0.00    +0.034 A 
ATOM     15  C   UNL     1      -3.504   3.593  24.078  0.00  0.00    +0.002 A 
ATOM     16  C   UNL     1      -3.539   4.044  26.882  0.00  0.00    +0.252 A 
ATOM     17  C   UNL     1      -2.606   4.550  24.694  0.00  0.00    +0.015 A 
ATOM     18  C   UNL     1      -2.592   4.772  26.007  0.00  0.00    +0.071 A 
ENDROOT
BRANCH  15  20
ATOM     20  C   UNL     1      -3.449   3.399  22.612  0.00  0.00    -0.016 A 
ATOM     23  C   UNL     1      -4.272   4.155  21.783  0.00  0.00    +0.008 A 
ATOM     24  C   UNL     1      -2.574   2.462  22.072  0.00  0.00    +0.008 A 
ATOM     27  C   UNL     1      -4.220   3.973  20.401  0.00  0.00    +0.001 A 
ATOM     28  C   UNL     1      -2.520   2.279  20.690  0.00  0.00    +0.001 A 
ATOM     30  C   UNL     1      -3.344   3.035  19.855  0.00  0.00    +0.000 A 
ENDBRANCH  15  20
BRANCH   6   1
ATOM      1  S   UNL     1      -3.306  -1.340  25.900  0.00  0.00    +0.061 S 
ATOM      2  O   UNL     1      -3.797  -2.417  25.068  0.00  0.00    -0.153 OA
ATOM      3  O   UNL     1      -3.037  -1.550  27.308  0.00  0.00    -0.153 OA
BRANCH   1  19
ATOM     19  C   UNL     1      -1.834  -0.711  25.156  0.00  0.00    +0.106 A 
ATOM     21  C   UNL     1      -1.487   0.615  25.353  0.00  0.00    +0.032 A 
ATOM     22  C   UNL     1      -1.049  -1.555  24.386  0.00  0.00    +0.032 A 
ATOM     25  C   UNL     1      -0.324   1.111  24.765  0.00  0.00    +0.047 A 
ATOM     26  C   UNL     1       0.115  -1.059  23.799  0.00  0.00    +0.047 A 
ATOM     29  C   UNL     1       0.476   0.275  23.988  0.00  0.00    +0.120 A 
BRANCH  29   5
ATOM      5  O   UNL     1       1.612   0.759  23.415  0.00  0.00    -0.495 OA
ATOM     31  C   UNL     1       2.207  -0.029  22.385  0.00  0.00    +0.277 C 
ENDBRANCH  29   5
ENDBRANCH   1  19
ENDBRANCH   6   1
TORSDOF 4
ENDMDL
MODEL 9
REMARK VINA RESULT:      10.3      3.069      6.523
REMARK  Name = 7155442
REMARK  5 active torsions:
REMARK  status: ('A' for Active; 'I' for Inactive)
REMARK    1  A    between atoms: S_1  and  N_6
REMARK    2  A    between atoms: S_1  and  C_19
REMARK    3  A    between atoms: O_5  and  C_29
REMARK    4  A    between atoms: O_5  and  C_31
REMARK    5  A    between atoms: C_15  and  C_20
REMARK                            x       y       z     vdW  Elec       q    Type
REMARK                         _______ _______ _______ _____ _____    ______ ____
ROOT
ATOM      4  O   UNL     1      -3.613   3.958  21.142  0.00  0.00    -0.268 OA
ATOM      6  N   UNL     1      -1.890   2.945  25.673  0.00  0.00    -0.176 NA
ATOM      7  N   UNL     1      -3.741   2.731  23.133  0.00  0.00    -0.311 N 
ATOM      8  C   UNL     1      -4.184   3.874  25.386  0.00  0.00    +0.025 C 
ATOM      9  C   UNL     1      -3.839   1.445  25.291  0.00  0.00    +0.053 C 
ATOM     10  C   UNL     1      -4.788   2.536  25.779  0.00  0.00    +0.017 C 
ATOM     11  C   UNL     1      -2.804   4.063  26.037  0.00  0.00    +0.114 C 
ATOM     12  C   UNL     1      -2.472   1.607  25.985  0.00  0.00    +0.119 C 
ATOM     13  C   UNL     1      -4.121   3.951  23.860  0.00  0.00    +0.130 C 
ATOM     14  C   UNL     1      -3.681   1.475  23.768  0.00  0.00    +0.034 A 
ATOM     15  C   UNL     1      -3.470   0.354  23.030  0.00  0.00    +0.002 A 
ATOM     16  C   UNL     1      -3.558   2.887  21.747  0.00  0.00    +0.252 A 
ATOM     17  C   UNL     1      -3.272   0.476  21.598  0.00  0.00    +0.015 A 
ATOM     18  C   UNL     1      -3.295   1.653  20.973  0.00  0.00    +0.071 A 
ENDROOT
BRANCH  15  20
ATOM     20  C   UNL     1      -3.420  -0.989  23.648  0.00  0.00    -0.016 A 
ATOM     23  C   UNL     1      -4.518  -1.837  23.550  0.00  0.00    +0.008 A 
ATOM     24  C   UNL     1      -2.272  -1.396  24.322  0.00  0.00    +0.008 A 
ATOM     27  C   UNL     1      -4.470  -3.104  24.132  0.00  0.00    +0.001 A 
ATOM     28  C   UNL     1      -2.224  -2.663  24.905  0.00  0.00    +0.001 A 
ATOM     30  C   UNL     1      -3.323  -3.517  24.809  0.00  0.00    +0.000 A 
ENDBRANCH  15  20
BRANCH   6   1
ATOM      1  S   UNL     1      -0.249   3.158  26.105  0.00  0.00    +0.061 S 
ATOM      2  O   UNL     1      -0.026   2.590  27.417  0.00  0.00    -0.153 OA
ATOM      3  O   UNL     1       0.144   4.520  25.807  0.00  0.00    -0.153 OA
BRANCH   1  19
ATOM     19  C   UNL     1       0.523   2.101  24.920  0.00  0.00    +0.106 A 
ATOM     21  C   UNL     1       0.034   0.818  24.737  0.00  0.00    +0.032 A 
ATOM     22  C   UNL     1       1.605   2.572  24.194  0.00  0.00    +0.032 A 
ATOM     25  C   UNL     1       0.645  -0.017  23.800  0.00  0.00    +0.047 A 
ATOM     26  C   UNL     1       2.215   1.738  23.258  0.00  0.00    +0.047 A 
ATOM     29  C   UNL     1       1.734   0.443  23.061  0.00  0.00    +0.120 A 
BRANCH  29   5
ATOM      5  O   UNL     1       2.329  -0.372  22.147  0.00  0.00    -0.495 OA
ATOM     31  C   UNL     1       3.568   0.068  21.595  0.00  0.00    +0.277 C 
ENDBRANCH  29   5
ENDBRANCH   1  19
ENDBRANCH   6   1
TORSDOF 4
ENDMDL
