MODEL 1
REMARK VINA RESULT:       1.4      0.000      0.000
REMARK  Name = 38030601
REMARK  11 active torsions:
REMARK  status: ('A' for Active; 'I' for Inactive)
REMARK    1  A    between atoms: N_3  and  C_12
REMARK    2  A    between atoms: C_7  and  C_11
REMARK    3  A    between atoms: C_8  and  C_12
REMARK    4  A    between atoms: C_10  and  C_15
REMARK    5  A    between atoms: C_11  and  C_16
REMARK    6  A    between atoms: C_11  and  C_17
REMARK    7  A    between atoms: C_14  and  C_20
REMARK    8  A    between atoms: C_15  and  C_23
REMARK    9  A    between atoms: C_24  and  C_26
REMARK   10  A    between atoms: C_25  and  C_27
REMARK   11  A    between atoms: C_32  and  C_33
REMARK                            x       y       z     vdW  Elec       q    Type
REMARK                         _______ _______ _______ _____ _____    ______ ____
ROOT
ATOM      7  C   UNL     1      -1.214   3.831  24.081  0.00  0.00    +0.000 C 
ATOM      8  C   UNL     1      -0.833   2.797  25.165  0.00  0.00    +0.029 C 
ATOM      9  C   UNL     1      -2.728   4.086  24.089  0.00  0.00    +0.012 C 
ATOM     10  C   UNL     1      -3.261   4.558  25.460  0.00  0.00    +0.024 C 
ATOM     13  C   UNL     1      -1.531   3.049  26.478  0.00  0.00    -0.023 C 
ATOM     14  C   UNL     1      -2.609   3.841  26.631  0.00  0.00    -0.073 C 
ATOM     20  C   UNL     1      -3.175   4.092  28.002  0.00  0.00    +0.039 C 
ENDROOT
BRANCH   7  11
ATOM     11  C   UNL     1      -0.430   5.139  24.255  0.00  0.00    -0.013 C 
ATOM     16  C   UNL     1       0.316   5.487  22.971  0.00  0.00    +0.007 C 
ATOM     17  C   UNL     1      -1.368   6.271  24.661  0.00  0.00    +0.007 C 
ENDBRANCH   7  11
BRANCH   8  12
ATOM     12  C   UNL     1      -1.124   1.364  24.708  0.00  0.00    +0.092 C 
BRANCH  12   3
ATOM      2  O   UNL     1       4.150  -1.831  23.574  0.00  0.00    -0.276 OA
ATOM      3  N   UNL     1      -0.042   0.863  23.862  0.00  0.00    -0.299 NA
ATOM      4  N   UNL     1       2.590  -0.130  23.316  0.00  0.00    -0.299 N 
ATOM     18  C   UNL     1       0.340  -0.498  24.264  0.00  0.00    +0.103 C 
ATOM     19  C   UNL     1       1.121   1.762  23.922  0.00  0.00    +0.103 C 
ATOM     21  C   UNL     1       1.446  -1.040  23.359  0.00  0.00    +0.123 C 
ATOM     22  C   UNL     1       2.248   1.263  23.015  0.00  0.00    +0.123 C 
ATOM     24  C   UNL     1       3.885  -0.635  23.433  0.00  0.00    +0.213 C 
ATOM     26  C   UNL     1       5.007   0.370  23.384  0.00  0.00    +0.109 C 
ENDBRANCH  12   3
ENDBRANCH   8  12
BRANCH  10  15
ATOM     15  C   UNL     1      -4.790   4.432  25.459  0.00  0.00    +0.105 C 
BRANCH  15  23
ATOM      1  O   UNL     1      -4.373   2.049  25.141  0.00  0.00    -0.420 OA
ATOM      5  N   UNL     1      -6.321   2.512  26.138  0.00  0.00    -0.112 NA
ATOM      6  N   UNL     1      -6.216   1.139  26.023  0.00  0.00    -0.107 NA
ATOM     23  C   UNL     1      -5.224   3.002  25.611  0.00  0.00    +0.218 A 
ATOM     25  C   UNL     1      -5.064   0.914  25.434  0.00  0.00    +0.248 A 
BRANCH  25  27
ATOM     27  C   UNL     1      -4.434  -0.319  25.061  0.00  0.00    +0.038 A 
ATOM     28  C   UNL     1      -4.773  -0.939  23.859  0.00  0.00    +0.013 A 
ATOM     29  C   UNL     1      -3.483  -0.899  25.901  0.00  0.00    +0.013 A 
ATOM     30  C   UNL     1      -4.160  -2.138  23.495  0.00  0.00    +0.004 A 
ATOM     31  C   UNL     1      -2.871  -2.098  25.538  0.00  0.00    +0.004 A 
ATOM     32  C   UNL     1      -3.209  -2.717  24.335  0.00  0.00    -0.050 A 
ATOM     33  C   UNL     1      -2.555  -4.000  23.946  0.00  0.00    +0.044 C 
ENDBRANCH  25  27
ENDBRANCH  15  23
ENDBRANCH  10  15
TORSDOF 6
ENDMDL
