MODEL 1
REMARK VINA RESULT:      -4.4      0.000      0.000
REMARK  Name = 26744916
REMARK  5 active torsions:
REMARK  status: ('A' for Active; 'I' for Inactive)
REMARK    1  A    between atoms: N_3  and  C_13
REMARK    2  A    between atoms: C_8  and  C_14
REMARK    3  A    between atoms: C_13  and  C_15
REMARK    4  A    between atoms: C_17  and  C_20
REMARK    5  A    between atoms: C_20  and  C_23
REMARK                            x       y       z     vdW  Elec       q    Type
REMARK                         _______ _______ _______ _____ _____    ______ ____
ROOT
ATOM      3  N   UNL     1      -0.175   0.412  24.496  0.00  0.00    -0.281 NA
ATOM      4  N   UNL     1       2.943  -0.875  22.857  0.00  0.00    -0.347 N 
ATOM      5  N   UNL     1       3.370   1.280  22.439  0.00  0.00    -0.240 NA
ATOM      8  C   UNL     1       0.431   1.747  24.833  0.00  0.00    +0.152 C 
ATOM      9  C   UNL     1       1.412   2.260  23.718  0.00  0.00    +0.086 C 
ATOM     10  C   UNL     1       0.857  -0.649  24.322  0.00  0.00    +0.140 C 
ATOM     11  C   UNL     1       1.972  -0.158  23.488  0.00  0.00    +0.053 A 
ATOM     12  C   UNL     1       2.258   1.156  23.224  0.00  0.00    +0.065 A 
ATOM     16  C   UNL     1       3.763   0.037  22.238  0.00  0.00    +0.197 A 
ATOM     30  H   UNL     1       3.049  -1.880  22.848  0.00  0.00    +0.167 HD
ENDROOT
BRANCH   8  14
ATOM      2  O   UNL     1      -0.181   4.122  24.892  0.00  0.00    -0.336 OA
ATOM      6  N   UNL     1      -1.838   2.741  25.492  0.00  0.00    -0.194 NA
ATOM      7  N   UNL     1      -1.279   4.939  25.194  0.00  0.00    -0.061 NA
ATOM     14  C   UNL     1      -0.595   2.844  25.094  0.00  0.00    +0.245 A 
ATOM     17  C   UNL     1      -2.216   4.050  25.539  0.00  0.00    +0.176 A 
BRANCH  17  20
ATOM     20  C   UNL     1      -3.564   4.462  25.944  0.00  0.00    +0.114 C 
BRANCH  20  23
ATOM     23  C   UNL     1      -4.657   3.432  25.669  0.00  0.00    -0.040 A 
ATOM     25  C   UNL     1      -4.867   2.967  24.371  0.00  0.00    +0.004 A 
ATOM     26  C   UNL     1      -5.444   2.955  26.717  0.00  0.00    +0.004 A 
ATOM     27  C   UNL     1      -5.864   2.025  24.121  0.00  0.00    +0.000 A 
ATOM     28  C   UNL     1      -6.442   2.013  26.467  0.00  0.00    +0.000 A 
ATOM     29  C   UNL     1      -6.653   1.549  25.169  0.00  0.00    +0.000 A 
ENDBRANCH  20  23
ENDBRANCH  17  20
ENDBRANCH   8  14
BRANCH   3  13
ATOM     13  C   UNL     1      -1.131  -0.040  25.515  0.00  0.00    +0.120 C 
BRANCH  13  15
ATOM      1  F   UNL     1      -5.198  -3.249  23.299  0.00  0.00    -0.205 F 
ATOM     15  C   UNL     1      -2.217  -0.898  24.923  0.00  0.00    -0.033 A 
ATOM     18  C   UNL     1      -3.365  -0.305  24.396  0.00  0.00    +0.008 A 
ATOM     19  C   UNL     1      -2.077  -2.286  24.902  0.00  0.00    +0.008 A 
ATOM     21  C   UNL     1      -4.372  -1.099  23.848  0.00  0.00    +0.038 A 
ATOM     22  C   UNL     1      -3.084  -3.080  24.354  0.00  0.00    +0.038 A 
ATOM     24  C   UNL     1      -4.232  -2.486  23.827  0.00  0.00    +0.123 A 
ENDBRANCH  13  15
ENDBRANCH   3  13
TORSDOF 5
ENDMDL
MODEL 2
REMARK VINA RESULT:      -3.6      2.595      4.413
REMARK  Name = 26744916
REMARK  5 active torsions:
REMARK  status: ('A' for Active; 'I' for Inactive)
REMARK    1  A    between atoms: N_3  and  C_13
REMARK    2  A    between atoms: C_8  and  C_14
REMARK    3  A    between atoms: C_13  and  C_15
REMARK    4  A    between atoms: C_17  and  C_20
REMARK    5  A    between atoms: C_20  and  C_23
REMARK                            x       y       z     vdW  Elec       q    Type
REMARK                         _______ _______ _______ _____ _____    ______ ____
ROOT
ATOM      3  N   UNL     1       1.683   1.190  23.635  0.00  0.00    -0.281 NA
ATOM      4  N   UNL     1       5.344   0.499  23.205  0.00  0.00    -0.347 N 
ATOM      5  N   UNL     1       4.813  -1.588  23.808  0.00  0.00    -0.240 NA
ATOM      8  C   UNL     1       1.276  -0.226  23.337  0.00  0.00    +0.152 C 
ATOM      9  C   UNL     1       2.298  -1.276  23.903  0.00  0.00    +0.086 C 
ATOM     10  C   UNL     1       3.009   1.534  23.046  0.00  0.00    +0.140 C 
ATOM     11  C   UNL     1       3.986   0.458  23.305  0.00  0.00    +0.053 A 
ATOM     12  C   UNL     1       3.685  -0.829  23.668  0.00  0.00    +0.065 A 
ATOM     16  C   UNL     1       5.797  -0.760  23.518  0.00  0.00    +0.197 A 
ATOM     30  H   UNL     1       5.911   1.294  22.946  0.00  0.00    +0.167 HD
ENDROOT
BRANCH   8  14
ATOM      2  O   UNL     1      -0.153  -1.386  24.960  0.00  0.00    -0.336 OA
ATOM      6  N   UNL     1      -1.286  -0.259  23.393  0.00  0.00    -0.194 NA
ATOM      7  N   UNL     1      -1.510  -1.587  25.242  0.00  0.00    -0.061 NA
ATOM     14  C   UNL     1      -0.109  -0.595  23.857  0.00  0.00    +0.245 A 
ATOM     17  C   UNL     1      -2.114  -0.891  24.274  0.00  0.00    +0.176 A 
BRANCH  17  20
ATOM     20  C   UNL     1      -3.575  -0.815  24.168  0.00  0.00    +0.114 C 
BRANCH  20  23
ATOM     23  C   UNL     1      -4.166   0.562  24.460  0.00  0.00    -0.040 A 
ATOM     25  C   UNL     1      -5.082   0.722  25.498  0.00  0.00    +0.004 A 
ATOM     26  C   UNL     1      -3.788   1.660  23.687  0.00  0.00    +0.004 A 
ATOM     27  C   UNL     1      -5.621   1.981  25.765  0.00  0.00    +0.000 A 
ATOM     28  C   UNL     1      -4.328   2.919  23.952  0.00  0.00    +0.000 A 
ATOM     29  C   UNL     1      -5.244   3.079  24.991  0.00  0.00    +0.000 A 
ENDBRANCH  20  23
ENDBRANCH  17  20
ENDBRANCH   8  14
BRANCH   3  13
ATOM     13  C   UNL     1       0.699   2.167  23.150  0.00  0.00    +0.120 C 
BRANCH  13  15
ATOM      1  F   UNL     1      -2.508   4.172  27.327  0.00  0.00    -0.205 F 
ATOM     15  C   UNL     1      -0.157   2.702  24.267  0.00  0.00    -0.033 A 
ATOM     18  C   UNL     1      -0.854   3.900  24.098  0.00  0.00    +0.008 A 
ATOM     19  C   UNL     1      -0.255   2.002  25.468  0.00  0.00    +0.008 A 
ATOM     21  C   UNL     1      -1.647   4.397  25.132  0.00  0.00    +0.038 A 
ATOM     22  C   UNL     1      -1.048   2.499  26.502  0.00  0.00    +0.038 A 
ATOM     24  C   UNL     1      -1.745   3.696  26.334  0.00  0.00    +0.123 A 
ENDBRANCH  13  15
ENDBRANCH   3  13
TORSDOF 5
ENDMDL
MODEL 3
REMARK VINA RESULT:      -3.5      2.244      6.982
REMARK  Name = 26744916
REMARK  5 active torsions:
REMARK  status: ('A' for Active; 'I' for Inactive)
REMARK    1  A    between atoms: N_3  and  C_13
REMARK    2  A    between atoms: C_8  and  C_14
REMARK    3  A    between atoms: C_13  and  C_15
REMARK    4  A    between atoms: C_17  and  C_20
REMARK    5  A    between atoms: C_20  and  C_23
REMARK                            x       y       z     vdW  Elec       q    Type
REMARK                         _______ _______ _______ _____ _____    ______ ____
ROOT
ATOM      3  N   UNL     1      -3.788   1.001  24.872  0.00  0.00    -0.281 NA
ATOM      4  N   UNL     1      -6.298   3.664  25.694  0.00  0.00    -0.347 N 
ATOM      5  N   UNL     1      -4.631   5.087  25.249  0.00  0.00    -0.240 NA
ATOM      8  C   UNL     1      -2.995   1.889  23.952  0.00  0.00    +0.152 C 
ATOM      9  C   UNL     1      -2.936   3.375  24.456  0.00  0.00    +0.086 C 
ATOM     10  C   UNL     1      -5.201   1.453  25.015  0.00  0.00    +0.140 C 
ATOM     11  C   UNL     1      -5.259   2.912  25.232  0.00  0.00    +0.053 A 
ATOM     12  C   UNL     1      -4.256   3.805  24.960  0.00  0.00    +0.065 A 
ATOM     16  C   UNL     1      -5.870   4.969  25.686  0.00  0.00    +0.197 A 
ATOM     30  H   UNL     1      -7.208   3.331  25.982  0.00  0.00    +0.167 HD
ENDROOT
BRANCH   8  14
ATOM      2  O   UNL     1      -0.621   1.892  24.572  0.00  0.00    -0.336 OA
ATOM      6  N   UNL     1      -1.097   0.609  22.800  0.00  0.00    -0.194 NA
ATOM      7  N   UNL     1       0.595   1.330  24.161  0.00  0.00    -0.061 NA
ATOM     14  C   UNL     1      -1.564   1.417  23.718  0.00  0.00    +0.245 A 
ATOM     17  C   UNL     1       0.231   0.587  23.111  0.00  0.00    +0.176 A 
BRANCH  17  20
ATOM     20  C   UNL     1       1.202  -0.202  22.345  0.00  0.00    +0.114 C 
BRANCH  20  23
ATOM     23  C   UNL     1       2.642  -0.101  22.842  0.00  0.00    -0.040 A 
ATOM     25  C   UNL     1       3.240  -1.192  23.471  0.00  0.00    +0.004 A 
ATOM     26  C   UNL     1       3.358   1.082  22.667  0.00  0.00    +0.004 A 
ATOM     27  C   UNL     1       4.556  -1.100  23.925  0.00  0.00    +0.000 A 
ATOM     28  C   UNL     1       4.674   1.175  23.121  0.00  0.00    +0.000 A 
ATOM     29  C   UNL     1       5.272   0.084  23.750  0.00  0.00    +0.000 A 
ENDBRANCH  20  23
ENDBRANCH  17  20
ENDBRANCH   8  14
BRANCH   3  13
ATOM     13  C   UNL     1      -3.797  -0.398  24.425  0.00  0.00    +0.120 C 
BRANCH  13  15
ATOM      1  F   UNL     1       0.921  -3.103  25.901  0.00  0.00    -0.205 F 
ATOM     15  C   UNL     1      -2.537  -1.121  24.819  0.00  0.00    -0.033 A 
ATOM     18  C   UNL     1      -1.801  -0.690  25.923  0.00  0.00    +0.008 A 
ATOM     19  C   UNL     1      -2.104  -2.222  24.080  0.00  0.00    +0.008 A 
ATOM     21  C   UNL     1      -0.633  -1.359  26.288  0.00  0.00    +0.038 A 
ATOM     22  C   UNL     1      -0.936  -2.891  24.444  0.00  0.00    +0.038 A 
ATOM     24  C   UNL     1      -0.200  -2.459  25.549  0.00  0.00    +0.123 A 
ENDBRANCH  13  15
ENDBRANCH   3  13
TORSDOF 5
ENDMDL
MODEL 4
REMARK VINA RESULT:      -3.4     14.422     17.084
REMARK  Name = 26744916
REMARK  5 active torsions:
REMARK  status: ('A' for Active; 'I' for Inactive)
REMARK    1  A    between atoms: N_3  and  C_13
REMARK    2  A    between atoms: C_8  and  C_14
REMARK    3  A    between atoms: C_13  and  C_15
REMARK    4  A    between atoms: C_17  and  C_20
REMARK    5  A    between atoms: C_20  and  C_23
REMARK                            x       y       z     vdW  Elec       q    Type
REMARK                         _______ _______ _______ _____ _____    ______ ____
ROOT
ATOM      3  N   UNL     1      -4.470 -10.780  13.596  0.00  0.00    -0.281 NA
ATOM      4  N   UNL     1      -2.051 -10.430  16.441  0.00  0.00    -0.347 N 
ATOM      5  N   UNL     1      -0.567  -9.917  14.849  0.00  0.00    -0.240 NA
ATOM      8  C   UNL     1      -3.733  -9.809  12.716  0.00  0.00    +0.152 C 
ATOM      9  C   UNL     1      -2.175  -9.905  12.888  0.00  0.00    +0.086 C 
ATOM     10  C   UNL     1      -4.191 -10.555  15.043  0.00  0.00    +0.140 C 
ATOM     11  C   UNL     1      -2.745 -10.367  15.270  0.00  0.00    +0.053 A 
ATOM     12  C   UNL     1      -1.817 -10.045  14.314  0.00  0.00    +0.065 A 
ATOM     16  C   UNL     1      -0.741 -10.152  16.135  0.00  0.00    +0.197 A 
ATOM     30  H   UNL     1      -2.423 -10.635  17.358  0.00  0.00    +0.167 HD
ENDROOT
BRANCH   8  14
ATOM      2  O   UNL     1      -3.232 -10.768  10.514  0.00  0.00    -0.336 OA
ATOM      6  N   UNL     1      -5.008  -9.404  10.529  0.00  0.00    -0.194 NA
ATOM      7  N   UNL     1      -3.713 -10.741   9.198  0.00  0.00    -0.061 NA
ATOM     14  C   UNL     1      -4.050  -9.955  11.232  0.00  0.00    +0.245 A 
ATOM     17  C   UNL     1      -4.761  -9.915   9.289  0.00  0.00    +0.176 A 
BRANCH  17  20
ATOM     20  C   UNL     1      -5.589  -9.582   8.126  0.00  0.00    +0.114 C 
BRANCH  20  23
ATOM     23  C   UNL     1      -7.010  -9.133   8.460  0.00  0.00    -0.040 A 
ATOM     25  C   UNL     1      -7.374  -7.796   8.304  0.00  0.00    +0.004 A 
ATOM     26  C   UNL     1      -7.943 -10.061   8.920  0.00  0.00    +0.004 A 
ATOM     27  C   UNL     1      -8.672  -7.387   8.609  0.00  0.00    +0.000 A 
ATOM     28  C   UNL     1      -9.241  -9.652   9.226  0.00  0.00    +0.000 A 
ATOM     29  C   UNL     1      -9.605  -8.315   9.070  0.00  0.00    +0.000 A 
ENDBRANCH  20  23
ENDBRANCH  17  20
ENDBRANCH   8  14
BRANCH   3  13
ATOM     13  C   UNL     1      -5.924 -10.723  13.395  0.00  0.00    +0.120 C 
BRANCH  13  15
ATOM      1  F   UNL     1      -8.607  -8.909  18.007  0.00  0.00    -0.205 F 
ATOM     15  C   UNL     1      -6.641 -10.238  14.627  0.00  0.00    -0.033 A 
ATOM     18  C   UNL     1      -6.158 -10.572  15.892  0.00  0.00    +0.008 A 
ATOM     19  C   UNL     1      -7.789  -9.455  14.503  0.00  0.00    +0.008 A 
ATOM     21  C   UNL     1      -6.822 -10.124  17.034  0.00  0.00    +0.038 A 
ATOM     22  C   UNL     1      -8.454  -9.007  15.645  0.00  0.00    +0.038 A 
ATOM     24  C   UNL     1      -7.970  -9.341  16.910  0.00  0.00    +0.123 A 
ENDBRANCH  13  15
ENDBRANCH   3  13
TORSDOF 5
ENDMDL
MODEL 5
REMARK VINA RESULT:      -2.6      1.797      6.775
REMARK  Name = 26744916
REMARK  5 active torsions:
REMARK  status: ('A' for Active; 'I' for Inactive)
REMARK    1  A    between atoms: N_3  and  C_13
REMARK    2  A    between atoms: C_8  and  C_14
REMARK    3  A    between atoms: C_13  and  C_15
REMARK    4  A    between atoms: C_17  and  C_20
REMARK    5  A    between atoms: C_20  and  C_23
REMARK                            x       y       z     vdW  Elec       q    Type
REMARK                         _______ _______ _______ _____ _____    ______ ____
ROOT
ATOM      3  N   UNL     1      -2.493   1.283  25.730  0.00  0.00    -0.281 NA
ATOM      4  N   UNL     1      -5.530   3.478  25.889  0.00  0.00    -0.347 N 
ATOM      5  N   UNL     1      -4.519   4.649  24.275  0.00  0.00    -0.240 NA
ATOM      8  C   UNL     1      -2.209   1.607  24.290  0.00  0.00    +0.152 C 
ATOM      9  C   UNL     1      -2.539   3.101  23.934  0.00  0.00    +0.086 C 
ATOM     10  C   UNL     1      -3.926   1.494  26.085  0.00  0.00    +0.140 C 
ATOM     11  C   UNL     1      -4.409   2.783  25.551  0.00  0.00    +0.053 A 
ATOM     12  C   UNL     1      -3.811   3.515  24.558  0.00  0.00    +0.065 A 
ATOM     16  C   UNL     1      -5.552   4.596  25.092  0.00  0.00    +0.197 A 
ATOM     30  H   UNL     1      -6.217   3.223  26.585  0.00  0.00    +0.167 HD
ENDROOT
BRANCH   8  14
ATOM      2  O   UNL     1       0.184   2.141  24.395  0.00  0.00    -0.336 OA
ATOM      6  N   UNL     1      -0.306   0.418  23.051  0.00  0.00    -0.194 NA
ATOM      7  N   UNL     1       1.404   1.703  23.864  0.00  0.00    -0.061 NA
ATOM     14  C   UNL     1      -0.771   1.332  23.865  0.00  0.00    +0.245 A 
ATOM     17  C   UNL     1       1.031   0.685  23.082  0.00  0.00    +0.176 A 
BRANCH  17  20
ATOM     20  C   UNL     1       2.003  -0.094  22.306  0.00  0.00    +0.114 C 
BRANCH  20  23
ATOM     23  C   UNL     1       3.386  -0.205  22.941  0.00  0.00    -0.040 A 
ATOM     25  C   UNL     1       3.779  -1.395  23.553  0.00  0.00    +0.004 A 
ATOM     26  C   UNL     1       4.257   0.884  22.909  0.00  0.00    +0.004 A 
ATOM     27  C   UNL     1       5.044  -1.496  24.133  0.00  0.00    +0.000 A 
ATOM     28  C   UNL     1       5.522   0.783  23.490  0.00  0.00    +0.000 A 
ATOM     29  C   UNL     1       5.914  -0.406  24.101  0.00  0.00    +0.000 A 
ENDBRANCH  20  23
ENDBRANCH  17  20
ENDBRANCH   8  14
BRANCH   3  13
ATOM     13  C   UNL     1      -2.135  -0.100  26.072  0.00  0.00    +0.120 C 
BRANCH  13  15
ATOM      1  F   UNL     1      -4.757  -3.825  22.756  0.00  0.00    -0.205 F 
ATOM     15  C   UNL     1      -2.835  -1.096  25.186  0.00  0.00    -0.033 A 
ATOM     18  C   UNL     1      -4.075  -0.782  24.628  0.00  0.00    +0.008 A 
ATOM     19  C   UNL     1      -2.245  -2.332  24.923  0.00  0.00    +0.008 A 
ATOM     21  C   UNL     1      -4.725  -1.704  23.808  0.00  0.00    +0.038 A 
ATOM     22  C   UNL     1      -2.894  -3.254  24.103  0.00  0.00    +0.038 A 
ATOM     24  C   UNL     1      -4.134  -2.940  23.545  0.00  0.00    +0.123 A 
ENDBRANCH  13  15
ENDBRANCH   3  13
TORSDOF 5
ENDMDL
MODEL 6
REMARK VINA RESULT:      -2.1      2.768      7.336
REMARK  Name = 26744916
REMARK  5 active torsions:
REMARK  status: ('A' for Active; 'I' for Inactive)
REMARK    1  A    between atoms: N_3  and  C_13
REMARK    2  A    between atoms: C_8  and  C_14
REMARK    3  A    between atoms: C_13  and  C_15
REMARK    4  A    between atoms: C_17  and  C_20
REMARK    5  A    between atoms: C_20  and  C_23
REMARK                            x       y       z     vdW  Elec       q    Type
REMARK                         _______ _______ _______ _____ _____    ______ ____
ROOT
ATOM      3  N   UNL     1      -2.527   0.469  23.023  0.00  0.00    -0.281 NA
ATOM      4  N   UNL     1      -4.820  -2.337  23.988  0.00  0.00    -0.347 N 
ATOM      5  N   UNL     1      -2.975  -3.291  24.816  0.00  0.00    -0.240 NA
ATOM      8  C   UNL     1      -1.548   0.184  24.128  0.00  0.00    +0.152 C 
ATOM      9  C   UNL     1      -1.390  -1.353  24.410  0.00  0.00    +0.086 C 
ATOM     10  C   UNL     1      -3.892  -0.045  23.331  0.00  0.00    +0.140 C 
ATOM     11  C   UNL     1      -3.821  -1.420  23.864  0.00  0.00    +0.053 A 
ATOM     12  C   UNL     1      -2.705  -2.023  24.383  0.00  0.00    +0.065 A 
ATOM     16  C   UNL     1      -4.260  -3.450  24.567  0.00  0.00    +0.197 A 
ATOM     30  H   UNL     1      -5.787  -2.225  23.715  0.00  0.00    +0.167 HD
ENDROOT
BRANCH   8  14
ATOM      2  O   UNL     1       0.199   1.828  24.646  0.00  0.00    -0.336 OA
ATOM      6  N   UNL     1       0.765   0.376  23.039  0.00  0.00    -0.194 NA
ATOM      7  N   UNL     1       1.496   2.175  24.247  0.00  0.00    -0.061 NA
ATOM     14  C   UNL     1      -0.157   0.760  23.886  0.00  0.00    +0.245 A 
ATOM     17  C   UNL     1       1.759   1.272  23.297  0.00  0.00    +0.176 A 
BRANCH  17  20
ATOM     20  C   UNL     1       3.038   1.252  22.578  0.00  0.00    +0.114 C 
BRANCH  20  23
ATOM     23  C   UNL     1       4.091   0.322  23.175  0.00  0.00    -0.040 A 
ATOM     25  C   UNL     1       5.365   0.807  23.468  0.00  0.00    +0.004 A 
ATOM     26  C   UNL     1       3.778  -1.014  23.426  0.00  0.00    +0.004 A 
ATOM     27  C   UNL     1       6.327  -0.043  24.013  0.00  0.00    +0.000 A 
ATOM     28  C   UNL     1       4.740  -1.865  23.971  0.00  0.00    +0.000 A 
ATOM     29  C   UNL     1       6.014  -1.380  24.264  0.00  0.00    +0.000 A 
ENDBRANCH  20  23
ENDBRANCH  17  20
ENDBRANCH   8  14
BRANCH   3  13
ATOM     13  C   UNL     1      -2.633   1.903  22.726  0.00  0.00    +0.120 C 
BRANCH  13  15
ATOM      1  F   UNL     1      -3.597   4.942  27.372  0.00  0.00    -0.205 F 
ATOM     15  C   UNL     1      -2.892   2.715  23.968  0.00  0.00    -0.033 A 
ATOM     18  C   UNL     1      -1.911   3.582  24.450  0.00  0.00    +0.008 A 
ATOM     19  C   UNL     1      -4.110   2.600  24.636  0.00  0.00    +0.008 A 
ATOM     21  C   UNL     1      -2.149   4.333  25.601  0.00  0.00    +0.038 A 
ATOM     22  C   UNL     1      -4.349   3.352  25.786  0.00  0.00    +0.038 A 
ATOM     24  C   UNL     1      -3.368   4.219  26.269  0.00  0.00    +0.123 A 
ENDBRANCH  13  15
ENDBRANCH   3  13
TORSDOF 5
ENDMDL
