MODEL 1
REMARK VINA RESULT:       0.2      0.000      0.000
REMARK  Name = 28961828
REMARK  12 active torsions:
REMARK  status: ('A' for Active; 'I' for Inactive)
REMARK    1  A    between atoms: O_5  and  C_16
REMARK    2  A    between atoms: O_6  and  C_22
REMARK    3  A    between atoms: O_6  and  C_25
REMARK    4  A    between atoms: O_7  and  C_23
REMARK    5  A    between atoms: O_9  and  C_31
REMARK    6  A    between atoms: O_9  and  C_32
REMARK    7  A    between atoms: N_10  and  C_13
REMARK    8  A    between atoms: N_11  and  C_21
REMARK    9  A    between atoms: N_12  and  C_26
REMARK   10  A    between atoms: C_14  and  C_22
REMARK   11  A    between atoms: C_15  and  C_21
REMARK   12  A    between atoms: C_18  and  C_23
REMARK                            x       y       z     vdW  Elec       q    Type
REMARK                         _______ _______ _______ _____ _____    ______ ____
ROOT
ATOM      4  O   UNL     1      -4.419   3.508  25.544  0.00  0.00    -0.365 OA
ATOM     13  C   UNL     1      -4.241   1.140  25.385  0.00  0.00    +0.118 C 
ATOM     15  C   UNL     1      -3.573   2.468  25.005  0.00  0.00    +0.155 C 
ATOM     16  C   UNL     1      -5.706   1.522  25.531  0.00  0.00    +0.165 C 
ATOM     18  C   UNL     1      -5.575   2.904  26.157  0.00  0.00    +0.174 C 
ENDROOT
BRANCH  13  10
ATOM     10  N   UNL     1      -3.978   0.015  24.505  0.00  0.00    -0.289 NA
ATOM     14  C   UNL     1      -2.712  -0.690  24.737  0.00  0.00    +0.083 C 
ATOM     17  C   UNL     1      -5.040  -0.989  24.527  0.00  0.00    +0.085 C 
ATOM     19  C   UNL     1      -2.903  -1.924  23.857  0.00  0.00    +0.022 C 
ATOM     20  C   UNL     1      -4.394  -2.237  23.937  0.00  0.00    +0.017 C 
BRANCH  14  22
ATOM     22  C   UNL     1      -2.414  -1.077  26.189  0.00  0.00    +0.178 C 
BRANCH  22   6
ATOM      6  O   UNL     1      -1.024  -0.932  26.420  0.00  0.00    -0.381 OA
ATOM     25  C   UNL     1      -0.254  -1.446  25.338  0.00  0.00    +0.194 C 
ENDBRANCH  22   6
ENDBRANCH  14  22
ENDBRANCH  13  10
BRANCH  16   5
ATOM      5  O   UNL     1      -6.349   1.609  24.265  0.00  0.00    -0.388 OA
ATOM     33  H   UNL     1      -6.402   2.550  24.027  0.00  0.00    +0.210 HD
ENDBRANCH  16   5
BRANCH  15  21
ATOM     21  C   UNL     1      -3.407   2.749  23.516  0.00  0.00    +0.139 C 
BRANCH  21  11
ATOM      8  O   UNL     1      -0.600   2.772  24.084  0.00  0.00    -0.253 OA
ATOM     11  N   UNL     1      -2.410   1.898  22.939  0.00  0.00    -0.297 N 
ATOM     12  N   UNL     1      -0.314   1.019  22.549  0.00  0.00    -0.269 N 
ATOM     24  C   UNL     1      -1.045   1.969  23.268  0.00  0.00    +0.304 C 
ATOM     34  H   UNL     1      -2.705   1.218  22.245  0.00  0.00    +0.150 HD
ATOM     36  H   UNL     1      -0.839   0.428  21.910  0.00  0.00    +0.156 HD
BRANCH  12  26
ATOM     26  C   UNL     1       1.078   0.776  22.599  0.00  0.00    +0.035 A 
ATOM     27  C   UNL     1       1.595  -0.422  22.107  0.00  0.00    +0.027 A 
ATOM     28  C   UNL     1       1.935   1.734  23.142  0.00  0.00    +0.027 A 
ATOM     29  C   UNL     1       2.968  -0.663  22.157  0.00  0.00    +0.048 A 
ATOM     30  C   UNL     1       3.308   1.494  23.192  0.00  0.00    +0.048 A 
ATOM     31  C   UNL     1       3.825   0.295  22.699  0.00  0.00    +0.130 A 
BRANCH  31   9
ATOM      9  O   UNL     1       5.164   0.061  22.747  0.00  0.00    -0.406 OA
BRANCH   9  32
ATOM      1  F   UNL     1       7.075  -0.366  23.870  0.00  0.00    -0.133 F 
ATOM      2  F   UNL     1       5.383   0.440  24.993  0.00  0.00    -0.133 F 
ATOM      3  F   UNL     1       5.347  -1.645  24.261  0.00  0.00    -0.133 F 
ATOM     32  C   UNL     1       5.727  -0.380  23.978  0.00  0.00    +0.575 C 
ENDBRANCH   9  32
ENDBRANCH  31   9
ENDBRANCH  12  26
ENDBRANCH  21  11
ENDBRANCH  15  21
BRANCH  18  23
ATOM     23  C   UNL     1      -6.773   3.820  25.975  0.00  0.00    +0.190 C 
BRANCH  23   7
ATOM      7  O   UNL     1      -6.311   5.147  25.782  0.00  0.00    -0.392 OA
ATOM     35  H   UNL     1      -6.778   5.708  26.425  0.00  0.00    +0.210 HD
ENDBRANCH  23   7
ENDBRANCH  18  23
TORSDOF 11
ENDMDL
MODEL 2
REMARK VINA RESULT:       1.1      1.656      3.981
REMARK  Name = 28961828
REMARK  12 active torsions:
REMARK  status: ('A' for Active; 'I' for Inactive)
REMARK    1  A    between atoms: O_5  and  C_16
REMARK    2  A    between atoms: O_6  and  C_22
REMARK    3  A    between atoms: O_6  and  C_25
REMARK    4  A    between atoms: O_7  and  C_23
REMARK    5  A    between atoms: O_9  and  C_31
REMARK    6  A    between atoms: O_9  and  C_32
REMARK    7  A    between atoms: N_10  and  C_13
REMARK    8  A    between atoms: N_11  and  C_21
REMARK    9  A    between atoms: N_12  and  C_26
REMARK   10  A    between atoms: C_14  and  C_22
REMARK   11  A    between atoms: C_15  and  C_21
REMARK   12  A    between atoms: C_18  and  C_23
REMARK                            x       y       z     vdW  Elec       q    Type
REMARK                         _______ _______ _______ _____ _____    ______ ____
ROOT
ATOM      4  O   UNL     1      -4.699  -0.346  24.571  0.00  0.00    -0.365 OA
ATOM     13  C   UNL     1      -3.401   1.402  25.533  0.00  0.00    +0.118 C 
ATOM     15  C   UNL     1      -4.376   1.052  24.401  0.00  0.00    +0.155 C 
ATOM     16  C   UNL     1      -2.751   0.064  25.851  0.00  0.00    +0.165 C 
ATOM     18  C   UNL     1      -3.938  -0.874  25.675  0.00  0.00    +0.174 C 
ENDROOT
BRANCH  13  10
ATOM     10  N   UNL     1      -2.478   2.492  25.270  0.00  0.00    -0.289 NA
ATOM     14  C   UNL     1      -3.035   3.842  25.414  0.00  0.00    +0.083 C 
ATOM     17  C   UNL     1      -1.273   2.433  26.096  0.00  0.00    +0.085 C 
ATOM     19  C   UNL     1      -1.764   4.687  25.343  0.00  0.00    +0.022 C 
ATOM     20  C   UNL     1      -0.689   3.838  26.014  0.00  0.00    +0.017 C 
BRANCH  14  22
ATOM     22  C   UNL     1      -3.817   4.115  26.702  0.00  0.00    +0.178 C 
BRANCH  22   6
ATOM      6  O   UNL     1      -5.140   3.635  26.538  0.00  0.00    -0.381 OA
ATOM     25  C   UNL     1      -5.787   4.244  25.426  0.00  0.00    +0.194 C 
ENDBRANCH  22   6
ENDBRANCH  14  22
ENDBRANCH  13  10
BRANCH  16   5
ATOM      5  O   UNL     1      -1.726  -0.252  24.917  0.00  0.00    -0.388 OA
ATOM     33  H   UNL     1      -1.182  -0.958  25.305  0.00  0.00    +0.210 HD
ENDBRANCH  16   5
BRANCH  15  21
ATOM     21  C   UNL     1      -3.862   1.227  22.977  0.00  0.00    +0.139 C 
BRANCH  21  11
ATOM      8  O   UNL     1      -1.172   2.202  23.095  0.00  0.00    -0.253 OA
ATOM     11  N   UNL     1      -2.667   0.468  22.762  0.00  0.00    -0.297 N 
ATOM     12  N   UNL     1      -0.408   0.042  22.582  0.00  0.00    -0.269 N 
ATOM     24  C   UNL     1      -1.376   1.018  22.837  0.00  0.00    +0.304 C 
ATOM     34  H   UNL     1      -2.760  -0.516  22.531  0.00  0.00    +0.150 HD
ATOM     36  H   UNL     1      -0.747  -0.896  22.384  0.00  0.00    +0.156 HD
BRANCH  12  26
ATOM     26  C   UNL     1       0.998   0.197  22.564  0.00  0.00    +0.035 A 
ATOM     27  C   UNL     1       1.759  -0.458  21.597  0.00  0.00    +0.027 A 
ATOM     28  C   UNL     1       1.623   1.006  23.514  0.00  0.00    +0.027 A 
ATOM     29  C   UNL     1       3.146  -0.305  21.580  0.00  0.00    +0.048 A 
ATOM     30  C   UNL     1       3.008   1.159  23.496  0.00  0.00    +0.048 A 
ATOM     31  C   UNL     1       3.771   0.504  22.529  0.00  0.00    +0.130 A 
BRANCH  31   9
ATOM      9  O   UNL     1       5.123   0.653  22.512  0.00  0.00    -0.406 OA
BRANCH   9  32
ATOM      1  F   UNL     1       5.930   0.824  24.613  0.00  0.00    -0.133 F 
ATOM      2  F   UNL     1       5.314  -1.150  23.907  0.00  0.00    -0.133 F 
ATOM      3  F   UNL     1       7.153  -0.206  23.123  0.00  0.00    -0.133 F 
ATOM     32  C   UNL     1       5.884   0.014  23.530  0.00  0.00    +0.575 C 
ENDBRANCH   9  32
ENDBRANCH  31   9
ENDBRANCH  12  26
ENDBRANCH  21  11
ENDBRANCH  15  21
BRANCH  18  23
ATOM     23  C   UNL     1      -3.588  -2.325  25.392  0.00  0.00    +0.190 C 
BRANCH  23   7
ATOM      7  O   UNL     1      -3.428  -2.493  23.993  0.00  0.00    -0.392 OA
ATOM     35  H   UNL     1      -3.502  -1.612  23.588  0.00  0.00    +0.210 HD
ENDBRANCH  23   7
ENDBRANCH  18  23
TORSDOF 11
ENDMDL
MODEL 3
REMARK VINA RESULT:       1.4      1.424      2.072
REMARK  Name = 28961828
REMARK  12 active torsions:
REMARK  status: ('A' for Active; 'I' for Inactive)
REMARK    1  A    between atoms: O_5  and  C_16
REMARK    2  A    between atoms: O_6  and  C_22
REMARK    3  A    between atoms: O_6  and  C_25
REMARK    4  A    between atoms: O_7  and  C_23
REMARK    5  A    between atoms: O_9  and  C_31
REMARK    6  A    between atoms: O_9  and  C_32
REMARK    7  A    between atoms: N_10  and  C_13
REMARK    8  A    between atoms: N_11  and  C_21
REMARK    9  A    between atoms: N_12  and  C_26
REMARK   10  A    between atoms: C_14  and  C_22
REMARK   11  A    between atoms: C_15  and  C_21
REMARK   12  A    between atoms: C_18  and  C_23
REMARK                            x       y       z     vdW  Elec       q    Type
REMARK                         _______ _______ _______ _____ _____    ______ ____
ROOT
ATOM      4  O   UNL     1      -4.597   3.847  26.491  0.00  0.00    -0.365 OA
ATOM     13  C   UNL     1      -3.921   1.765  25.556  0.00  0.00    +0.118 C 
ATOM     15  C   UNL     1      -3.497   2.910  26.486  0.00  0.00    +0.155 C 
ATOM     16  C   UNL     1      -4.913   2.435  24.619  0.00  0.00    +0.165 C 
ATOM     18  C   UNL     1      -5.615   3.383  25.582  0.00  0.00    +0.174 C 
ENDROOT
BRANCH  13  10
ATOM     10  N   UNL     1      -2.846   1.038  24.904  0.00  0.00    -0.289 NA
ATOM     14  C   UNL     1      -2.482  -0.243  25.520  0.00  0.00    +0.083 C 
ATOM     17  C   UNL     1      -3.107   0.778  23.490  0.00  0.00    +0.085 C 
ATOM     19  C   UNL     1      -1.560  -0.826  24.451  0.00  0.00    +0.022 C 
ATOM     20  C   UNL     1      -2.138  -0.340  23.125  0.00  0.00    +0.017 C 
BRANCH  14  22
ATOM     22  C   UNL     1      -3.642  -1.192  25.836  0.00  0.00    +0.178 C 
BRANCH  22   6
ATOM      6  O   UNL     1      -3.285  -2.498  25.421  0.00  0.00    -0.381 OA
ATOM     25  C   UNL     1      -4.026  -2.907  24.276  0.00  0.00    +0.194 C 
ENDBRANCH  22   6
ENDBRANCH  14  22
ENDBRANCH  13  10
BRANCH  16   5
ATOM      5  O   UNL     1      -4.251   3.167  23.596  0.00  0.00    -0.388 OA
ATOM     33  H   UNL     1      -3.327   3.291  23.874  0.00  0.00    +0.210 HD
ENDBRANCH  16   5
BRANCH  15  21
ATOM     21  C   UNL     1      -2.246   3.686  26.091  0.00  0.00    +0.139 C 
BRANCH  21  11
ATOM      8  O   UNL     1       0.415   2.630  26.035  0.00  0.00    -0.253 OA
ATOM     11  N   UNL     1      -1.591   3.075  24.974  0.00  0.00    -0.297 N 
ATOM     12  N   UNL     1       0.093   2.040  23.786  0.00  0.00    -0.269 N 
ATOM     24  C   UNL     1      -0.277   2.578  25.022  0.00  0.00    +0.304 C 
ATOM     34  H   UNL     1      -2.100   3.010  24.098  0.00  0.00    +0.150 HD
ATOM     36  H   UNL     1      -0.604   2.076  23.046  0.00  0.00    +0.156 HD
BRANCH  12  26
ATOM     26  C   UNL     1       1.326   1.446  23.432  0.00  0.00    +0.035 A 
ATOM     27  C   UNL     1       2.438   2.248  23.178  0.00  0.00    +0.027 A 
ATOM     28  C   UNL     1       1.432   0.058  23.338  0.00  0.00    +0.027 A 
ATOM     29  C   UNL     1       3.655   1.663  22.828  0.00  0.00    +0.048 A 
ATOM     30  C   UNL     1       2.648  -0.527  22.989  0.00  0.00    +0.048 A 
ATOM     31  C   UNL     1       3.761   0.275  22.734  0.00  0.00    +0.130 A 
BRANCH  31   9
ATOM      9  O   UNL     1       4.948  -0.297  22.394  0.00  0.00    -0.406 OA
BRANCH   9  32
ATOM      1  F   UNL     1       5.688  -1.481  24.167  0.00  0.00    -0.133 F 
ATOM      2  F   UNL     1       7.173  -0.581  22.841  0.00  0.00    -0.133 F 
ATOM      3  F   UNL     1       5.967   0.687  24.191  0.00  0.00    -0.133 F 
ATOM     32  C   UNL     1       5.955  -0.404  23.394  0.00  0.00    +0.575 C 
ENDBRANCH   9  32
ENDBRANCH  31   9
ENDBRANCH  12  26
ENDBRANCH  21  11
ENDBRANCH  15  21
BRANCH  18  23
ATOM     23  C   UNL     1      -6.296   4.580  24.942  0.00  0.00    +0.190 C 
BRANCH  23   7
ATOM      7  O   UNL     1      -6.553   5.552  25.943  0.00  0.00    -0.392 OA
ATOM     35  H   UNL     1      -7.492   5.794  25.871  0.00  0.00    +0.210 HD
ENDBRANCH  23   7
ENDBRANCH  18  23
TORSDOF 11
ENDMDL
MODEL 4
REMARK VINA RESULT:       1.5      1.803      4.192
REMARK  Name = 28961828
REMARK  12 active torsions:
REMARK  status: ('A' for Active; 'I' for Inactive)
REMARK    1  A    between atoms: O_5  and  C_16
REMARK    2  A    between atoms: O_6  and  C_22
REMARK    3  A    between atoms: O_6  and  C_25
REMARK    4  A    between atoms: O_7  and  C_23
REMARK    5  A    between atoms: O_9  and  C_31
REMARK    6  A    between atoms: O_9  and  C_32
REMARK    7  A    between atoms: N_10  and  C_13
REMARK    8  A    between atoms: N_11  and  C_21
REMARK    9  A    between atoms: N_12  and  C_26
REMARK   10  A    between atoms: C_14  and  C_22
REMARK   11  A    between atoms: C_15  and  C_21
REMARK   12  A    between atoms: C_18  and  C_23
REMARK                            x       y       z     vdW  Elec       q    Type
REMARK                         _______ _______ _______ _____ _____    ______ ____
ROOT
ATOM      4  O   UNL     1      -4.227  -0.794  24.449  0.00  0.00    -0.365 OA
ATOM     13  C   UNL     1      -2.985   1.002  25.398  0.00  0.00    +0.118 C 
ATOM     15  C   UNL     1      -3.846   0.577  24.200  0.00  0.00    +0.155 C 
ATOM     16  C   UNL     1      -2.414  -0.318  25.894  0.00  0.00    +0.165 C 
ATOM     18  C   UNL     1      -3.604  -1.242  25.669  0.00  0.00    +0.174 C 
ENDROOT
BRANCH  13  10
ATOM     10  N   UNL     1      -2.006   2.045  25.146  0.00  0.00    -0.289 NA
ATOM     14  C   UNL     1      -2.549   3.400  24.996  0.00  0.00    +0.083 C 
ATOM     17  C   UNL     1      -0.964   2.109  26.168  0.00  0.00    +0.085 C 
ATOM     19  C   UNL     1      -1.266   4.229  25.027  0.00  0.00    +0.022 C 
ATOM     20  C   UNL     1      -0.343   3.490  25.990  0.00  0.00    +0.017 C 
BRANCH  14  22
ATOM     22  C   UNL     1      -3.536   3.854  26.075  0.00  0.00    +0.178 C 
BRANCH  22   6
ATOM      6  O   UNL     1      -4.785   4.120  25.464  0.00  0.00    -0.381 OA
ATOM     25  C   UNL     1      -5.745   3.113  25.766  0.00  0.00    +0.194 C 
ENDBRANCH  22   6
ENDBRANCH  14  22
ENDBRANCH  13  10
BRANCH  16   5
ATOM      5  O   UNL     1      -1.306  -0.735  25.106  0.00  0.00    -0.388 OA
ATOM     33  H   UNL     1      -0.819   0.063  24.838  0.00  0.00    +0.210 HD
ENDBRANCH  16   5
BRANCH  15  21
ATOM     21  C   UNL     1      -3.179   0.617  22.829  0.00  0.00    +0.139 C 
BRANCH  21  11
ATOM      8  O   UNL     1      -0.715  -0.838  22.716  0.00  0.00    -0.253 OA
ATOM     11  N   UNL     1      -1.857   1.164  22.915  0.00  0.00    -0.297 N 
ATOM     12  N   UNL     1       0.448   1.187  22.961  0.00  0.00    -0.269 N 
ATOM     24  C   UNL     1      -0.690   0.382  22.851  0.00  0.00    +0.304 C 
ATOM     34  H   UNL     1      -1.761   2.166  23.041  0.00  0.00    +0.150 HD
ATOM     36  H   UNL     1       0.292   2.186  23.069  0.00  0.00    +0.156 HD
BRANCH  12  26
ATOM     26  C   UNL     1       1.802   0.780  22.943  0.00  0.00    +0.035 A 
ATOM     27  C   UNL     1       2.809   1.721  22.728  0.00  0.00    +0.027 A 
ATOM     28  C   UNL     1       2.132  -0.561  23.139  0.00  0.00    +0.027 A 
ATOM     29  C   UNL     1       4.146   1.320  22.709  0.00  0.00    +0.048 A 
ATOM     30  C   UNL     1       3.467  -0.962  23.120  0.00  0.00    +0.048 A 
ATOM     31  C   UNL     1       4.475  -0.021  22.905  0.00  0.00    +0.130 A 
BRANCH  31   9
ATOM      9  O   UNL     1       5.778  -0.412  22.887  0.00  0.00    -0.406 OA
BRANCH   9  32
ATOM      1  F   UNL     1       6.194   1.006  24.593  0.00  0.00    -0.133 F 
ATOM      2  F   UNL     1       6.384  -1.138  24.970  0.00  0.00    -0.133 F 
ATOM      3  F   UNL     1       7.879  -0.084  23.730  0.00  0.00    -0.133 F 
ATOM     32  C   UNL     1       6.569  -0.173  24.046  0.00  0.00    +0.575 C 
ENDBRANCH   9  32
ENDBRANCH  31   9
ENDBRANCH  12  26
ENDBRANCH  21  11
ENDBRANCH  15  21
BRANCH  18  23
ATOM     23  C   UNL     1      -3.271  -2.718  25.548  0.00  0.00    +0.190 C 
BRANCH  23   7
ATOM      7  O   UNL     1      -2.638  -2.944  24.299  0.00  0.00    -0.392 OA
ATOM     35  H   UNL     1      -3.166  -2.484  23.624  0.00  0.00    +0.210 HD
ENDBRANCH  23   7
ENDBRANCH  18  23
TORSDOF 11
ENDMDL
MODEL 5
REMARK VINA RESULT:       2.9      1.966      4.456
REMARK  Name = 28961828
REMARK  12 active torsions:
REMARK  status: ('A' for Active; 'I' for Inactive)
REMARK    1  A    between atoms: O_5  and  C_16
REMARK    2  A    between atoms: O_6  and  C_22
REMARK    3  A    between atoms: O_6  and  C_25
REMARK    4  A    between atoms: O_7  and  C_23
REMARK    5  A    between atoms: O_9  and  C_31
REMARK    6  A    between atoms: O_9  and  C_32
REMARK    7  A    between atoms: N_10  and  C_13
REMARK    8  A    between atoms: N_11  and  C_21
REMARK    9  A    between atoms: N_12  and  C_26
REMARK   10  A    between atoms: C_14  and  C_22
REMARK   11  A    between atoms: C_15  and  C_21
REMARK   12  A    between atoms: C_18  and  C_23
REMARK                            x       y       z     vdW  Elec       q    Type
REMARK                         _______ _______ _______ _____ _____    ______ ____
ROOT
ATOM      4  O   UNL     1      -1.985  -0.783  23.919  0.00  0.00    -0.365 OA
ATOM     13  C   UNL     1      -2.996   1.147  24.878  0.00  0.00    +0.118 C 
ATOM     15  C   UNL     1      -2.578   0.484  23.558  0.00  0.00    +0.155 C 
ATOM     16  C   UNL     1      -2.044   0.527  25.889  0.00  0.00    +0.165 C 
ATOM     18  C   UNL     1      -1.955  -0.897  25.355  0.00  0.00    +0.174 C 
ENDROOT
BRANCH  13  10
ATOM     10  N   UNL     1      -3.042   2.599  24.879  0.00  0.00    -0.289 NA
ATOM     14  C   UNL     1      -4.375   3.190  25.040  0.00  0.00    +0.083 C 
ATOM     17  C   UNL     1      -2.180   3.197  25.897  0.00  0.00    +0.085 C 
ATOM     19  C   UNL     1      -4.015   4.657  25.270  0.00  0.00    +0.022 C 
ATOM     20  C   UNL     1      -2.701   4.622  26.044  0.00  0.00    +0.017 C 
BRANCH  14  22
ATOM     22  C   UNL     1      -5.225   2.636  26.187  0.00  0.00    +0.178 C 
BRANCH  22   6
ATOM      6  O   UNL     1      -5.882   1.464  25.739  0.00  0.00    -0.381 OA
ATOM     25  C   UNL     1      -6.684   1.718  24.590  0.00  0.00    +0.194 C 
ENDBRANCH  22   6
ENDBRANCH  14  22
ENDBRANCH  13  10
BRANCH  16   5
ATOM      5  O   UNL     1      -0.767   1.151  25.852  0.00  0.00    -0.388 OA
ATOM     33  H   UNL     1      -0.796   1.918  26.451  0.00  0.00    +0.210 HD
ENDBRANCH  16   5
BRANCH  15  21
ATOM     21  C   UNL     1      -1.558   1.234  22.709  0.00  0.00    +0.139 C 
BRANCH  21  11
ATOM      8  O   UNL     1       1.018   1.695  23.873  0.00  0.00    -0.253 OA
ATOM     11  N   UNL     1      -0.376   0.450  22.509  0.00  0.00    -0.297 N 
ATOM     12  N   UNL     1       1.826  -0.195  22.738  0.00  0.00    -0.269 N 
ATOM     24  C   UNL     1       0.858   0.740  23.117  0.00  0.00    +0.304 C 
ATOM     34  H   UNL     1      -0.431  -0.349  21.886  0.00  0.00    +0.150 HD
ATOM     36  H   UNL     1       1.527  -0.929  22.102  0.00  0.00    +0.156 HD
BRANCH  12  26
ATOM     26  C   UNL     1       3.183  -0.248  23.134  0.00  0.00    +0.035 A 
ATOM     27  C   UNL     1       3.719  -1.436  23.628  0.00  0.00    +0.027 A 
ATOM     28  C   UNL     1       3.985   0.889  23.029  0.00  0.00    +0.027 A 
ATOM     29  C   UNL     1       5.058  -1.488  24.018  0.00  0.00    +0.048 A 
ATOM     30  C   UNL     1       5.323   0.837  23.419  0.00  0.00    +0.048 A 
ATOM     31  C   UNL     1       5.860  -0.352  23.914  0.00  0.00    +0.130 A 
BRANCH  31   9
ATOM      9  O   UNL     1       7.165  -0.403  24.294  0.00  0.00    -0.406 OA
BRANCH   9  32
ATOM      1  F   UNL     1       7.880  -0.911  22.214  0.00  0.00    -0.133 F 
ATOM      2  F   UNL     1       8.183   1.130  22.935  0.00  0.00    -0.133 F 
ATOM      3  F   UNL     1       9.384  -0.535  23.754  0.00  0.00    -0.133 F 
ATOM     32  C   UNL     1       8.164  -0.167  23.308  0.00  0.00    +0.575 C 
ENDBRANCH   9  32
ENDBRANCH  31   9
ENDBRANCH  12  26
ENDBRANCH  21  11
ENDBRANCH  15  21
BRANCH  18  23
ATOM     23  C   UNL     1      -0.717  -1.674  25.769  0.00  0.00    +0.190 C 
BRANCH  23   7
ATOM      7  O   UNL     1       0.384  -1.228  24.994  0.00  0.00    -0.392 OA
ATOM     35  H   UNL     1       0.859  -0.567  25.526  0.00  0.00    +0.210 HD
ENDBRANCH  23   7
ENDBRANCH  18  23
TORSDOF 11
ENDMDL
MODEL 6
REMARK VINA RESULT:       3.1      1.902      2.829
REMARK  Name = 28961828
REMARK  12 active torsions:
REMARK  status: ('A' for Active; 'I' for Inactive)
REMARK    1  A    between atoms: O_5  and  C_16
REMARK    2  A    between atoms: O_6  and  C_22
REMARK    3  A    between atoms: O_6  and  C_25
REMARK    4  A    between atoms: O_7  and  C_23
REMARK    5  A    between atoms: O_9  and  C_31
REMARK    6  A    between atoms: O_9  and  C_32
REMARK    7  A    between atoms: N_10  and  C_13
REMARK    8  A    between atoms: N_11  and  C_21
REMARK    9  A    between atoms: N_12  and  C_26
REMARK   10  A    between atoms: C_14  and  C_22
REMARK   11  A    between atoms: C_15  and  C_21
REMARK   12  A    between atoms: C_18  and  C_23
REMARK                            x       y       z     vdW  Elec       q    Type
REMARK                         _______ _______ _______ _____ _____    ______ ____
ROOT
ATOM      4  O   UNL     1      -1.076   3.290  25.117  0.00  0.00    -0.365 OA
ATOM     13  C   UNL     1      -3.118   2.082  25.310  0.00  0.00    +0.118 C 
ATOM     15  C   UNL     1      -1.677   2.018  24.787  0.00  0.00    +0.155 C 
ATOM     16  C   UNL     1      -3.418   3.573  25.306  0.00  0.00    +0.165 C 
ATOM     18  C   UNL     1      -2.068   4.133  25.735  0.00  0.00    +0.174 C 
ENDROOT
BRANCH  13  10
ATOM     10  N   UNL     1      -4.089   1.253  24.618  0.00  0.00    -0.289 NA
ATOM     14  C   UNL     1      -3.738  -0.167  24.496  0.00  0.00    +0.083 C 
ATOM     17  C   UNL     1      -5.423   1.318  25.211  0.00  0.00    +0.085 C 
ATOM     19  C   UNL     1      -5.058  -0.748  23.991  0.00  0.00    +0.022 C 
ATOM     20  C   UNL     1      -6.140   0.088  24.667  0.00  0.00    +0.017 C 
BRANCH  14  22
ATOM     22  C   UNL     1      -3.278  -0.859  25.782  0.00  0.00    +0.178 C 
BRANCH  22   6
ATOM      6  O   UNL     1      -2.914  -2.193  25.473  0.00  0.00    -0.381 OA
ATOM     25  C   UNL     1      -1.718  -2.247  24.702  0.00  0.00    +0.194 C 
ENDBRANCH  22   6
ENDBRANCH  14  22
ENDBRANCH  13  10
BRANCH  16   5
ATOM      5  O   UNL     1      -3.754   4.033  24.003  0.00  0.00    -0.388 OA
ATOM     33  H   UNL     1      -4.263   4.855  24.104  0.00  0.00    +0.210 HD
ENDBRANCH  16   5
BRANCH  15  21
ATOM     21  C   UNL     1      -1.502   1.813  23.286  0.00  0.00    +0.139 C 
BRANCH  21  11
ATOM      8  O   UNL     1       1.246   2.015  24.065  0.00  0.00    -0.253 OA
ATOM     11  N   UNL     1      -0.463   0.866  23.012  0.00  0.00    -0.297 N 
ATOM     12  N   UNL     1       1.655  -0.047  23.019  0.00  0.00    -0.269 N 
ATOM     24  C   UNL     1       0.869   1.034  23.429  0.00  0.00    +0.304 C 
ATOM     34  H   UNL     1      -0.700   0.036  22.477  0.00  0.00    +0.150 HD
ATOM     36  H   UNL     1       1.184  -0.781  22.496  0.00  0.00    +0.156 HD
BRANCH  12  26
ATOM     26  C   UNL     1       3.037  -0.249  23.241  0.00  0.00    +0.035 A 
ATOM     27  C   UNL     1       3.493  -1.474  23.727  0.00  0.00    +0.027 A 
ATOM     28  C   UNL     1       3.944   0.777  22.976  0.00  0.00    +0.027 A 
ATOM     29  C   UNL     1       4.856  -1.673  23.947  0.00  0.00    +0.048 A 
ATOM     30  C   UNL     1       5.306   0.578  23.196  0.00  0.00    +0.048 A 
ATOM     31  C   UNL     1       5.763  -0.647  23.682  0.00  0.00    +0.130 A 
BRANCH  31   9
ATOM      9  O   UNL     1       7.092  -0.842  23.896  0.00  0.00    -0.406 OA
BRANCH   9  32
ATOM      1  F   UNL     1       7.335  -0.008  21.813  0.00  0.00    -0.133 F 
ATOM      2  F   UNL     1       9.054   0.075  23.159  0.00  0.00    -0.133 F 
ATOM      3  F   UNL     1       8.392  -1.855  22.309  0.00  0.00    -0.133 F 
ATOM     32  C   UNL     1       7.984  -0.665  22.801  0.00  0.00    +0.575 C 
ENDBRANCH   9  32
ENDBRANCH  31   9
ENDBRANCH  12  26
ENDBRANCH  21  11
ENDBRANCH  15  21
BRANCH  18  23
ATOM     23  C   UNL     1      -1.806   5.578  25.349  0.00  0.00    +0.190 C 
BRANCH  23   7
ATOM      7  O   UNL     1      -0.603   5.642  24.599  0.00  0.00    -0.392 OA
ATOM     35  H   UNL     1      -0.029   6.294  25.036  0.00  0.00    +0.210 HD
ENDBRANCH  23   7
ENDBRANCH  18  23
TORSDOF 11
ENDMDL
MODEL 7
REMARK VINA RESULT:       3.2      1.761      3.451
REMARK  Name = 28961828
REMARK  12 active torsions:
REMARK  status: ('A' for Active; 'I' for Inactive)
REMARK    1  A    between atoms: O_5  and  C_16
REMARK    2  A    between atoms: O_6  and  C_22
REMARK    3  A    between atoms: O_6  and  C_25
REMARK    4  A    between atoms: O_7  and  C_23
REMARK    5  A    between atoms: O_9  and  C_31
REMARK    6  A    between atoms: O_9  and  C_32
REMARK    7  A    between atoms: N_10  and  C_13
REMARK    8  A    between atoms: N_11  and  C_21
REMARK    9  A    between atoms: N_12  and  C_26
REMARK   10  A    between atoms: C_14  and  C_22
REMARK   11  A    between atoms: C_15  and  C_21
REMARK   12  A    between atoms: C_18  and  C_23
REMARK                            x       y       z     vdW  Elec       q    Type
REMARK                         _______ _______ _______ _____ _____    ______ ____
ROOT
ATOM      4  O   UNL     1      -5.679   1.008  25.162  0.00  0.00    -0.365 OA
ATOM     13  C   UNL     1      -4.111   2.741  24.708  0.00  0.00    +0.118 C 
ATOM     15  C   UNL     1      -4.349   1.226  24.643  0.00  0.00    +0.155 C 
ATOM     16  C   UNL     1      -5.034   3.184  25.833  0.00  0.00    +0.165 C 
ATOM     18  C   UNL     1      -6.228   2.268  25.595  0.00  0.00    +0.174 C 
ENDROOT
BRANCH  13  10
ATOM     10  N   UNL     1      -2.730   3.169  24.835  0.00  0.00    -0.289 NA
ATOM     14  C   UNL     1      -1.920   3.069  23.615  0.00  0.00    +0.083 C 
ATOM     17  C   UNL     1      -2.598   4.539  25.328  0.00  0.00    +0.085 C 
ATOM     19  C   UNL     1      -0.668   3.836  24.037  0.00  0.00    +0.022 C 
ATOM     20  C   UNL     1      -1.174   4.938  24.961  0.00  0.00    +0.017 C 
BRANCH  14  22
ATOM     22  C   UNL     1      -2.539   3.661  22.346  0.00  0.00    +0.178 C 
BRANCH  22   6
ATOM      6  O   UNL     1      -3.088   2.606  21.576  0.00  0.00    -0.381 OA
ATOM     25  C   UNL     1      -2.245   1.459  21.576  0.00  0.00    +0.194 C 
ENDBRANCH  22   6
ENDBRANCH  14  22
ENDBRANCH  13  10
BRANCH  16   5
ATOM      5  O   UNL     1      -4.460   2.928  27.108  0.00  0.00    -0.388 OA
ATOM     33  H   UNL     1      -3.919   3.700  27.348  0.00  0.00    +0.210 HD
ENDBRANCH  16   5
BRANCH  15  21
ATOM     21  C   UNL     1      -3.400   0.350  25.453  0.00  0.00    +0.139 C 
BRANCH  21  11
ATOM      8  O   UNL     1      -0.632   1.085  25.448  0.00  0.00    -0.253 OA
ATOM     11  N   UNL     1      -2.370  -0.200  24.623  0.00  0.00    -0.297 N 
ATOM     12  N   UNL     1      -0.254  -0.497  23.754  0.00  0.00    -0.269 N 
ATOM     24  C   UNL     1      -1.027   0.214  24.677  0.00  0.00    +0.304 C 
ATOM     34  H   UNL     1      -2.627  -0.916  23.951  0.00  0.00    +0.150 HD
ATOM     36  H   UNL     1      -0.740  -1.188  23.189  0.00  0.00    +0.156 HD
BRANCH  12  26
ATOM     26  C   UNL     1       1.132  -0.373  23.506  0.00  0.00    +0.035 A 
ATOM     27  C   UNL     1       1.989  -1.436  23.788  0.00  0.00    +0.027 A 
ATOM     28  C   UNL     1       1.644   0.813  22.979  0.00  0.00    +0.027 A 
ATOM     29  C   UNL     1       3.357  -1.314  23.543  0.00  0.00    +0.048 A 
ATOM     30  C   UNL     1       3.011   0.936  22.734  0.00  0.00    +0.048 A 
ATOM     31  C   UNL     1       3.868  -0.128  23.016  0.00  0.00    +0.130 A 
BRANCH  31   9
ATOM      9  O   UNL     1       5.202  -0.008  22.777  0.00  0.00    -0.406 OA
BRANCH   9  32
ATOM      1  F   UNL     1       5.882   1.242  24.529  0.00  0.00    -0.133 F 
ATOM      2  F   UNL     1       5.839  -0.929  24.772  0.00  0.00    -0.133 F 
ATOM      3  F   UNL     1       7.374   0.022  23.498  0.00  0.00    -0.133 F 
ATOM     32  C   UNL     1       6.083   0.065  23.893  0.00  0.00    +0.575 C 
ENDBRANCH   9  32
ENDBRANCH  31   9
ENDBRANCH  12  26
ENDBRANCH  21  11
ENDBRANCH  15  21
BRANCH  18  23
ATOM     23  C   UNL     1      -7.124   2.035  26.799  0.00  0.00    +0.190 C 
BRANCH  23   7
ATOM      7  O   UNL     1      -6.608   0.949  27.551  0.00  0.00    -0.392 OA
ATOM     35  H   UNL     1      -5.658   1.113  27.675  0.00  0.00    +0.210 HD
ENDBRANCH  23   7
ENDBRANCH  18  23
TORSDOF 11
ENDMDL
MODEL 8
REMARK VINA RESULT:       3.4      1.915      4.082
REMARK  Name = 28961828
REMARK  12 active torsions:
REMARK  status: ('A' for Active; 'I' for Inactive)
REMARK    1  A    between atoms: O_5  and  C_16
REMARK    2  A    between atoms: O_6  and  C_22
REMARK    3  A    between atoms: O_6  and  C_25
REMARK    4  A    between atoms: O_7  and  C_23
REMARK    5  A    between atoms: O_9  and  C_31
REMARK    6  A    between atoms: O_9  and  C_32
REMARK    7  A    between atoms: N_10  and  C_13
REMARK    8  A    between atoms: N_11  and  C_21
REMARK    9  A    between atoms: N_12  and  C_26
REMARK   10  A    between atoms: C_14  and  C_22
REMARK   11  A    between atoms: C_15  and  C_21
REMARK   12  A    between atoms: C_18  and  C_23
REMARK                            x       y       z     vdW  Elec       q    Type
REMARK                         _______ _______ _______ _____ _____    ______ ____
ROOT
ATOM      4  O   UNL     1      -3.176  -0.827  23.152  0.00  0.00    -0.365 OA
ATOM     13  C   UNL     1      -4.625   0.452  24.542  0.00  0.00    +0.118 C 
ATOM     15  C   UNL     1      -3.526   0.537  23.473  0.00  0.00    +0.155 C 
ATOM     16  C   UNL     1      -4.357  -0.891  25.202  0.00  0.00    +0.165 C 
ATOM     18  C   UNL     1      -3.932  -1.718  23.995  0.00  0.00    +0.174 C 
ENDROOT
BRANCH  13  10
ATOM     10  N   UNL     1      -4.724   1.581  25.451  0.00  0.00    -0.289 NA
ATOM     14  C   UNL     1      -3.864   2.727  25.134  0.00  0.00    +0.083 C 
ATOM     17  C   UNL     1      -6.087   2.089  25.584  0.00  0.00    +0.085 C 
ATOM     19  C   UNL     1      -4.421   3.778  26.092  0.00  0.00    +0.022 C 
ATOM     20  C   UNL     1      -5.916   3.484  26.174  0.00  0.00    +0.017 C 
BRANCH  14  22
ATOM     22  C   UNL     1      -3.901   3.216  23.683  0.00  0.00    +0.178 C 
BRANCH  22   6
ATOM      6  O   UNL     1      -3.422   4.548  23.642  0.00  0.00    -0.381 OA
ATOM     25  C   UNL     1      -2.169   4.678  24.305  0.00  0.00    +0.194 C 
ENDBRANCH  22   6
ENDBRANCH  14  22
ENDBRANCH  13  10
BRANCH  16   5
ATOM      5  O   UNL     1      -3.295  -0.806  26.144  0.00  0.00    -0.388 OA
ATOM     33  H   UNL     1      -3.655  -1.040  27.016  0.00  0.00    +0.210 HD
ENDBRANCH  16   5
BRANCH  15  21
ATOM     21  C   UNL     1      -2.239   1.252  23.871  0.00  0.00    +0.139 C 
BRANCH  21  11
ATOM      8  O   UNL     1       0.455   1.367  24.835  0.00  0.00    -0.253 OA
ATOM     11  N   UNL     1      -1.095   0.613  23.292  0.00  0.00    -0.297 N 
ATOM     12  N   UNL     1       1.112  -0.009  23.051  0.00  0.00    -0.269 N 
ATOM     24  C   UNL     1       0.202   0.717  23.825  0.00  0.00    +0.304 C 
ATOM     34  H   UNL     1      -1.227   0.069  22.446  0.00  0.00    +0.150 HD
ATOM     36  H   UNL     1       0.737  -0.495  22.240  0.00  0.00    +0.156 HD
BRANCH  12  26
ATOM     26  C   UNL     1       2.504  -0.153  23.256  0.00  0.00    +0.035 A 
ATOM     27  C   UNL     1       3.026  -1.384  23.653  0.00  0.00    +0.027 A 
ATOM     28  C   UNL     1       3.355   0.935  23.061  0.00  0.00    +0.027 A 
ATOM     29  C   UNL     1       4.399  -1.526  23.856  0.00  0.00    +0.048 A 
ATOM     30  C   UNL     1       4.727   0.793  23.264  0.00  0.00    +0.048 A 
ATOM     31  C   UNL     1       5.250  -0.438  23.661  0.00  0.00    +0.130 A 
BRANCH  31   9
ATOM      9  O   UNL     1       6.589  -0.576  23.858  0.00  0.00    -0.406 OA
BRANCH   9  32
ATOM      1  F   UNL     1       6.780  -0.101  21.660  0.00  0.00    -0.133 F 
ATOM      2  F   UNL     1       8.564   0.082  22.909  0.00  0.00    -0.133 F 
ATOM      3  F   UNL     1       7.750  -1.911  22.407  0.00  0.00    -0.133 F 
ATOM     32  C   UNL     1       7.436  -0.634  22.716  0.00  0.00    +0.575 C 
ENDBRANCH   9  32
ENDBRANCH  31   9
ENDBRANCH  12  26
ENDBRANCH  21  11
ENDBRANCH  15  21
BRANCH  18  23
ATOM     23  C   UNL     1      -3.092  -2.945  24.306  0.00  0.00    +0.190 C 
BRANCH  23   7
ATOM      7  O   UNL     1      -1.720  -2.588  24.245  0.00  0.00    -0.392 OA
ATOM     35  H   UNL     1      -1.441  -2.685  23.318  0.00  0.00    +0.210 HD
ENDBRANCH  23   7
ENDBRANCH  18  23
TORSDOF 11
ENDMDL
