MODEL 1
REMARK VINA RESULT:       2.0      0.000      0.000
REMARK  Name = 40777958
REMARK  8 active torsions:
REMARK  status: ('A' for Active; 'I' for Inactive)
REMARK    1  A    between atoms: O_4  and  C_12
REMARK    2  A    between atoms: O_5  and  C_13
REMARK    3  A    between atoms: N_9  and  C_22
REMARK    4  A    between atoms: N_10  and  C_16
REMARK    5  A    between atoms: C_11  and  C_15
REMARK    6  A    between atoms: C_14  and  C_16
REMARK    7  A    between atoms: C_15  and  C_17
REMARK    8  A    between atoms: C_23  and  C_26
REMARK                            x       y       z     vdW  Elec       q    Type
REMARK                         _______ _______ _______ _____ _____    ______ ____
ROOT
ATOM      3  O   UNL     1      -3.720   2.413  25.401  0.00  0.00    -0.366 OA
ATOM     11  C   UNL     1      -3.089   3.631  24.942  0.00  0.00    +0.159 C 
ATOM     12  C   UNL     1      -4.070   4.760  25.238  0.00  0.00    +0.175 C 
ATOM     13  C   UNL     1      -5.404   4.047  25.165  0.00  0.00    +0.176 C 
ATOM     14  C   UNL     1      -5.069   2.708  25.804  0.00  0.00    +0.167 C 
ENDROOT
BRANCH  12   4
ATOM      4  O   UNL     1      -3.827   5.221  26.567  0.00  0.00    -0.387 OA
ATOM     35  H   UNL     1      -3.181   5.945  26.510  0.00  0.00    +0.210 HD
ENDBRANCH  12   4
BRANCH  13   5
ATOM      5  O   UNL     1      -6.436   4.719  25.855  0.00  0.00    -0.387 OA
ATOM     36  H   UNL     1      -6.149   5.639  25.986  0.00  0.00    +0.210 HD
ENDBRANCH  13   5
BRANCH  11  15
ATOM     15  C   UNL     1      -2.794   3.472  23.457  0.00  0.00    +0.130 C 
BRANCH  15  17
ATOM      6  O   UNL     1      -3.416   1.282  22.781  0.00  0.00    -0.276 OA
ATOM      8  N   UNL     1      -1.176   1.617  23.297  0.00  0.00    -0.298 N 
ATOM      9  N   UNL     1       1.576   0.721  23.372  0.00  0.00    -0.327 N 
ATOM     17  C   UNL     1      -2.501   2.025  23.143  0.00  0.00    +0.218 C 
ATOM     18  C   UNL     1      -0.090   2.501  23.729  0.00  0.00    +0.126 C 
ATOM     19  C   UNL     1      -0.810   0.233  23.008  0.00  0.00    +0.126 C 
ATOM     20  C   UNL     1       1.098   1.737  24.313  0.00  0.00    +0.124 C 
ATOM     21  C   UNL     1       0.607   0.122  22.450  0.00  0.00    +0.124 C 
BRANCH   9  22
ATOM      1  F   UNL     1       6.846  -0.924  23.385  0.00  0.00    -0.205 F 
ATOM     22  C   UNL     1       2.905   0.305  23.375  0.00  0.00    +0.030 A 
ATOM     24  C   UNL     1       3.917   1.204  23.037  0.00  0.00    +0.026 A 
ATOM     25  C   UNL     1       3.225  -1.008  23.717  0.00  0.00    +0.026 A 
ATOM     27  C   UNL     1       5.248   0.789  23.040  0.00  0.00    +0.040 A 
ATOM     28  C   UNL     1       4.556  -1.424  23.721  0.00  0.00    +0.040 A 
ATOM     29  C   UNL     1       5.568  -0.525  23.383  0.00  0.00    +0.124 A 
ENDBRANCH   9  22
ENDBRANCH  15  17
ENDBRANCH  11  15
BRANCH  14  16
ATOM     16  C   UNL     1      -5.991   1.585  25.365  0.00  0.00    +0.138 C 
BRANCH  16  10
ATOM      7  O   UNL     1      -4.379  -0.240  26.886  0.00  0.00    -0.270 OA
ATOM     10  N   UNL     1      -5.245   0.472  24.855  0.00  0.00    -0.309 N 
ATOM     23  C   UNL     1      -4.487  -0.366  25.669  0.00  0.00    +0.244 C 
ATOM     37  H   UNL     1      -5.334   0.279  23.863  0.00  0.00    +0.149 HD
BRANCH  23  26
ATOM      2  F   UNL     1      -0.457  -3.001  24.993  0.00  0.00    -0.205 F 
ATOM     26  C   UNL     1      -3.752  -1.459  24.983  0.00  0.00    +0.039 A 
ATOM     30  C   UNL     1      -2.423  -1.722  25.316  0.00  0.00    +0.051 A 
ATOM     31  C   UNL     1      -4.389  -2.221  24.004  0.00  0.00    +0.013 A 
ATOM     32  C   UNL     1      -1.732  -2.748  24.671  0.00  0.00    +0.124 A 
ATOM     33  C   UNL     1      -3.698  -3.246  23.359  0.00  0.00    +0.004 A 
ATOM     34  C   UNL     1      -2.369  -3.510  23.692  0.00  0.00    +0.038 A 
ENDBRANCH  23  26
ENDBRANCH  16  10
ENDBRANCH  14  16
TORSDOF 8
ENDMDL
MODEL 2
REMARK VINA RESULT:       3.1      2.799      4.598
REMARK  Name = 40777958
REMARK  8 active torsions:
REMARK  status: ('A' for Active; 'I' for Inactive)
REMARK    1  A    between atoms: O_4  and  C_12
REMARK    2  A    between atoms: O_5  and  C_13
REMARK    3  A    between atoms: N_9  and  C_22
REMARK    4  A    between atoms: N_10  and  C_16
REMARK    5  A    between atoms: C_11  and  C_15
REMARK    6  A    between atoms: C_14  and  C_16
REMARK    7  A    between atoms: C_15  and  C_17
REMARK    8  A    between atoms: C_23  and  C_26
REMARK                            x       y       z     vdW  Elec       q    Type
REMARK                         _______ _______ _______ _____ _____    ______ ____
ROOT
ATOM      3  O   UNL     1      -3.789   1.747  23.979  0.00  0.00    -0.366 OA
ATOM     11  C   UNL     1      -4.784   1.119  24.820  0.00  0.00    +0.159 C 
ATOM     12  C   UNL     1      -5.168   2.152  25.873  0.00  0.00    +0.175 C 
ATOM     13  C   UNL     1      -3.900   2.970  25.992  0.00  0.00    +0.176 C 
ATOM     14  C   UNL     1      -3.434   3.021  24.545  0.00  0.00    +0.167 C 
ENDROOT
BRANCH  12   4
ATOM      4  O   UNL     1      -6.226   2.952  25.344  0.00  0.00    -0.387 OA
ATOM     35  H   UNL     1      -5.878   3.852  25.225  0.00  0.00    +0.210 HD
ENDBRANCH  12   4
BRANCH  13   5
ATOM      5  O   UNL     1      -4.114   4.260  26.524  0.00  0.00    -0.387 OA
ATOM     36  H   UNL     1      -4.169   4.172  27.491  0.00  0.00    +0.210 HD
ENDBRANCH  13   5
BRANCH  11  15
ATOM     15  C   UNL     1      -4.164  -0.138  25.416  0.00  0.00    +0.130 C 
BRANCH  15  17
ATOM      6  O   UNL     1      -4.229  -1.655  23.591  0.00  0.00    -0.276 OA
ATOM      8  N   UNL     1      -2.133  -0.880  24.227  0.00  0.00    -0.298 N 
ATOM      9  N   UNL     1       0.716  -0.616  23.795  0.00  0.00    -0.327 N 
ATOM     17  C   UNL     1      -3.523  -0.961  24.325  0.00  0.00    +0.218 C 
ATOM     18  C   UNL     1      -1.296  -0.055  25.101  0.00  0.00    +0.126 C 
ATOM     19  C   UNL     1      -1.439  -1.642  23.193  0.00  0.00    +0.126 C 
ATOM     20  C   UNL     1       0.157  -0.527  25.146  0.00  0.00    +0.124 C 
ATOM     21  C   UNL     1      -0.194  -0.916  22.687  0.00  0.00    +0.124 C 
BRANCH   9  22
ATOM      1  F   UNL     1       6.129   0.011  22.903  0.00  0.00    -0.205 F 
ATOM     22  C   UNL     1       2.082  -0.458  23.570  0.00  0.00    +0.030 A 
ATOM     24  C   UNL     1       2.972  -1.460  23.955  0.00  0.00    +0.026 A 
ATOM     25  C   UNL     1       2.558   0.702  22.960  0.00  0.00    +0.026 A 
ATOM     27  C   UNL     1       4.340  -1.302  23.730  0.00  0.00    +0.040 A 
ATOM     28  C   UNL     1       3.925   0.860  22.734  0.00  0.00    +0.040 A 
ATOM     29  C   UNL     1       4.816  -0.142  23.119  0.00  0.00    +0.124 A 
ENDBRANCH   9  22
ENDBRANCH  15  17
ENDBRANCH  11  15
BRANCH  14  16
ATOM     16  C   UNL     1      -1.939   3.246  24.402  0.00  0.00    +0.138 C 
BRANCH  16  10
ATOM      7  O   UNL     1       0.818   2.586  24.852  0.00  0.00    -0.270 OA
ATOM     10  N   UNL     1      -1.278   3.150  25.671  0.00  0.00    -0.309 N 
ATOM     23  C   UNL     1       0.070   2.824  25.796  0.00  0.00    +0.244 C 
ATOM     37  H   UNL     1      -1.826   3.388  26.491  0.00  0.00    +0.149 HD
BRANCH  23  26
ATOM      2  F   UNL     1       3.735   3.190  28.972  0.00  0.00    -0.205 F 
ATOM     26  C   UNL     1       0.599   2.741  27.182  0.00  0.00    +0.039 A 
ATOM     30  C   UNL     1       1.945   3.009  27.431  0.00  0.00    +0.051 A 
ATOM     31  C   UNL     1      -0.249   2.393  28.233  0.00  0.00    +0.013 A 
ATOM     32  C   UNL     1       2.442   2.931  28.732  0.00  0.00    +0.124 A 
ATOM     33  C   UNL     1       0.248   2.314  29.534  0.00  0.00    +0.004 A 
ATOM     34  C   UNL     1       1.594   2.583  29.784  0.00  0.00    +0.038 A 
ENDBRANCH  23  26
ENDBRANCH  16  10
ENDBRANCH  14  16
TORSDOF 8
ENDMDL
MODEL 3
REMARK VINA RESULT:       4.4      0.952      1.503
REMARK  Name = 40777958
REMARK  8 active torsions:
REMARK  status: ('A' for Active; 'I' for Inactive)
REMARK    1  A    between atoms: O_4  and  C_12
REMARK    2  A    between atoms: O_5  and  C_13
REMARK    3  A    between atoms: N_9  and  C_22
REMARK    4  A    between atoms: N_10  and  C_16
REMARK    5  A    between atoms: C_11  and  C_15
REMARK    6  A    between atoms: C_14  and  C_16
REMARK    7  A    between atoms: C_15  and  C_17
REMARK    8  A    between atoms: C_23  and  C_26
REMARK                            x       y       z     vdW  Elec       q    Type
REMARK                         _______ _______ _______ _____ _____    ______ ____
ROOT
ATOM      3  O   UNL     1      -3.422   2.850  25.603  0.00  0.00    -0.366 OA
ATOM     11  C   UNL     1      -3.095   4.088  24.930  0.00  0.00    +0.159 C 
ATOM     12  C   UNL     1      -4.267   5.032  25.175  0.00  0.00    +0.175 C 
ATOM     13  C   UNL     1      -5.423   4.067  25.329  0.00  0.00    +0.176 C 
ATOM     14  C   UNL     1      -4.770   2.929  26.098  0.00  0.00    +0.167 C 
ENDROOT
BRANCH  12   4
ATOM      4  O   UNL     1      -4.030   5.722  26.402  0.00  0.00    -0.387 OA
ATOM     35  H   UNL     1      -4.624   6.491  26.423  0.00  0.00    +0.210 HD
ENDBRANCH  12   4
BRANCH  13   5
ATOM      5  O   UNL     1      -6.520   4.616  26.027  0.00  0.00    -0.387 OA
ATOM     36  H   UNL     1      -6.404   5.581  26.041  0.00  0.00    +0.210 HD
ENDBRANCH  13   5
BRANCH  11  15
ATOM     15  C   UNL     1      -2.881   3.774  23.455  0.00  0.00    +0.130 C 
BRANCH  15  17
ATOM      6  O   UNL     1      -3.604   1.551  23.037  0.00  0.00    -0.276 OA
ATOM      8  N   UNL     1      -1.329   1.857  23.397  0.00  0.00    -0.298 N 
ATOM      9  N   UNL     1       1.395   0.877  23.416  0.00  0.00    -0.327 N 
ATOM     17  C   UNL     1      -2.649   2.293  23.274  0.00  0.00    +0.218 C 
ATOM     18  C   UNL     1      -0.195   2.741  23.680  0.00  0.00    +0.126 C 
ATOM     19  C   UNL     1      -1.021   0.439  23.229  0.00  0.00    +0.126 C 
ATOM     20  C   UNL     1       1.000   1.998  24.274  0.00  0.00    +0.124 C 
ATOM     21  C   UNL     1       0.359   0.225  22.611  0.00  0.00    +0.124 C 
BRANCH   9  22
ATOM      1  F   UNL     1       6.606  -0.944  23.315  0.00  0.00    -0.205 F 
ATOM     22  C   UNL     1       2.709   0.418  23.390  0.00  0.00    +0.030 A 
ATOM     24  C   UNL     1       2.993  -0.902  23.741  0.00  0.00    +0.026 A 
ATOM     25  C   UNL     1       3.741   1.277  23.015  0.00  0.00    +0.026 A 
ATOM     27  C   UNL     1       4.310  -1.362  23.716  0.00  0.00    +0.040 A 
ATOM     28  C   UNL     1       5.058   0.818  22.989  0.00  0.00    +0.040 A 
ATOM     29  C   UNL     1       5.342  -0.503  23.339  0.00  0.00    +0.124 A 
ENDBRANCH   9  22
ENDBRANCH  15  17
ENDBRANCH  11  15
BRANCH  14  16
ATOM     16  C   UNL     1      -5.465   1.594  25.903  0.00  0.00    +0.138 C 
BRANCH  16  10
ATOM      7  O   UNL     1      -5.717  -0.578  24.042  0.00  0.00    -0.270 OA
ATOM     10  N   UNL     1      -4.516   0.544  25.680  0.00  0.00    -0.309 N 
ATOM     23  C   UNL     1      -4.720  -0.475  24.752  0.00  0.00    +0.244 C 
ATOM     37  H   UNL     1      -3.644   0.599  26.195  0.00  0.00    +0.149 HD
BRANCH  23  26
ATOM      2  F   UNL     1      -3.047  -4.721  23.073  0.00  0.00    -0.205 F 
ATOM     26  C   UNL     1      -3.652  -1.502  24.659  0.00  0.00    +0.039 A 
ATOM     30  C   UNL     1      -3.856  -2.652  23.895  0.00  0.00    +0.051 A 
ATOM     31  C   UNL     1      -2.447  -1.320  25.337  0.00  0.00    +0.013 A 
ATOM     32  C   UNL     1      -2.853  -3.618  23.808  0.00  0.00    +0.124 A 
ATOM     33  C   UNL     1      -1.445  -2.285  25.250  0.00  0.00    +0.004 A 
ATOM     34  C   UNL     1      -1.647  -3.435  24.485  0.00  0.00    +0.038 A 
ENDBRANCH  23  26
ENDBRANCH  16  10
ENDBRANCH  14  16
TORSDOF 8
ENDMDL
MODEL 4
REMARK VINA RESULT:       4.5      2.473      5.271
REMARK  Name = 40777958
REMARK  8 active torsions:
REMARK  status: ('A' for Active; 'I' for Inactive)
REMARK    1  A    between atoms: O_4  and  C_12
REMARK    2  A    between atoms: O_5  and  C_13
REMARK    3  A    between atoms: N_9  and  C_22
REMARK    4  A    between atoms: N_10  and  C_16
REMARK    5  A    between atoms: C_11  and  C_15
REMARK    6  A    between atoms: C_14  and  C_16
REMARK    7  A    between atoms: C_15  and  C_17
REMARK    8  A    between atoms: C_23  and  C_26
REMARK                            x       y       z     vdW  Elec       q    Type
REMARK                         _______ _______ _______ _____ _____    ______ ____
ROOT
ATOM      3  O   UNL     1      -3.284  -0.526  25.317  0.00  0.00    -0.366 OA
ATOM     11  C   UNL     1      -3.782  -1.346  24.236  0.00  0.00    +0.159 C 
ATOM     12  C   UNL     1      -3.022  -2.666  24.313  0.00  0.00    +0.175 C 
ATOM     13  C   UNL     1      -1.709  -2.238  24.932  0.00  0.00    +0.176 C 
ATOM     14  C   UNL     1      -2.171  -1.194  25.937  0.00  0.00    +0.167 C 
ENDROOT
BRANCH  12   4
ATOM      4  O   UNL     1      -3.729  -3.533  25.200  0.00  0.00    -0.387 OA
ATOM     35  H   UNL     1      -4.542  -3.814  24.746  0.00  0.00    +0.210 HD
ENDBRANCH  12   4
BRANCH  13   5
ATOM      5  O   UNL     1      -1.012  -3.297  25.552  0.00  0.00    -0.387 OA
ATOM     36  H   UNL     1      -0.935  -3.082  26.498  0.00  0.00    +0.210 HD
ENDBRANCH  13   5
BRANCH  11  15
ATOM     15  C   UNL     1      -3.543  -0.596  22.933  0.00  0.00    +0.130 C 
BRANCH  15  17
ATOM      6  O   UNL     1      -3.271   1.700  23.477  0.00  0.00    -0.276 OA
ATOM      8  N   UNL     1      -1.330   0.482  23.091  0.00  0.00    -0.298 N 
ATOM      9  N   UNL     1       1.553   0.221  23.116  0.00  0.00    -0.327 N 
ATOM     17  C   UNL     1      -2.713   0.637  23.195  0.00  0.00    +0.218 C 
ATOM     18  C   UNL     1      -0.669  -0.782  22.755  0.00  0.00    +0.126 C 
ATOM     19  C   UNL     1      -0.456   1.627  23.336  0.00  0.00    +0.126 C 
ATOM     20  C   UNL     1       0.741  -0.582  22.198  0.00  0.00    +0.124 C 
ATOM     21  C   UNL     1       0.873   1.207  23.960  0.00  0.00    +0.124 C 
BRANCH   9  22
ATOM      1  F   UNL     1       7.043  -0.333  23.296  0.00  0.00    -0.205 F 
ATOM     22  C   UNL     1       2.938   0.081  23.161  0.00  0.00    +0.030 A 
ATOM     24  C   UNL     1       3.758   1.132  22.751  0.00  0.00    +0.026 A 
ATOM     25  C   UNL     1       3.504  -1.108  23.618  0.00  0.00    +0.026 A 
ATOM     27  C   UNL     1       5.145   0.992  22.796  0.00  0.00    +0.040 A 
ATOM     28  C   UNL     1       4.891  -1.248  23.664  0.00  0.00    +0.040 A 
ATOM     29  C   UNL     1       5.712  -0.198  23.253  0.00  0.00    +0.124 A 
ENDBRANCH   9  22
ENDBRANCH  15  17
ENDBRANCH  11  15
BRANCH  14  16
ATOM     16  C   UNL     1      -1.097  -0.181  26.289  0.00  0.00    +0.138 C 
BRANCH  16  10
ATOM      7  O   UNL     1       0.238   2.264  26.983  0.00  0.00    -0.270 OA
ATOM     10  N   UNL     1      -1.497   1.146  25.924  0.00  0.00    -0.309 N 
ATOM     23  C   UNL     1      -0.787   2.281  26.306  0.00  0.00    +0.244 C 
ATOM     37  H   UNL     1      -2.306   1.228  25.317  0.00  0.00    +0.149 HD
BRANCH  23  26
ATOM      2  F   UNL     1      -4.506   5.390  25.920  0.00  0.00    -0.205 F 
ATOM     26  C   UNL     1      -1.347   3.585  25.868  0.00  0.00    +0.039 A 
ATOM     30  C   UNL     1      -2.690   3.881  26.104  0.00  0.00    +0.051 A 
ATOM     31  C   UNL     1      -0.532   4.513  25.219  0.00  0.00    +0.013 A 
ATOM     32  C   UNL     1      -3.217   5.105  25.692  0.00  0.00    +0.124 A 
ATOM     33  C   UNL     1      -1.059   5.736  24.808  0.00  0.00    +0.004 A 
ATOM     34  C   UNL     1      -2.402   6.033  25.044  0.00  0.00    +0.038 A 
ENDBRANCH  23  26
ENDBRANCH  16  10
ENDBRANCH  14  16
TORSDOF 8
ENDMDL
MODEL 5
REMARK VINA RESULT:       5.2      1.906      4.711
REMARK  Name = 40777958
REMARK  8 active torsions:
REMARK  status: ('A' for Active; 'I' for Inactive)
REMARK    1  A    between atoms: O_4  and  C_12
REMARK    2  A    between atoms: O_5  and  C_13
REMARK    3  A    between atoms: N_9  and  C_22
REMARK    4  A    between atoms: N_10  and  C_16
REMARK    5  A    between atoms: C_11  and  C_15
REMARK    6  A    between atoms: C_14  and  C_16
REMARK    7  A    between atoms: C_15  and  C_17
REMARK    8  A    between atoms: C_23  and  C_26
REMARK                            x       y       z     vdW  Elec       q    Type
REMARK                         _______ _______ _______ _____ _____    ______ ____
ROOT
ATOM      3  O   UNL     1      -5.085  -0.921  24.261  0.00  0.00    -0.366 OA
ATOM     11  C   UNL     1      -4.040  -1.705  23.640  0.00  0.00    +0.159 C 
ATOM     12  C   UNL     1      -2.998  -1.964  24.722  0.00  0.00    +0.175 C 
ATOM     13  C   UNL     1      -3.162  -0.752  25.616  0.00  0.00    +0.176 C 
ATOM     14  C   UNL     1      -4.670  -0.557  25.589  0.00  0.00    +0.167 C 
ENDROOT
BRANCH  12   4
ATOM      4  O   UNL     1      -3.372  -3.150  25.423  0.00  0.00    -0.387 OA
ATOM     35  H   UNL     1      -4.281  -3.024  25.743  0.00  0.00    +0.210 HD
ENDBRANCH  12   4
BRANCH  13   5
ATOM      5  O   UNL     1      -2.678  -0.954  26.926  0.00  0.00    -0.387 OA
ATOM     36  H   UNL     1      -2.566  -0.079  27.335  0.00  0.00    +0.210 HD
ENDBRANCH  13   5
BRANCH  11  15
ATOM     15  C   UNL     1      -3.494  -0.905  22.465  0.00  0.00    +0.130 C 
BRANCH  15  17
ATOM      6  O   UNL     1      -3.376   1.287  23.370  0.00  0.00    -0.276 OA
ATOM      8  N   UNL     1      -1.354   0.227  22.942  0.00  0.00    -0.298 N 
ATOM      9  N   UNL     1       1.531   0.085  23.132  0.00  0.00    -0.327 N 
ATOM     17  C   UNL     1      -2.747   0.306  22.970  0.00  0.00    +0.218 C 
ATOM     18  C   UNL     1      -0.608  -0.942  22.466  0.00  0.00    +0.126 C 
ATOM     19  C   UNL     1      -0.559   1.354  23.420  0.00  0.00    +0.126 C 
ATOM     20  C   UNL     1       0.822  -0.599  22.048  0.00  0.00    +0.124 C 
ATOM     21  C   UNL     1       0.748   0.899  24.066  0.00  0.00    +0.124 C 
BRANCH   9  22
ATOM      1  F   UNL     1       7.020  -0.265  23.617  0.00  0.00    -0.205 F 
ATOM     22  C   UNL     1       2.916  -0.003  23.255  0.00  0.00    +0.030 A 
ATOM     24  C   UNL     1       3.500  -1.178  23.728  0.00  0.00    +0.026 A 
ATOM     25  C   UNL     1       3.717   1.082  22.904  0.00  0.00    +0.026 A 
ATOM     27  C   UNL     1       4.887  -1.266  23.851  0.00  0.00    +0.040 A 
ATOM     28  C   UNL     1       5.104   0.994  23.025  0.00  0.00    +0.040 A 
ATOM     29  C   UNL     1       5.688  -0.181  23.499  0.00  0.00    +0.124 A 
ENDBRANCH   9  22
ENDBRANCH  15  17
ENDBRANCH  11  15
BRANCH  14  16
ATOM     16  C   UNL     1      -5.097   0.869  25.886  0.00  0.00    +0.138 C 
BRANCH  16  10
ATOM      7  O   UNL     1      -5.281   3.715  25.552  0.00  0.00    -0.270 OA
ATOM     10  N   UNL     1      -4.006   1.783  25.712  0.00  0.00    -0.309 N 
ATOM     23  C   UNL     1      -4.188   3.155  25.557  0.00  0.00    +0.244 C 
ATOM     37  H   UNL     1      -3.071   1.393  25.762  0.00  0.00    +0.149 HD
BRANCH  23  26
ATOM      2  F   UNL     1       0.647   3.642  25.750  0.00  0.00    -0.205 F 
ATOM     26  C   UNL     1      -2.956   3.963  25.362  0.00  0.00    +0.039 A 
ATOM     30  C   UNL     1      -1.708   3.412  25.654  0.00  0.00    +0.051 A 
ATOM     31  C   UNL     1      -3.048   5.272  24.890  0.00  0.00    +0.013 A 
ATOM     32  C   UNL     1      -0.552   4.171  25.472  0.00  0.00    +0.124 A 
ATOM     33  C   UNL     1      -1.892   6.030  24.708  0.00  0.00    +0.004 A 
ATOM     34  C   UNL     1      -0.643   5.480  24.998  0.00  0.00    +0.038 A 
ENDBRANCH  23  26
ENDBRANCH  16  10
ENDBRANCH  14  16
TORSDOF 8
ENDMDL
MODEL 6
REMARK VINA RESULT:       5.8      1.566      2.021
REMARK  Name = 40777958
REMARK  8 active torsions:
REMARK  status: ('A' for Active; 'I' for Inactive)
REMARK    1  A    between atoms: O_4  and  C_12
REMARK    2  A    between atoms: O_5  and  C_13
REMARK    3  A    between atoms: N_9  and  C_22
REMARK    4  A    between atoms: N_10  and  C_16
REMARK    5  A    between atoms: C_11  and  C_15
REMARK    6  A    between atoms: C_14  and  C_16
REMARK    7  A    between atoms: C_15  and  C_17
REMARK    8  A    between atoms: C_23  and  C_26
REMARK                            x       y       z     vdW  Elec       q    Type
REMARK                         _______ _______ _______ _____ _____    ______ ____
ROOT
ATOM      3  O   UNL     1      -3.034   4.288  25.711  0.00  0.00    -0.366 OA
ATOM     11  C   UNL     1      -3.949   4.756  24.693  0.00  0.00    +0.159 C 
ATOM     12  C   UNL     1      -5.229   3.946  24.863  0.00  0.00    +0.175 C 
ATOM     13  C   UNL     1      -4.708   2.649  25.445  0.00  0.00    +0.176 C 
ATOM     14  C   UNL     1      -3.613   3.151  26.373  0.00  0.00    +0.167 C 
ENDROOT
BRANCH  12   4
ATOM      4  O   UNL     1      -6.056   4.619  25.812  0.00  0.00    -0.387 OA
ATOM     35  H   UNL     1      -6.973   4.556  25.495  0.00  0.00    +0.210 HD
ENDBRANCH  12   4
BRANCH  13   5
ATOM      5  O   UNL     1      -5.693   1.912  26.138  0.00  0.00    -0.387 OA
ATOM     36  H   UNL     1      -5.851   2.361  26.986  0.00  0.00    +0.210 HD
ENDBRANCH  13   5
BRANCH  11  15
ATOM     15  C   UNL     1      -3.286   4.546  23.338  0.00  0.00    +0.130 C 
BRANCH  15  17
ATOM      6  O   UNL     1      -4.166   2.436  22.696  0.00  0.00    -0.276 OA
ATOM      8  N   UNL     1      -1.900   2.508  23.207  0.00  0.00    -0.298 N 
ATOM      9  N   UNL     1       0.725   1.292  23.294  0.00  0.00    -0.327 N 
ATOM     17  C   UNL     1      -3.168   3.069  23.047  0.00  0.00    +0.218 C 
ATOM     18  C   UNL     1      -0.716   3.264  23.624  0.00  0.00    +0.126 C 
ATOM     19  C   UNL     1      -1.703   1.087  22.938  0.00  0.00    +0.126 C 
ATOM     20  C   UNL     1       0.373   2.372  24.220  0.00  0.00    +0.124 C 
ATOM     21  C   UNL     1      -0.310   0.799  22.382  0.00  0.00    +0.124 C 
BRANCH   9  22
ATOM      1  F   UNL     1       5.761  -0.970  23.331  0.00  0.00    -0.205 F 
ATOM     22  C   UNL     1       1.995   0.721  23.303  0.00  0.00    +0.030 A 
ATOM     24  C   UNL     1       3.106   1.488  22.952  0.00  0.00    +0.026 A 
ATOM     25  C   UNL     1       2.157  -0.616  23.665  0.00  0.00    +0.026 A 
ATOM     27  C   UNL     1       4.379   0.917  22.960  0.00  0.00    +0.040 A 
ATOM     28  C   UNL     1       3.429  -1.187  23.674  0.00  0.00    +0.040 A 
ATOM     29  C   UNL     1       4.540  -0.421  23.323  0.00  0.00    +0.124 A 
ENDBRANCH   9  22
ENDBRANCH  15  17
ENDBRANCH  11  15
BRANCH  14  16
ATOM     16  C   UNL     1      -2.537   2.116  26.648  0.00  0.00    +0.138 C 
BRANCH  16  10
ATOM      7  O   UNL     1      -0.714  -0.066  26.254  0.00  0.00    -0.270 OA
ATOM     10  N   UNL     1      -2.805   0.893  25.951  0.00  0.00    -0.309 N 
ATOM     23  C   UNL     1      -1.857  -0.118  25.807  0.00  0.00    +0.244 C 
ATOM     37  H   UNL     1      -3.749   0.762  25.603  0.00  0.00    +0.149 HD
BRANCH  23  26
ATOM      2  F   UNL     1      -5.324  -2.801  23.705  0.00  0.00    -0.205 F 
ATOM     26  C   UNL     1      -2.283  -1.312  25.035  0.00  0.00    +0.039 A 
ATOM     30  C   UNL     1      -3.630  -1.500  24.727  0.00  0.00    +0.051 A 
ATOM     31  C   UNL     1      -1.336  -2.248  24.619  0.00  0.00    +0.013 A 
ATOM     32  C   UNL     1      -4.030  -2.622  24.002  0.00  0.00    +0.124 A 
ATOM     33  C   UNL     1      -1.736  -3.370  23.894  0.00  0.00    +0.004 A 
ATOM     34  C   UNL     1      -3.083  -3.558  23.585  0.00  0.00    +0.038 A 
ENDBRANCH  23  26
ENDBRANCH  16  10
ENDBRANCH  14  16
TORSDOF 8
ENDMDL
MODEL 7
REMARK VINA RESULT:       6.0      1.641      2.671
REMARK  Name = 40777958
REMARK  8 active torsions:
REMARK  status: ('A' for Active; 'I' for Inactive)
REMARK    1  A    between atoms: O_4  and  C_12
REMARK    2  A    between atoms: O_5  and  C_13
REMARK    3  A    between atoms: N_9  and  C_22
REMARK    4  A    between atoms: N_10  and  C_16
REMARK    5  A    between atoms: C_11  and  C_15
REMARK    6  A    between atoms: C_14  and  C_16
REMARK    7  A    between atoms: C_15  and  C_17
REMARK    8  A    between atoms: C_23  and  C_26
REMARK                            x       y       z     vdW  Elec       q    Type
REMARK                         _______ _______ _______ _____ _____    ______ ____
ROOT
ATOM      3  O   UNL     1      -5.303   4.039  25.345  0.00  0.00    -0.366 OA
ATOM     11  C   UNL     1      -4.351   4.941  24.735  0.00  0.00    +0.159 C 
ATOM     12  C   UNL     1      -3.716   4.176  23.579  0.00  0.00    +0.175 C 
ATOM     13  C   UNL     1      -3.812   2.743  24.057  0.00  0.00    +0.176 C 
ATOM     14  C   UNL     1      -5.170   2.741  24.741  0.00  0.00    +0.167 C 
ENDROOT
BRANCH  12   4
ATOM      4  O   UNL     1      -4.530   4.368  22.421  0.00  0.00    -0.387 OA
ATOM     35  H   UNL     1      -4.520   3.536  21.918  0.00  0.00    +0.210 HD
ENDBRANCH  12   4
BRANCH  13   5
ATOM      5  O   UNL     1      -3.745   1.799  23.011  0.00  0.00    -0.387 OA
ATOM     36  H   UNL     1      -4.576   1.294  23.019  0.00  0.00    +0.210 HD
ENDBRANCH  13   5
BRANCH  11  15
ATOM     15  C   UNL     1      -3.346   5.350  25.803  0.00  0.00    +0.130 C 
BRANCH  15  17
ATOM      6  O   UNL     1      -3.207   3.701  27.506  0.00  0.00    -0.276 OA
ATOM      8  N   UNL     1      -1.678   3.532  25.765  0.00  0.00    -0.298 N 
ATOM      9  N   UNL     1       0.398   2.108  24.336  0.00  0.00    -0.327 N 
ATOM     17  C   UNL     1      -2.747   4.121  26.442  0.00  0.00    +0.218 C 
ATOM     18  C   UNL     1      -1.132   4.033  24.501  0.00  0.00    +0.126 C 
ATOM     19  C   UNL     1      -1.048   2.336  26.316  0.00  0.00    +0.126 C 
ATOM     20  C   UNL     1       0.302   3.568  24.251  0.00  0.00    +0.124 C 
ATOM     21  C   UNL     1      -0.535   1.404  25.220  0.00  0.00    +0.124 C 
BRANCH   9  22
ATOM      1  F   UNL     1       4.254  -0.668  21.524  0.00  0.00    -0.205 F 
ATOM     22  C   UNL     1       1.371   1.408  23.627  0.00  0.00    +0.030 A 
ATOM     24  C   UNL     1       1.056   0.185  23.035  0.00  0.00    +0.026 A 
ATOM     25  C   UNL     1       2.658   1.930  23.508  0.00  0.00    +0.026 A 
ATOM     27  C   UNL     1       2.030  -0.517  22.324  0.00  0.00    +0.040 A 
ATOM     28  C   UNL     1       3.633   1.229  22.798  0.00  0.00    +0.040 A 
ATOM     29  C   UNL     1       3.318   0.006  22.205  0.00  0.00    +0.124 A 
ENDBRANCH   9  22
ENDBRANCH  15  17
ENDBRANCH  11  15
BRANCH  14  16
ATOM     16  C   UNL     1      -5.307   1.666  25.804  0.00  0.00    +0.138 C 
BRANCH  16  10
ATOM      7  O   UNL     1      -5.510  -0.565  24.008  0.00  0.00    -0.270 OA
ATOM     10  N   UNL     1      -4.337   0.626  25.616  0.00  0.00    -0.309 N 
ATOM     23  C   UNL     1      -4.519  -0.423  24.718  0.00  0.00    +0.244 C 
ATOM     37  H   UNL     1      -3.469   0.713  26.133  0.00  0.00    +0.149 HD
BRANCH  23  26
ATOM      2  F   UNL     1       0.057  -1.794  25.628  0.00  0.00    -0.205 F 
ATOM     26  C   UNL     1      -3.431  -1.433  24.661  0.00  0.00    +0.039 A 
ATOM     30  C   UNL     1      -2.172  -1.133  25.181  0.00  0.00    +0.051 A 
ATOM     31  C   UNL     1      -3.668  -2.681  24.084  0.00  0.00    +0.013 A 
ATOM     32  C   UNL     1      -1.151  -2.082  25.126  0.00  0.00    +0.124 A 
ATOM     33  C   UNL     1      -2.647  -3.629  24.029  0.00  0.00    +0.004 A 
ATOM     34  C   UNL     1      -1.388  -3.330  24.550  0.00  0.00    +0.038 A 
ENDBRANCH  23  26
ENDBRANCH  16  10
ENDBRANCH  14  16
TORSDOF 8
ENDMDL
