MODEL 1
REMARK VINA RESULT:       7.8      0.000      0.000
REMARK  Name = 11911715
REMARK  9 active torsions:
REMARK  status: ('A' for Active; 'I' for Inactive)
REMARK    1  A    between atoms: O_4  and  C_27
REMARK    2  A    between atoms: O_4  and  C_33
REMARK    3  A    between atoms: N_5  and  C_12
REMARK    4  A    between atoms: N_6  and  C_13
REMARK    5  A    between atoms: N_9  and  C_32
REMARK    6  A    between atoms: N_9  and  C_34
REMARK    7  A    between atoms: N_9  and  C_35
REMARK    8  A    between atoms: C_17  and  C_18
REMARK    9  A    between atoms: C_19  and  C_24
REMARK                            x       y       z     vdW  Elec       q    Type
REMARK                         _______ _______ _______ _____ _____    ______ ____
ROOT
ATOM      1  O   UNL     1      -4.117  -1.652  23.260  0.00  0.00    -0.370 OA
ATOM      2  O   UNL     1      -2.694  -1.440  26.030  0.00  0.00    -0.370 OA
ATOM     10  C   UNL     1      -3.049  -0.471  25.028  0.00  0.00    +0.171 C 
ATOM     11  C   UNL     1      -2.846  -1.126  23.677  0.00  0.00    +0.171 C 
ATOM     12  C   UNL     1      -4.531  -0.183  25.081  0.00  0.00    +0.130 C 
ATOM     13  C   UNL     1      -1.877  -2.253  23.956  0.00  0.00    +0.130 C 
ATOM     14  C   UNL     1      -5.116  -1.292  24.226  0.00  0.00    +0.185 C 
ATOM     15  C   UNL     1      -2.222  -2.632  25.384  0.00  0.00    +0.185 C 
ENDROOT
BRANCH  12   5
ATOM      5  N   UNL     1      -4.805   1.107  24.483  0.00  0.00    -0.306 N 
ATOM      7  N   UNL     1      -2.938   2.098  25.502  0.00  0.00    -0.214 NA
ATOM      8  N   UNL     1      -4.391   3.378  24.067  0.00  0.00    -0.223 NA
ATOM     16  C   UNL     1      -4.021   2.227  24.690  0.00  0.00    +0.216 A 
ATOM     19  C   UNL     1      -2.196   3.211  25.682  0.00  0.00    +0.076 A 
ATOM     22  C   UNL     1      -3.604   4.452  24.290  0.00  0.00    +0.116 A 
ATOM     23  C   UNL     1      -2.484   4.427  25.096  0.00  0.00    +0.048 A 
ATOM     36  H   UNL     1      -5.579   1.201  23.835  0.00  0.00    +0.149 HD
BRANCH  19  24
ATOM     24  C   UNL     1      -1.051   3.051  26.546  0.00  0.00    +0.001 A 
ATOM     28  C   UNL     1      -1.214   3.050  27.932  0.00  0.00    +0.012 A 
ATOM     29  C   UNL     1       0.224   2.892  25.997  0.00  0.00    +0.012 A 
ATOM     30  C   UNL     1      -0.107   2.893  28.768  0.00  0.00    +0.024 A 
ATOM     31  C   UNL     1       1.330   2.735  26.832  0.00  0.00    +0.024 A 
ATOM     32  C   UNL     1       1.164   2.736  28.217  0.00  0.00    +0.029 A 
BRANCH  32   9
ATOM      9  N   UNL     1       2.284   2.577  29.061  0.00  0.00    -0.336 N 
ATOM     34  C   UNL     1       2.156   1.877  30.324  0.00  0.00    +0.129 C 
ATOM     35  C   UNL     1       3.571   3.123  28.684  0.00  0.00    +0.129 C 
ENDBRANCH  32   9
ENDBRANCH  19  24
ENDBRANCH  12   5
BRANCH  13   6
ATOM      3  O   UNL     1      -0.987   0.383  23.242  0.00  0.00    -0.270 OA
ATOM      6  N   UNL     1      -0.510  -1.804  23.849  0.00  0.00    -0.304 N 
ATOM     17  C   UNL     1      -0.177  -0.504  23.496  0.00  0.00    +0.244 C 
ATOM     37  H   UNL     1       0.213  -2.511  23.933  0.00  0.00    +0.149 HD
BRANCH  17  18
ATOM     18  C   UNL     1       1.276  -0.207  23.405  0.00  0.00    +0.037 A 
ATOM     20  C   UNL     1       1.676   1.095  23.185  0.00  0.00    +0.016 A 
ATOM     21  C   UNL     1       2.179  -1.241  23.545  0.00  0.00    +0.016 A 
ATOM     25  C   UNL     1       3.040   1.376  23.100  0.00  0.00    +0.046 A 
ATOM     26  C   UNL     1       3.542  -0.961  23.460  0.00  0.00    +0.046 A 
ATOM     27  C   UNL     1       3.973   0.348  23.238  0.00  0.00    +0.120 A 
BRANCH  27   4
ATOM      4  O   UNL     1       5.304   0.621  23.156  0.00  0.00    -0.495 OA
ATOM     33  C   UNL     1       6.194  -0.285  23.807  0.00  0.00    +0.277 C 
ENDBRANCH  27   4
ENDBRANCH  17  18
ENDBRANCH  13   6
TORSDOF 6
ENDMDL
MODEL 2
REMARK VINA RESULT:      10.0      0.659      1.040
REMARK  Name = 11911715
REMARK  9 active torsions:
REMARK  status: ('A' for Active; 'I' for Inactive)
REMARK    1  A    between atoms: O_4  and  C_27
REMARK    2  A    between atoms: O_4  and  C_33
REMARK    3  A    between atoms: N_5  and  C_12
REMARK    4  A    between atoms: N_6  and  C_13
REMARK    5  A    between atoms: N_9  and  C_32
REMARK    6  A    between atoms: N_9  and  C_34
REMARK    7  A    between atoms: N_9  and  C_35
REMARK    8  A    between atoms: C_17  and  C_18
REMARK    9  A    between atoms: C_19  and  C_24
REMARK                            x       y       z     vdW  Elec       q    Type
REMARK                         _______ _______ _______ _____ _____    ______ ____
ROOT
ATOM      1  O   UNL     1      -4.729  -1.135  23.453  0.00  0.00    -0.370 OA
ATOM      2  O   UNL     1      -3.313  -0.986  26.230  0.00  0.00    -0.370 OA
ATOM     10  C   UNL     1      -3.504  -0.033  25.169  0.00  0.00    +0.171 C 
ATOM     11  C   UNL     1      -3.395  -0.790  23.861  0.00  0.00    +0.171 C 
ATOM     12  C   UNL     1      -4.923   0.485  25.180  0.00  0.00    +0.130 C 
ATOM     13  C   UNL     1      -2.617  -2.035  24.220  0.00  0.00    +0.130 C 
ATOM     14  C   UNL     1      -5.668  -0.568  24.380  0.00  0.00    +0.185 C 
ATOM     15  C   UNL     1      -3.029  -2.272  25.661  0.00  0.00    +0.185 C 
ENDROOT
BRANCH  12   5
ATOM      5  N   UNL     1      -4.987   1.764  24.506  0.00  0.00    -0.306 N 
ATOM      7  N   UNL     1      -2.969   2.490  25.458  0.00  0.00    -0.214 NA
ATOM      8  N   UNL     1      -4.208   3.906  23.951  0.00  0.00    -0.223 NA
ATOM     16  C   UNL     1      -4.026   2.749  24.642  0.00  0.00    +0.216 A 
ATOM     19  C   UNL     1      -2.051   3.473  25.567  0.00  0.00    +0.076 A 
ATOM     22  C   UNL     1      -3.251   4.845  24.107  0.00  0.00    +0.116 A 
ATOM     23  C   UNL     1      -2.140   4.682  24.909  0.00  0.00    +0.048 A 
ATOM     36  H   UNL     1      -5.744   1.947  23.856  0.00  0.00    +0.149 HD
BRANCH  19  24
ATOM     24  C   UNL     1      -0.937   3.176  26.436  0.00  0.00    +0.001 A 
ATOM     28  C   UNL     1      -1.130   3.088  27.817  0.00  0.00    +0.012 A 
ATOM     29  C   UNL     1       0.336   2.973  25.899  0.00  0.00    +0.012 A 
ATOM     30  C   UNL     1      -0.053   2.799  28.657  0.00  0.00    +0.024 A 
ATOM     31  C   UNL     1       1.412   2.684  26.739  0.00  0.00    +0.024 A 
ATOM     32  C   UNL     1       1.217   2.598  28.117  0.00  0.00    +0.029 A 
BRANCH  32   9
ATOM      9  N   UNL     1       2.306   2.306  28.966  0.00  0.00    -0.336 N 
ATOM     34  C   UNL     1       2.076   1.836  30.318  0.00  0.00    +0.129 C 
ATOM     35  C   UNL     1       3.666   2.485  28.503  0.00  0.00    +0.129 C 
ENDBRANCH  32   9
ENDBRANCH  19  24
ENDBRANCH  12   5
BRANCH  13   6
ATOM      3  O   UNL     1      -1.316   0.430  23.529  0.00  0.00    -0.270 OA
ATOM      6  N   UNL     1      -1.195  -1.812  24.112  0.00  0.00    -0.304 N 
ATOM     17  C   UNL     1      -0.658  -0.579  23.770  0.00  0.00    +0.244 C 
ATOM     37  H   UNL     1      -0.596  -2.628  24.184  0.00  0.00    +0.149 HD
BRANCH  17  18
ATOM     18  C   UNL     1       0.824  -0.519  23.676  0.00  0.00    +0.037 A 
ATOM     20  C   UNL     1       1.564  -1.580  24.156  0.00  0.00    +0.016 A 
ATOM     21  C   UNL     1       1.411   0.593  23.109  0.00  0.00    +0.016 A 
ATOM     25  C   UNL     1       2.955  -1.524  24.068  0.00  0.00    +0.046 A 
ATOM     26  C   UNL     1       2.802   0.648  23.021  0.00  0.00    +0.046 A 
ATOM     27  C   UNL     1       3.574  -0.411  23.499  0.00  0.00    +0.120 A 
BRANCH  27   4
ATOM      4  O   UNL     1       4.931  -0.357  23.411  0.00  0.00    -0.495 OA
ATOM     33  C   UNL     1       5.551   0.899  23.687  0.00  0.00    +0.277 C 
ENDBRANCH  27   4
ENDBRANCH  17  18
ENDBRANCH  13   6
TORSDOF 6
ENDMDL
MODEL 3
REMARK VINA RESULT:      11.2      2.222      5.434
REMARK  Name = 11911715
REMARK  9 active torsions:
REMARK  status: ('A' for Active; 'I' for Inactive)
REMARK    1  A    between atoms: O_4  and  C_27
REMARK    2  A    between atoms: O_4  and  C_33
REMARK    3  A    between atoms: N_5  and  C_12
REMARK    4  A    between atoms: N_6  and  C_13
REMARK    5  A    between atoms: N_9  and  C_32
REMARK    6  A    between atoms: N_9  and  C_34
REMARK    7  A    between atoms: N_9  and  C_35
REMARK    8  A    between atoms: C_17  and  C_18
REMARK    9  A    between atoms: C_19  and  C_24
REMARK                            x       y       z     vdW  Elec       q    Type
REMARK                         _______ _______ _______ _____ _____    ______ ____
ROOT
ATOM      1  O   UNL     1      -5.456   2.827  25.782  0.00  0.00    -0.370 OA
ATOM      2  O   UNL     1      -3.106   3.296  23.783  0.00  0.00    -0.370 OA
ATOM     10  C   UNL     1      -3.537   2.156  24.547  0.00  0.00    +0.171 C 
ATOM     11  C   UNL     1      -4.031   2.671  25.884  0.00  0.00    +0.171 C 
ATOM     12  C   UNL     1      -4.760   1.535  23.915  0.00  0.00    +0.130 C 
ATOM     13  C   UNL     1      -3.364   4.020  26.028  0.00  0.00    +0.130 C 
ATOM     14  C   UNL     1      -5.892   2.361  24.496  0.00  0.00    +0.185 C 
ATOM     15  C   UNL     1      -3.241   4.478  24.586  0.00  0.00    +0.185 C 
ENDROOT
BRANCH  12   5
ATOM      5  N   UNL     1      -4.884   0.154  24.331  0.00  0.00    -0.306 N 
ATOM      7  N   UNL     1      -2.579  -0.232  24.119  0.00  0.00    -0.214 NA
ATOM      8  N   UNL     1      -4.067  -1.987  24.837  0.00  0.00    -0.223 NA
ATOM     16  C   UNL     1      -3.811  -0.714  24.432  0.00  0.00    +0.216 A 
ATOM     19  C   UNL     1      -1.556  -1.106  24.228  0.00  0.00    +0.076 A 
ATOM     22  C   UNL     1      -2.998  -2.806  24.924  0.00  0.00    +0.116 A 
ATOM     23  C   UNL     1      -1.708  -2.417  24.630  0.00  0.00    +0.048 A 
ATOM     36  H   UNL     1      -5.790  -0.201  24.617  0.00  0.00    +0.149 HD
BRANCH  19  24
ATOM     24  C   UNL     1      -0.257  -0.573  23.891  0.00  0.00    +0.001 A 
ATOM     28  C   UNL     1       0.804  -1.437  23.613  0.00  0.00    +0.012 A 
ATOM     29  C   UNL     1      -0.059   0.810  23.840  0.00  0.00    +0.012 A 
ATOM     30  C   UNL     1       2.059  -0.921  23.287  0.00  0.00    +0.024 A 
ATOM     31  C   UNL     1       1.196   1.324  23.513  0.00  0.00    +0.024 A 
ATOM     32  C   UNL     1       2.254   0.459  23.237  0.00  0.00    +0.029 A 
BRANCH  32   9
ATOM      9  N   UNL     1       3.523   0.981  22.906  0.00  0.00    -0.336 N 
ATOM     34  C   UNL     1       4.722   0.207  23.161  0.00  0.00    +0.129 C 
ATOM     35  C   UNL     1       3.645   2.300  22.322  0.00  0.00    +0.129 C 
ENDBRANCH  32   9
ENDBRANCH  19  24
ENDBRANCH  12   5
BRANCH  13   6
ATOM      3  O   UNL     1      -1.768   1.639  26.211  0.00  0.00    -0.270 OA
ATOM      6  N   UNL     1      -2.068   3.897  26.650  0.00  0.00    -0.304 N 
ATOM     17  C   UNL     1      -1.370   2.699  26.689  0.00  0.00    +0.244 C 
ATOM     37  H   UNL     1      -1.729   4.703  27.165  0.00  0.00    +0.149 HD
BRANCH  17  18
ATOM     18  C   UNL     1      -0.060   2.732  27.390  0.00  0.00    +0.037 A 
ATOM     20  C   UNL     1       1.078   3.006  26.659  0.00  0.00    +0.016 A 
ATOM     21  C   UNL     1      -0.023   2.490  28.747  0.00  0.00    +0.016 A 
ATOM     25  C   UNL     1       2.309   3.038  27.315  0.00  0.00    +0.046 A 
ATOM     26  C   UNL     1       1.208   2.521  29.403  0.00  0.00    +0.046 A 
ATOM     27  C   UNL     1       2.373   2.796  28.687  0.00  0.00    +0.120 A 
BRANCH  27   4
ATOM      4  O   UNL     1       3.573   2.828  29.329  0.00  0.00    -0.495 OA
ATOM     33  C   UNL     1       4.698   2.298  28.628  0.00  0.00    +0.277 C 
ENDBRANCH  27   4
ENDBRANCH  17  18
ENDBRANCH  13   6
TORSDOF 6
ENDMDL
