MODEL 1
REMARK VINA RESULT:       0.0      0.000      0.000
REMARK  Name = 28962585
REMARK  8 active torsions:
REMARK  status: ('A' for Active; 'I' for Inactive)
REMARK    1  A    between atoms: O_1  and  C_9
REMARK    2  A    between atoms: N_4  and  C_13
REMARK    3  A    between atoms: C_6  and  C_16
REMARK    4  A    between atoms: C_8  and  C_18
REMARK    5  A    between atoms: C_11  and  C_17
REMARK    6  A    between atoms: C_17  and  C_19
REMARK    7  A    between atoms: C_17  and  C_20
REMARK    8  A    between atoms: C_21  and  C_26
REMARK                            x       y       z     vdW  Elec       q    Type
REMARK                         _______ _______ _______ _____ _____    ______ ____
ROOT
ATOM      6  C   UNL     1      -2.620  -1.113  25.070  0.00  0.00    -0.027 C 
ATOM      7  C   UNL     1      -2.153   0.131  24.243  0.00  0.00    +0.028 C 
ATOM      8  C   UNL     1      -0.590   0.279  24.289  0.00  0.00    +0.012 C 
ATOM      9  C   UNL     1      -2.957   1.404  24.635  0.00  0.00    +0.122 C 
ATOM     10  C   UNL     1      -4.148  -1.295  24.910  0.00  0.00    +0.007 C 
ATOM     11  C   UNL     1      -4.487   1.183  24.573  0.00  0.00    +0.029 C 
ATOM     12  C   UNL     1      -1.934  -2.379  24.508  0.00  0.00    +0.009 C 
ATOM     13  C   UNL     1       0.090  -1.029  23.792  0.00  0.00    +0.076 C 
ATOM     14  C   UNL     1      -4.940  -0.065  25.331  0.00  0.00    +0.007 C 
ATOM     15  C   UNL     1      -0.415  -2.284  24.503  0.00  0.00    +0.023 C 
ATOM     16  C   UNL     1      -2.290  -0.981  26.578  0.00  0.00    +0.011 C 
ATOM     18  C   UNL     1      -0.060   1.467  23.471  0.00  0.00    +0.010 C 
ENDROOT
BRANCH  13   4
ATOM      3  O   UNL     1       1.960  -0.028  21.857  0.00  0.00    -0.270 OA
ATOM      4  N   UNL     1       1.529  -0.970  23.932  0.00  0.00    -0.308 N 
ATOM     21  C   UNL     1       2.349  -0.467  22.937  0.00  0.00    +0.244 C 
ATOM     33  H   UNL     1       1.929  -1.421  24.748  0.00  0.00    +0.149 HD
BRANCH  21  26
ATOM     26  C   UNL     1       3.807  -0.500  23.222  0.00  0.00    +0.037 A 
ATOM     28  C   UNL     1       4.603   0.606  22.923  0.00  0.00    +0.013 A 
ATOM     29  C   UNL     1       4.380  -1.638  23.792  0.00  0.00    +0.013 A 
ATOM     30  C   UNL     1       5.971   0.574  23.192  0.00  0.00    +0.001 A 
ATOM     31  C   UNL     1       5.749  -1.669  24.061  0.00  0.00    +0.001 A 
ATOM     32  C   UNL     1       6.544  -0.564  23.761  0.00  0.00    +0.000 A 
ENDBRANCH  21  26
ENDBRANCH  13   4
BRANCH   9   1
ATOM      1  O   UNL     1      -2.659   2.457  23.718  0.00  0.00    -0.391 OA
ATOM     34  H   UNL     1      -2.823   2.130  22.817  0.00  0.00    +0.210 HD
ENDBRANCH   9   1
BRANCH  11  17
ATOM     17  C   UNL     1      -5.258   2.405  25.088  0.00  0.00    +0.078 C 
ATOM     19  C   UNL     1      -6.692   2.398  24.589  0.00  0.00    +0.017 C 
BRANCH  17  20
ATOM      2  O   UNL     1      -4.963   4.234  23.611  0.00  0.00    -0.275 OA
ATOM      5  N   UNL     1      -3.459   4.072  25.375  0.00  0.00    -0.301 N 
ATOM     20  C   UNL     1      -4.553   3.653  24.619  0.00  0.00    +0.219 C 
ATOM     22  C   UNL     1      -2.720   5.274  24.981  0.00  0.00    +0.108 C 
ATOM     23  C   UNL     1      -2.975   3.428  26.601  0.00  0.00    +0.108 C 
ATOM     24  C   UNL     1      -1.229   4.977  24.838  0.00  0.00    +0.019 C 
ATOM     25  C   UNL     1      -1.489   3.095  26.489  0.00  0.00    +0.019 C 
ATOM     27  C   UNL     1      -0.671   4.327  26.103  0.00  0.00    +0.003 C 
ENDBRANCH  17  20
ENDBRANCH  11  17
TORSDOF 5
ENDMDL
