MODEL 1
REMARK VINA RESULT:      -2.0      0.000      0.000
REMARK  Name = 7662775
REMARK  6 active torsions:
REMARK  status: ('A' for Active; 'I' for Inactive)
REMARK    1  A    between atoms: O_3  and  C_29
REMARK    2  A    between atoms: N_4  and  C_14
REMARK    3  A    between atoms: C_14  and  C_19
REMARK    4  A    between atoms: C_15  and  C_20
REMARK    5  A    between atoms: C_24  and  C_29
REMARK    6  A    between atoms: C_26  and  C_30
REMARK                            x       y       z     vdW  Elec       q    Type
REMARK                         _______ _______ _______ _____ _____    ______ ____
ROOT
ATOM      1  O   UNL     1      -2.377   4.386  27.247  0.00  0.00    -0.268 OA
ATOM      4  N   UNL     1      -4.150   0.855  24.206  0.00  0.00    -0.294 NA
ATOM      5  N   UNL     1      -2.306   3.248  25.202  0.00  0.00    -0.311 N 
ATOM      7  C   UNL     1      -4.290   3.272  23.575  0.00  0.00    +0.024 C 
ATOM      8  C   UNL     1      -2.272   2.004  23.019  0.00  0.00    +0.051 C 
ATOM      9  C   UNL     1      -3.223   3.084  22.510  0.00  0.00    +0.017 C 
ATOM     10  C   UNL     1      -5.046   1.950  23.814  0.00  0.00    +0.090 C 
ATOM     11  C   UNL     1      -3.059   0.689  23.237  0.00  0.00    +0.094 C 
ATOM     12  C   UNL     1      -3.620   3.801  24.846  0.00  0.00    +0.130 C 
ATOM     13  C   UNL     1      -1.572   2.441  24.309  0.00  0.00    +0.034 A 
ATOM     15  C   UNL     1      -0.304   2.067  24.621  0.00  0.00    +0.002 A 
ATOM     16  C   UNL     1      -1.786   3.670  26.438  0.00  0.00    +0.252 A 
ATOM     17  C   UNL     1       0.264   2.479  25.890  0.00  0.00    +0.015 A 
ATOM     18  C   UNL     1      -0.414   3.220  26.767  0.00  0.00    +0.071 A 
ENDROOT
BRANCH  15  20
ATOM     20  C   UNL     1       0.510   1.238  23.706  0.00  0.00    -0.015 A 
ATOM     22  C   UNL     1       1.899   1.284  23.780  0.00  0.00    +0.027 A 
ATOM     23  C   UNL     1      -0.119   0.417  22.775  0.00  0.00    +0.008 A 
ATOM     26  C   UNL     1       2.666   0.504  22.915  0.00  0.00    +0.052 A 
ATOM     27  C   UNL     1       0.648  -0.365  21.911  0.00  0.00    +0.002 A 
ATOM     28  C   UNL     1       2.040  -0.321  21.980  0.00  0.00    +0.019 A 
BRANCH  26  30
ATOM      6  N   UNL     1       5.252   0.583  23.047  0.00  0.00    -0.191 NA
ATOM     30  C   UNL     1       4.092   0.547  22.988  0.00  0.00    +0.099 C 
ENDBRANCH  26  30
ENDBRANCH  15  20
BRANCH   4  14
ATOM     14  C   UNL     1      -4.892  -0.392  24.378  0.00  0.00    +0.158 C 
BRANCH  14  19
ATOM      2  O   UNL     1      -2.721  -1.331  24.800  0.00  0.00    -0.461 OA
ATOM     19  C   UNL     1      -3.979  -1.588  24.402  0.00  0.00    +0.119 A 
ATOM     21  C   UNL     1      -4.182  -2.889  24.097  0.00  0.00    +0.046 A 
ATOM     24  C   UNL     1      -2.079  -2.528  24.749  0.00  0.00    +0.131 A 
ATOM     25  C   UNL     1      -2.934  -3.517  24.322  0.00  0.00    +0.047 A 
BRANCH  24  29
ATOM     29  C   UNL     1      -0.663  -2.522  25.142  0.00  0.00    +0.230 C 
BRANCH  29   3
ATOM      3  O   UNL     1      -0.393  -1.287  25.807  0.00  0.00    -0.387 OA
ATOM     31  H   UNL     1      -0.337  -0.593  25.127  0.00  0.00    +0.210 HD
ENDBRANCH  29   3
ENDBRANCH  24  29
ENDBRANCH  14  19
ENDBRANCH   4  14
TORSDOF 6
ENDMDL
MODEL 2
REMARK VINA RESULT:       0.4      2.280      5.189
REMARK  Name = 7662775
REMARK  6 active torsions:
REMARK  status: ('A' for Active; 'I' for Inactive)
REMARK    1  A    between atoms: O_3  and  C_29
REMARK    2  A    between atoms: N_4  and  C_14
REMARK    3  A    between atoms: C_14  and  C_19
REMARK    4  A    between atoms: C_15  and  C_20
REMARK    5  A    between atoms: C_24  and  C_29
REMARK    6  A    between atoms: C_26  and  C_30
REMARK                            x       y       z     vdW  Elec       q    Type
REMARK                         _______ _______ _______ _____ _____    ______ ____
ROOT
ATOM      1  O   UNL     1      -4.696   4.775  24.897  0.00  0.00    -0.268 OA
ATOM      4  N   UNL     1      -0.175   2.797  24.188  0.00  0.00    -0.294 NA
ATOM      5  N   UNL     1      -3.133   3.084  25.323  0.00  0.00    -0.311 N 
ATOM      7  C   UNL     1      -0.884   3.579  26.455  0.00  0.00    +0.024 C 
ATOM      8  C   UNL     1      -1.420   1.297  25.755  0.00  0.00    +0.051 C 
ATOM      9  C   UNL     1      -0.990   2.146  26.948  0.00  0.00    +0.017 C 
ATOM     10  C   UNL     1       0.149   3.679  25.315  0.00  0.00    +0.090 C 
ATOM     11  C   UNL     1      -0.359   1.409  24.635  0.00  0.00    +0.094 C 
ATOM     12  C   UNL     1      -2.277   4.049  26.026  0.00  0.00    +0.130 C 
ATOM     13  C   UNL     1      -2.801   1.717  25.242  0.00  0.00    +0.034 A 
ATOM     15  C   UNL     1      -3.685   0.836  24.706  0.00  0.00    +0.002 A 
ATOM     16  C   UNL     1      -4.350   3.594  24.838  0.00  0.00    +0.252 A 
ATOM     17  C   UNL     1      -4.949   1.326  24.192  0.00  0.00    +0.015 A 
ATOM     18  C   UNL     1      -5.281   2.618  24.229  0.00  0.00    +0.071 A 
ENDROOT
BRANCH  15  20
ATOM     20  C   UNL     1      -3.388  -0.610  24.618  0.00  0.00    -0.015 A 
ATOM     22  C   UNL     1      -2.127  -1.081  24.970  0.00  0.00    +0.027 A 
ATOM     23  C   UNL     1      -4.374  -1.491  24.184  0.00  0.00    +0.008 A 
ATOM     26  C   UNL     1      -1.848  -2.444  24.885  0.00  0.00    +0.052 A 
ATOM     27  C   UNL     1      -4.094  -2.856  24.099  0.00  0.00    +0.002 A 
ATOM     28  C   UNL     1      -2.831  -3.332  24.450  0.00  0.00    +0.019 A 
BRANCH  26  30
ATOM      6  N   UNL     1       0.498  -3.330  25.539  0.00  0.00    -0.191 NA
ATOM     30  C   UNL     1      -0.554  -2.933  25.246  0.00  0.00    +0.099 C 
ENDBRANCH  26  30
ENDBRANCH  15  20
BRANCH   4  14
ATOM     14  C   UNL     1       0.848   2.881  23.148  0.00  0.00    +0.158 C 
BRANCH  14  19
ATOM      2  O   UNL     1       2.945   1.707  23.181  0.00  0.00    -0.461 OA
ATOM     19  C   UNL     1       1.617   1.593  23.014  0.00  0.00    +0.119 A 
ATOM     21  C   UNL     1       1.223   0.326  22.755  0.00  0.00    +0.046 A 
ATOM     24  C   UNL     1       3.434   0.449  23.022  0.00  0.00    +0.131 A 
ATOM     25  C   UNL     1       2.415  -0.436  22.758  0.00  0.00    +0.047 A 
BRANCH  24  29
ATOM     29  C   UNL     1       4.889   0.296  23.157  0.00  0.00    +0.230 C 
BRANCH  29   3
ATOM      3  O   UNL     1       5.222   0.430  24.540  0.00  0.00    -0.387 OA
ATOM     31  H   UNL     1       5.711   1.265  24.645  0.00  0.00    +0.210 HD
ENDBRANCH  29   3
ENDBRANCH  24  29
ENDBRANCH  14  19
ENDBRANCH   4  14
TORSDOF 6
ENDMDL
MODEL 3
REMARK VINA RESULT:       1.5      2.309      6.014
REMARK  Name = 7662775
REMARK  6 active torsions:
REMARK  status: ('A' for Active; 'I' for Inactive)
REMARK    1  A    between atoms: O_3  and  C_29
REMARK    2  A    between atoms: N_4  and  C_14
REMARK    3  A    between atoms: C_14  and  C_19
REMARK    4  A    between atoms: C_15  and  C_20
REMARK    5  A    between atoms: C_24  and  C_29
REMARK    6  A    between atoms: C_26  and  C_30
REMARK                            x       y       z     vdW  Elec       q    Type
REMARK                         _______ _______ _______ _____ _____    ______ ____
ROOT
ATOM      1  O   UNL     1      -0.676   6.077  24.703  0.00  0.00    -0.268 OA
ATOM      4  N   UNL     1       0.294   1.267  23.824  0.00  0.00    -0.294 NA
ATOM      5  N   UNL     1      -1.108   3.814  25.115  0.00  0.00    -0.311 N 
ATOM      7  C   UNL     1       0.681   2.254  26.089  0.00  0.00    +0.024 C 
ATOM      8  C   UNL     1      -1.531   1.372  25.530  0.00  0.00    +0.051 C 
ATOM      9  C   UNL     1      -0.506   1.494  26.655  0.00  0.00    +0.017 C 
ATOM     10  C   UNL     1       1.279   1.496  24.887  0.00  0.00    +0.090 C 
ATOM     11  C   UNL     1      -0.905   0.598  24.346  0.00  0.00    +0.094 C 
ATOM     12  C   UNL     1       0.223   3.667  25.721  0.00  0.00    +0.130 C 
ATOM     13  C   UNL     1      -2.030   2.748  25.080  0.00  0.00    +0.034 A 
ATOM     15  C   UNL     1      -3.297   2.963  24.639  0.00  0.00    +0.002 A 
ATOM     16  C   UNL     1      -1.437   5.110  24.679  0.00  0.00    +0.252 A 
ATOM     17  C   UNL     1      -3.671   4.286  24.177  0.00  0.00    +0.015 A 
ATOM     18  C   UNL     1      -2.814   5.307  24.173  0.00  0.00    +0.071 A 
ENDROOT
BRANCH  15  20
ATOM     20  C   UNL     1      -4.303   1.880  24.603  0.00  0.00    -0.015 A 
ATOM     22  C   UNL     1      -3.908   0.576  24.321  0.00  0.00    +0.027 A 
ATOM     23  C   UNL     1      -5.641   2.173  24.851  0.00  0.00    +0.008 A 
ATOM     26  C   UNL     1      -4.858  -0.444  24.285  0.00  0.00    +0.052 A 
ATOM     27  C   UNL     1      -6.591   1.153  24.816  0.00  0.00    +0.002 A 
ATOM     28  C   UNL     1      -6.201  -0.156  24.532  0.00  0.00    +0.019 A 
BRANCH  26  30
ATOM      6  N   UNL     1      -4.131  -2.875  23.760  0.00  0.00    -0.191 NA
ATOM     30  C   UNL     1      -4.457  -1.785  23.995  0.00  0.00    +0.099 C 
ENDBRANCH  26  30
ENDBRANCH  15  20
BRANCH   4  14
ATOM     14  C   UNL     1       0.881   0.506  22.723  0.00  0.00    +0.158 C 
BRANCH  14  19
ATOM      2  O   UNL     1       2.896  -0.641  23.354  0.00  0.00    -0.461 OA
ATOM     19  C   UNL     1       2.384   0.473  22.804  0.00  0.00    +0.119 A 
ATOM     21  C   UNL     1       3.331   1.359  22.425  0.00  0.00    +0.046 A 
ATOM     24  C   UNL     1       4.243  -0.465  23.328  0.00  0.00    +0.131 A 
ATOM     25  C   UNL     1       4.561   0.749  22.766  0.00  0.00    +0.047 A 
BRANCH  24  29
ATOM     29  C   UNL     1       5.052  -1.560  23.882  0.00  0.00    +0.230 C 
BRANCH  29   3
ATOM      3  O   UNL     1       5.834  -1.033  24.956  0.00  0.00    -0.387 OA
ATOM     31  H   UNL     1       5.730  -1.631  25.716  0.00  0.00    +0.210 HD
ENDBRANCH  29   3
ENDBRANCH  24  29
ENDBRANCH  14  19
ENDBRANCH   4  14
TORSDOF 6
ENDMDL
