MODEL 1
REMARK VINA RESULT:      -2.5      0.000      0.000
REMARK  Name = 45783778
REMARK  9 active torsions:
REMARK  status: ('A' for Active; 'I' for Inactive)
REMARK    1  A    between atoms: N_2  and  C_10
REMARK    2  A    between atoms: N_6  and  C_22
REMARK    3  A    between atoms: N_6  and  C_23
REMARK    4  A    between atoms: C_7  and  C_13
REMARK    5  A    between atoms: C_10  and  C_12
REMARK    6  A    between atoms: C_12  and  C_14
REMARK    7  A    between atoms: C_12  and  C_15
REMARK    8  A    between atoms: C_12  and  C_16
REMARK    9  A    between atoms: C_17  and  C_18
REMARK                            x       y       z     vdW  Elec       q    Type
REMARK                         _______ _______ _______ _____ _____    ______ ____
ROOT
ATOM      1  O   UNL     1      17.054  -7.582  29.146  0.00  0.00    -0.336 OA
ATOM      3  N   UNL     1      16.648  -5.385  28.989  0.00  0.00    -0.190 NA
ATOM      4  N   UNL     1      17.274  -7.239  27.806  0.00  0.00    -0.056 NA
ATOM     13  C   UNL     1      16.689  -6.432  29.773  0.00  0.00    +0.245 A 
ATOM     17  C   UNL     1      17.015  -5.928  27.793  0.00  0.00    +0.204 A 
ENDROOT
BRANCH  17  18
ATOM      5  N   UNL     1      17.379  -2.954  25.591  0.00  0.00    -0.240 NA
ATOM     18  C   UNL     1      17.112  -5.134  26.603  0.00  0.00    +0.041 A 
ATOM     19  C   UNL     1      17.044  -5.718  25.343  0.00  0.00    +0.016 A 
ATOM     20  C   UNL     1      17.279  -3.760  26.672  0.00  0.00    +0.124 A 
ATOM     21  C   UNL     1      17.141  -4.922  24.207  0.00  0.00    +0.044 A 
ATOM     22  C   UNL     1      17.306  -3.558  24.383  0.00  0.00    +0.118 A 
BRANCH  22   6
ATOM      6  N   UNL     1      17.405  -2.760  23.216  0.00  0.00    -0.332 N 
ATOM     23  C   UNL     1      16.350  -1.908  22.773  0.00  0.00    +0.127 C 
ATOM     24  H   UNL     1      18.157  -2.977  22.571  0.00  0.00    +0.147 HD
ENDBRANCH  22   6
ENDBRANCH  17  18
BRANCH  13   7
ATOM      2  N   UNL     1      15.123  -7.189  31.636  0.00  0.00    -0.291 NA
ATOM      7  C   UNL     1      16.389  -6.538  31.261  0.00  0.00    +0.146 C 
ATOM      8  C   UNL     1      17.405  -7.371  32.057  0.00  0.00    +0.030 C 
ATOM      9  C   UNL     1      15.358  -8.627  31.675  0.00  0.00    +0.085 C 
ATOM     11  C   UNL     1      16.761  -8.743  32.251  0.00  0.00    +0.017 C 
BRANCH   2  10
ATOM     10  C   UNL     1      13.946  -6.810  30.875  0.00  0.00    +0.091 C 
BRANCH  10  12
ATOM     12  C   UNL     1      12.691  -6.545  31.744  0.00  0.00    -0.025 C 
ATOM     14  C   UNL     1      11.419  -6.521  30.877  0.00  0.00    +0.012 C 
ATOM     15  C   UNL     1      12.536  -7.613  32.841  0.00  0.00    +0.012 C 
ATOM     16  C   UNL     1      12.851  -5.170  32.420  0.00  0.00    +0.012 C 
ENDBRANCH  10  12
ENDBRANCH   2  10
ENDBRANCH  13   7
TORSDOF 5
ENDMDL
MODEL 2
REMARK VINA RESULT:      -1.6      1.546      2.141
REMARK  Name = 45783778
REMARK  9 active torsions:
REMARK  status: ('A' for Active; 'I' for Inactive)
REMARK    1  A    between atoms: N_2  and  C_10
REMARK    2  A    between atoms: N_6  and  C_22
REMARK    3  A    between atoms: N_6  and  C_23
REMARK    4  A    between atoms: C_7  and  C_13
REMARK    5  A    between atoms: C_10  and  C_12
REMARK    6  A    between atoms: C_12  and  C_14
REMARK    7  A    between atoms: C_12  and  C_15
REMARK    8  A    between atoms: C_12  and  C_16
REMARK    9  A    between atoms: C_17  and  C_18
REMARK                            x       y       z     vdW  Elec       q    Type
REMARK                         _______ _______ _______ _____ _____    ______ ____
ROOT
ATOM      1  O   UNL     1      16.135  -8.704  28.464  0.00  0.00    -0.336 OA
ATOM      3  N   UNL     1      17.399  -6.857  28.380  0.00  0.00    -0.190 NA
ATOM      4  N   UNL     1      15.989  -8.189  27.169  0.00  0.00    -0.056 NA
ATOM     13  C   UNL     1      16.981  -7.859  29.111  0.00  0.00    +0.245 A 
ATOM     17  C   UNL     1      16.765  -7.102  27.197  0.00  0.00    +0.204 A 
ENDROOT
BRANCH  17  18
ATOM      5  N   UNL     1      17.210  -4.000  25.195  0.00  0.00    -0.240 NA
ATOM     18  C   UNL     1      16.928  -6.239  26.063  0.00  0.00    +0.041 A 
ATOM     19  C   UNL     1      16.965  -6.752  24.772  0.00  0.00    +0.016 A 
ATOM     20  C   UNL     1      17.054  -4.868  26.220  0.00  0.00    +0.124 A 
ATOM     21  C   UNL     1      17.123  -5.891  23.691  0.00  0.00    +0.044 A 
ATOM     22  C   UNL     1      17.240  -4.536  23.954  0.00  0.00    +0.118 A 
BRANCH  22   6
ATOM      6  N   UNL     1      17.402  -3.672  22.843  0.00  0.00    -0.332 N 
ATOM     23  C   UNL     1      17.212  -2.260  22.931  0.00  0.00    +0.127 C 
ATOM     24  H   UNL     1      17.435  -4.101  21.925  0.00  0.00    +0.147 HD
ENDBRANCH  22   6
ENDBRANCH  17  18
BRANCH  13   7
ATOM      2  N   UNL     1      16.693  -7.352  31.592  0.00  0.00    -0.291 NA
ATOM      7  C   UNL     1      17.305  -8.203  30.558  0.00  0.00    +0.146 C 
ATOM      8  C   UNL     1      16.842  -9.599  31.000  0.00  0.00    +0.030 C 
ATOM      9  C   UNL     1      15.360  -7.874  31.864  0.00  0.00    +0.085 C 
ATOM     11  C   UNL     1      15.543  -9.382  31.775  0.00  0.00    +0.017 C 
BRANCH   2  10
ATOM     10  C   UNL     1      16.723  -5.919  31.358  0.00  0.00    +0.091 C 
BRANCH  10  12
ATOM     12  C   UNL     1      15.334  -5.238  31.440  0.00  0.00    -0.025 C 
ATOM     14  C   UNL     1      14.710  -5.429  32.835  0.00  0.00    +0.012 C 
ATOM     15  C   UNL     1      15.431  -3.734  31.130  0.00  0.00    +0.012 C 
ATOM     16  C   UNL     1      14.410  -5.893  30.395  0.00  0.00    +0.012 C 
ENDBRANCH  10  12
ENDBRANCH   2  10
ENDBRANCH  13   7
TORSDOF 5
ENDMDL
MODEL 3
REMARK VINA RESULT:      -1.2     16.935     19.198
REMARK  Name = 45783778
REMARK  9 active torsions:
REMARK  status: ('A' for Active; 'I' for Inactive)
REMARK    1  A    between atoms: N_2  and  C_10
REMARK    2  A    between atoms: N_6  and  C_22
REMARK    3  A    between atoms: N_6  and  C_23
REMARK    4  A    between atoms: C_7  and  C_13
REMARK    5  A    between atoms: C_10  and  C_12
REMARK    6  A    between atoms: C_12  and  C_14
REMARK    7  A    between atoms: C_12  and  C_15
REMARK    8  A    between atoms: C_12  and  C_16
REMARK    9  A    between atoms: C_17  and  C_18
REMARK                            x       y       z     vdW  Elec       q    Type
REMARK                         _______ _______ _______ _____ _____    ______ ____
ROOT
ATOM      1  O   UNL     1      -1.984   2.530  24.913  0.00  0.00    -0.336 OA
ATOM      3  N   UNL     1      -1.457   1.102  23.270  0.00  0.00    -0.190 NA
ATOM      4  N   UNL     1      -0.586   2.445  24.903  0.00  0.00    -0.056 NA
ATOM     13  C   UNL     1      -2.417   1.709  23.920  0.00  0.00    +0.245 A 
ATOM     17  C   UNL     1      -0.352   1.584  23.908  0.00  0.00    +0.204 A 
ENDROOT
BRANCH  17  18
ATOM      5  N   UNL     1       3.288   1.785  23.177  0.00  0.00    -0.240 NA
ATOM     18  C   UNL     1       0.972   1.186  23.527  0.00  0.00    +0.041 A 
ATOM     19  C   UNL     1       1.246  -0.123  23.149  0.00  0.00    +0.016 A 
ATOM     20  C   UNL     1       2.018   2.094  23.524  0.00  0.00    +0.124 A 
ATOM     21  C   UNL     1       2.540  -0.480  22.784  0.00  0.00    +0.044 A 
ATOM     22  C   UNL     1       3.516   0.502  22.814  0.00  0.00    +0.118 A 
BRANCH  22   6
ATOM      6  N   UNL     1       4.829   0.123  22.442  0.00  0.00    -0.332 N 
ATOM     23  C   UNL     1       5.846  -0.174  23.398  0.00  0.00    +0.127 C 
ATOM     24  H   UNL     1       5.101   0.287  21.479  0.00  0.00    +0.147 HD
ENDBRANCH  22   6
ENDBRANCH  17  18
BRANCH  13   7
ATOM      2  N   UNL     1      -4.560   0.335  24.045  0.00  0.00    -0.291 NA
ATOM      7  C   UNL     1      -3.924   1.623  23.721  0.00  0.00    +0.146 C 
ATOM      8  C   UNL     1      -4.737   2.591  24.594  0.00  0.00    +0.030 C 
ATOM      9  C   UNL     1      -4.842   0.326  25.475  0.00  0.00    +0.085 C 
ATOM     11  C   UNL     1      -5.260   1.760  25.765  0.00  0.00    +0.017 C 
BRANCH   2  10
ATOM     10  C   UNL     1      -3.886  -0.861  23.575  0.00  0.00    +0.091 C 
BRANCH  10  12
ATOM     12  C   UNL     1      -3.259  -1.717  24.705  0.00  0.00    -0.025 C 
ATOM     14  C   UNL     1      -1.734  -1.830  24.525  0.00  0.00    +0.012 C 
ATOM     15  C   UNL     1      -3.563  -1.122  26.091  0.00  0.00    +0.012 C 
ATOM     16  C   UNL     1      -3.867  -3.131  24.635  0.00  0.00    +0.012 C 
ENDBRANCH  10  12
ENDBRANCH   2  10
ENDBRANCH  13   7
TORSDOF 5
ENDMDL
MODEL 4
REMARK VINA RESULT:      -1.0     16.929     19.061
REMARK  Name = 45783778
REMARK  9 active torsions:
REMARK  status: ('A' for Active; 'I' for Inactive)
REMARK    1  A    between atoms: N_2  and  C_10
REMARK    2  A    between atoms: N_6  and  C_22
REMARK    3  A    between atoms: N_6  and  C_23
REMARK    4  A    between atoms: C_7  and  C_13
REMARK    5  A    between atoms: C_10  and  C_12
REMARK    6  A    between atoms: C_12  and  C_14
REMARK    7  A    between atoms: C_12  and  C_15
REMARK    8  A    between atoms: C_12  and  C_16
REMARK    9  A    between atoms: C_17  and  C_18
REMARK                            x       y       z     vdW  Elec       q    Type
REMARK                         _______ _______ _______ _____ _____    ______ ____
ROOT
ATOM      1  O   UNL     1      -1.909   1.188  24.060  0.00  0.00    -0.336 OA
ATOM      3  N   UNL     1      -0.518  -0.464  24.652  0.00  0.00    -0.190 NA
ATOM      4  N   UNL     1      -0.666   1.504  23.498  0.00  0.00    -0.056 NA
ATOM     13  C   UNL     1      -1.734   0.015  24.723  0.00  0.00    +0.245 A 
ATOM     17  C   UNL     1       0.101   0.483  23.891  0.00  0.00    +0.204 A 
ENDROOT
BRANCH  17  18
ATOM      5  N   UNL     1       3.447  -1.008  23.250  0.00  0.00    -0.240 NA
ATOM     18  C   UNL     1       1.488   0.380  23.541  0.00  0.00    +0.041 A 
ATOM     19  C   UNL     1       2.218   1.501  23.162  0.00  0.00    +0.016 A 
ATOM     20  C   UNL     1       2.143  -0.841  23.568  0.00  0.00    +0.124 A 
ATOM     21  C   UNL     1       3.561   1.369  22.828  0.00  0.00    +0.044 A 
ATOM     22  C   UNL     1       4.124   0.105  22.888  0.00  0.00    +0.118 A 
BRANCH  22   6
ATOM      6  N   UNL     1       5.493  -0.013  22.543  0.00  0.00    -0.332 N 
ATOM     23  C   UNL     1       6.509  -0.293  23.506  0.00  0.00    +0.127 C 
ATOM     24  H   UNL     1       5.771   0.332  21.631  0.00  0.00    +0.147 HD
ENDBRANCH  22   6
ENDBRANCH  17  18
BRANCH  13   7
ATOM      2  N   UNL     1      -4.271  -0.142  24.910  0.00  0.00    -0.291 NA
ATOM      7  C   UNL     1      -2.956  -0.552  25.432  0.00  0.00    +0.146 C 
ATOM      8  C   UNL     1      -3.071  -2.082  25.376  0.00  0.00    +0.030 C 
ATOM      9  C   UNL     1      -4.610  -1.036  23.809  0.00  0.00    +0.085 C 
ATOM     11  C   UNL     1      -4.083  -2.387  24.272  0.00  0.00    +0.017 C 
BRANCH   2  10
ATOM     10  C   UNL     1      -4.436   1.265  24.592  0.00  0.00    +0.091 C 
BRANCH  10  12
ATOM     12  C   UNL     1      -5.650   1.930  25.288  0.00  0.00    -0.025 C 
ATOM     14  C   UNL     1      -6.902   1.856  24.395  0.00  0.00    +0.012 C 
ATOM     15  C   UNL     1      -5.953   1.263  26.641  0.00  0.00    +0.012 C 
ATOM     16  C   UNL     1      -5.312   3.412  25.538  0.00  0.00    +0.012 C 
ENDBRANCH  10  12
ENDBRANCH   2  10
ENDBRANCH  13   7
TORSDOF 5
ENDMDL
MODEL 5
REMARK VINA RESULT:      -1.0     16.314     18.494
REMARK  Name = 45783778
REMARK  9 active torsions:
REMARK  status: ('A' for Active; 'I' for Inactive)
REMARK    1  A    between atoms: N_2  and  C_10
REMARK    2  A    between atoms: N_6  and  C_22
REMARK    3  A    between atoms: N_6  and  C_23
REMARK    4  A    between atoms: C_7  and  C_13
REMARK    5  A    between atoms: C_10  and  C_12
REMARK    6  A    between atoms: C_12  and  C_14
REMARK    7  A    between atoms: C_12  and  C_15
REMARK    8  A    between atoms: C_12  and  C_16
REMARK    9  A    between atoms: C_17  and  C_18
REMARK                            x       y       z     vdW  Elec       q    Type
REMARK                         _______ _______ _______ _____ _____    ______ ____
ROOT
ATOM      1  O   UNL     1      -1.620  -1.081  24.073  0.00  0.00    -0.336 OA
ATOM      3  N   UNL     1      -0.262   0.601  24.658  0.00  0.00    -0.190 NA
ATOM      4  N   UNL     1      -0.367  -1.383  23.526  0.00  0.00    -0.056 NA
ATOM     13  C   UNL     1      -1.471   0.103  24.723  0.00  0.00    +0.245 A 
ATOM     17  C   UNL     1       0.380  -0.345  23.914  0.00  0.00    +0.204 A 
ENDROOT
BRANCH  17  18
ATOM      5  N   UNL     1       3.967  -1.225  23.484  0.00  0.00    -0.240 NA
ATOM     18  C   UNL     1       1.768  -0.223  23.575  0.00  0.00    +0.041 A 
ATOM     19  C   UNL     1       2.272   0.951  23.028  0.00  0.00    +0.016 A 
ATOM     20  C   UNL     1       2.649  -1.273  23.781  0.00  0.00    +0.124 A 
ATOM     21  C   UNL     1       3.623   1.040  22.710  0.00  0.00    +0.044 A 
ATOM     22  C   UNL     1       4.421  -0.065  22.955  0.00  0.00    +0.118 A 
BRANCH  22   6
ATOM      6  N   UNL     1       5.795   0.040  22.624  0.00  0.00    -0.332 N 
ATOM     23  C   UNL     1       6.835  -0.340  23.523  0.00  0.00    +0.127 C 
ATOM     24  H   UNL     1       6.033   0.606  21.817  0.00  0.00    +0.147 HD
ENDBRANCH  22   6
ENDBRANCH  17  18
BRANCH  13   7
ATOM      2  N   UNL     1      -3.312   1.863  24.820  0.00  0.00    -0.291 NA
ATOM      7  C   UNL     1      -2.709   0.658  25.414  0.00  0.00    +0.146 C 
ATOM      8  C   UNL     1      -3.908  -0.301  25.438  0.00  0.00    +0.030 C 
ATOM      9  C   UNL     1      -4.212   1.431  23.758  0.00  0.00    +0.085 C 
ATOM     11  C   UNL     1      -4.835   0.159  24.314  0.00  0.00    +0.017 C 
BRANCH   2  10
ATOM     10  C   UNL     1      -2.400   2.919  24.420  0.00  0.00    +0.091 C 
BRANCH  10  12
ATOM     12  C   UNL     1      -1.955   3.843  25.582  0.00  0.00    -0.025 C 
ATOM     14  C   UNL     1      -3.144   4.179  26.501  0.00  0.00    +0.012 C 
ATOM     15  C   UNL     1      -0.838   3.192  26.417  0.00  0.00    +0.012 C 
ATOM     16  C   UNL     1      -1.415   5.153  24.979  0.00  0.00    +0.012 C 
ENDBRANCH  10  12
ENDBRANCH   2  10
ENDBRANCH  13   7
TORSDOF 5
ENDMDL
MODEL 6
REMARK VINA RESULT:      -0.9     16.440     18.691
REMARK  Name = 45783778
REMARK  9 active torsions:
REMARK  status: ('A' for Active; 'I' for Inactive)
REMARK    1  A    between atoms: N_2  and  C_10
REMARK    2  A    between atoms: N_6  and  C_22
REMARK    3  A    between atoms: N_6  and  C_23
REMARK    4  A    between atoms: C_7  and  C_13
REMARK    5  A    between atoms: C_10  and  C_12
REMARK    6  A    between atoms: C_12  and  C_14
REMARK    7  A    between atoms: C_12  and  C_15
REMARK    8  A    between atoms: C_12  and  C_16
REMARK    9  A    between atoms: C_17  and  C_18
REMARK                            x       y       z     vdW  Elec       q    Type
REMARK                         _______ _______ _______ _____ _____    ______ ____
ROOT
ATOM      1  O   UNL     1      -1.204   2.559  24.171  0.00  0.00    -0.336 OA
ATOM      3  N   UNL     1      -0.580   0.626  23.226  0.00  0.00    -0.190 NA
ATOM      4  N   UNL     1       0.196   2.560  24.168  0.00  0.00    -0.056 NA
ATOM     13  C   UNL     1      -1.580   1.384  23.599  0.00  0.00    +0.245 A 
ATOM     17  C   UNL     1       0.489   1.389  23.595  0.00  0.00    +0.204 A 
ENDROOT
BRANCH  17  18
ATOM      5  N   UNL     1       3.433  -0.864  23.305  0.00  0.00    -0.240 NA
ATOM     18  C   UNL     1       1.838   0.951  23.379  0.00  0.00    +0.041 A 
ATOM     19  C   UNL     1       2.840   1.855  23.043  0.00  0.00    +0.016 A 
ATOM     20  C   UNL     1       2.183  -0.386  23.496  0.00  0.00    +0.124 A 
ATOM     21  C   UNL     1       4.138   1.401  22.839  0.00  0.00    +0.044 A 
ATOM     22  C   UNL     1       4.381   0.045  22.981  0.00  0.00    +0.118 A 
BRANCH  22   6
ATOM      6  N   UNL     1       5.708  -0.403  22.768  0.00  0.00    -0.332 N 
ATOM     23  C   UNL     1       6.613  -0.668  23.839  0.00  0.00    +0.127 C 
ATOM     24  H   UNL     1       6.080  -0.314  21.830  0.00  0.00    +0.147 HD
ENDBRANCH  22   6
ENDBRANCH  17  18
BRANCH  13   7
ATOM      2  N   UNL     1      -3.765   0.663  24.694  0.00  0.00    -0.291 NA
ATOM      7  C   UNL     1      -3.077   1.136  23.481  0.00  0.00    +0.146 C 
ATOM      8  C   UNL     1      -3.903   2.382  23.130  0.00  0.00    +0.030 C 
ATOM      9  C   UNL     1      -4.115   1.833  25.490  0.00  0.00    +0.085 C 
ATOM     11  C   UNL     1      -4.505   2.870  24.447  0.00  0.00    +0.017 C 
BRANCH   2  10
ATOM     10  C   UNL     1      -3.103  -0.383  25.453  0.00  0.00    +0.091 C 
BRANCH  10  12
ATOM     12  C   UNL     1      -3.161  -1.780  24.784  0.00  0.00    -0.025 C 
ATOM     14  C   UNL     1      -4.311  -1.851  23.763  0.00  0.00    +0.012 C 
ATOM     15  C   UNL     1      -1.835  -2.116  24.078  0.00  0.00    +0.012 C 
ATOM     16  C   UNL     1      -3.411  -2.831  25.881  0.00  0.00    +0.012 C 
ENDBRANCH  10  12
ENDBRANCH   2  10
ENDBRANCH  13   7
TORSDOF 5
ENDMDL
MODEL 7
REMARK VINA RESULT:       0.8      1.493      2.047
REMARK  Name = 45783778
REMARK  9 active torsions:
REMARK  status: ('A' for Active; 'I' for Inactive)
REMARK    1  A    between atoms: N_2  and  C_10
REMARK    2  A    between atoms: N_6  and  C_22
REMARK    3  A    between atoms: N_6  and  C_23
REMARK    4  A    between atoms: C_7  and  C_13
REMARK    5  A    between atoms: C_10  and  C_12
REMARK    6  A    between atoms: C_12  and  C_14
REMARK    7  A    between atoms: C_12  and  C_15
REMARK    8  A    between atoms: C_12  and  C_16
REMARK    9  A    between atoms: C_17  and  C_18
REMARK                            x       y       z     vdW  Elec       q    Type
REMARK                         _______ _______ _______ _____ _____    ______ ____
ROOT
ATOM      1  O   UNL     1      16.949  -5.750  29.294  0.00  0.00    -0.336 OA
ATOM      3  N   UNL     1      16.354  -3.612  28.991  0.00  0.00    -0.190 NA
ATOM      4  N   UNL     1      17.264  -5.441  27.964  0.00  0.00    -0.056 NA
ATOM     13  C   UNL     1      16.417  -4.618  29.826  0.00  0.00    +0.245 A 
ATOM     17  C   UNL     1      16.885  -4.164  27.863  0.00  0.00    +0.204 A 
ENDROOT
BRANCH  17  18
ATOM      5  N   UNL     1      17.054  -1.261  25.545  0.00  0.00    -0.240 NA
ATOM     18  C   UNL     1      17.021  -3.412  26.649  0.00  0.00    +0.041 A 
ATOM     19  C   UNL     1      17.246  -4.048  25.433  0.00  0.00    +0.016 A 
ATOM     20  C   UNL     1      16.934  -2.029  26.651  0.00  0.00    +0.124 A 
ATOM     21  C   UNL     1      17.374  -3.292  24.273  0.00  0.00    +0.044 A 
ATOM     22  C   UNL     1      17.271  -1.916  24.381  0.00  0.00    +0.118 A 
BRANCH  22   6
ATOM      6  N   UNL     1      17.405  -1.159  23.190  0.00  0.00    -0.332 N 
ATOM     23  C   UNL     1      17.189  -1.717  21.894  0.00  0.00    +0.127 C 
ATOM     24  H   UNL     1      17.882  -0.268  23.261  0.00  0.00    +0.147 HD
ENDBRANCH  22   6
ENDBRANCH  17  18
BRANCH  13   7
ATOM      2  N   UNL     1      15.201  -5.874  31.681  0.00  0.00    -0.291 NA
ATOM      7  C   UNL     1      15.986  -4.693  31.284  0.00  0.00    +0.146 C 
ATOM      8  C   UNL     1      17.147  -4.749  32.289  0.00  0.00    +0.030 C 
ATOM      9  C   UNL     1      16.138  -6.943  31.999  0.00  0.00    +0.085 C 
ATOM     11  C   UNL     1      17.287  -6.218  32.685  0.00  0.00    +0.017 C 
BRANCH   2  10
ATOM     10  C   UNL     1      14.135  -6.279  30.782  0.00  0.00    +0.091 C 
BRANCH  10  12
ATOM     12  C   UNL     1      13.469  -7.626  31.160  0.00  0.00    -0.025 C 
ATOM     14  C   UNL     1      14.093  -8.205  32.443  0.00  0.00    +0.012 C 
ATOM     15  C   UNL     1      11.953  -7.461  31.364  0.00  0.00    +0.012 C 
ATOM     16  C   UNL     1      13.702  -8.622  30.008  0.00  0.00    +0.012 C 
ENDBRANCH  10  12
ENDBRANCH   2  10
ENDBRANCH  13   7
TORSDOF 5
ENDMDL
MODEL 8
REMARK VINA RESULT:       1.4     15.267     17.405
REMARK  Name = 45783778
REMARK  9 active torsions:
REMARK  status: ('A' for Active; 'I' for Inactive)
REMARK    1  A    between atoms: N_2  and  C_10
REMARK    2  A    between atoms: N_6  and  C_22
REMARK    3  A    between atoms: N_6  and  C_23
REMARK    4  A    between atoms: C_7  and  C_13
REMARK    5  A    between atoms: C_10  and  C_12
REMARK    6  A    between atoms: C_12  and  C_14
REMARK    7  A    between atoms: C_12  and  C_15
REMARK    8  A    between atoms: C_12  and  C_16
REMARK    9  A    between atoms: C_17  and  C_18
REMARK                            x       y       z     vdW  Elec       q    Type
REMARK                         _______ _______ _______ _____ _____    ______ ____
ROOT
ATOM      1  O   UNL     1      -0.040   0.215  22.377  0.00  0.00    -0.336 OA
ATOM      3  N   UNL     1       1.384   1.205  23.794  0.00  0.00    -0.190 NA
ATOM      4  N   UNL     1       1.210  -0.374  22.149  0.00  0.00    -0.056 NA
ATOM     13  C   UNL     1       0.151   1.134  23.360  0.00  0.00    +0.245 A 
ATOM     17  C   UNL     1       1.997   0.262  23.022  0.00  0.00    +0.204 A 
ENDROOT
BRANCH  17  18
ATOM      5  N   UNL     1       5.683   0.622  22.688  0.00  0.00    -0.240 NA
ATOM     18  C   UNL     1       3.397  -0.020  23.148  0.00  0.00    +0.041 A 
ATOM     19  C   UNL     1       3.843  -1.153  23.818  0.00  0.00    +0.016 A 
ATOM     20  C   UNL     1       4.349   0.829  22.605  0.00  0.00    +0.124 A 
ATOM     21  C   UNL     1       5.207  -1.401  23.923  0.00  0.00    +0.044 A 
ATOM     22  C   UNL     1       6.078  -0.491  23.346  0.00  0.00    +0.118 A 
BRANCH  22   6
ATOM      6  N   UNL     1       7.465  -0.756  23.464  0.00  0.00    -0.332 N 
ATOM     23  C   UNL     1       8.458   0.258  23.319  0.00  0.00    +0.127 C 
ATOM     24  H   UNL     1       7.754  -1.727  23.427  0.00  0.00    +0.147 HD
ENDBRANCH  22   6
ENDBRANCH  17  18
BRANCH  13   7
ATOM      2  N   UNL     1      -1.914   1.315  24.844  0.00  0.00    -0.291 NA
ATOM      7  C   UNL     1      -1.075   1.923  23.797  0.00  0.00    +0.146 C 
ATOM      8  C   UNL     1      -0.761   3.292  24.419  0.00  0.00    +0.030 C 
ATOM      9  C   UNL     1      -1.339   1.669  26.135  0.00  0.00    +0.085 C 
ATOM     11  C   UNL     1      -0.858   3.098  25.931  0.00  0.00    +0.017 C 
BRANCH   2  10
ATOM     10  C   UNL     1      -2.206  -0.100  24.702  0.00  0.00    +0.091 C 
BRANCH  10  12
ATOM     12  C   UNL     1      -3.697  -0.462  24.923  0.00  0.00    -0.025 C 
ATOM     14  C   UNL     1      -4.572   0.805  24.934  0.00  0.00    +0.012 C 
ATOM     15  C   UNL     1      -4.206  -1.420  23.832  0.00  0.00    +0.012 C 
ATOM     16  C   UNL     1      -3.828  -1.162  26.289  0.00  0.00    +0.012 C 
ENDBRANCH  10  12
ENDBRANCH   2  10
ENDBRANCH  13   7
TORSDOF 5
ENDMDL
