MODEL 1
REMARK VINA RESULT:       0.1      0.000      0.000
REMARK  Name = 75536399
REMARK  12 active torsions:
REMARK  status: ('A' for Active; 'I' for Inactive)
REMARK    1  A    between atoms: O_2  and  C_9
REMARK    2  A    between atoms: O_4  and  C_27
REMARK    3  A    between atoms: O_4  and  C_31
REMARK    4  A    between atoms: O_5  and  C_30
REMARK    5  A    between atoms: O_5  and  C_32
REMARK    6  A    between atoms: N_6  and  C_13
REMARK    7  A    between atoms: N_6  and  C_16
REMARK    8  A    between atoms: C_8  and  C_13
REMARK    9  A    between atoms: C_10  and  C_14
REMARK   10  A    between atoms: C_14  and  C_15
REMARK   11  A    between atoms: C_16  and  C_18
REMARK   12  A    between atoms: C_19  and  C_20
REMARK                            x       y       z     vdW  Elec       q    Type
REMARK                         _______ _______ _______ _____ _____    ______ ____
ROOT
ATOM      1  O   UNL     1      -3.640   0.171  23.712  0.00  0.00    -0.369 OA
ATOM      8  C   UNL     1      -4.502  -0.520  24.624  0.00  0.00    +0.161 C 
ATOM      9  C   UNL     1      -3.757  -1.647  25.351  0.00  0.00    +0.145 C 
ATOM     10  C   UNL     1      -2.447   0.706  24.290  0.00  0.00    +0.125 C 
ATOM     11  C   UNL     1      -2.436  -1.175  25.954  0.00  0.00    +0.036 C 
ATOM     12  C   UNL     1      -1.612  -0.405  24.926  0.00  0.00    +0.034 C 
ENDROOT
BRANCH   9   2
ATOM      2  O   UNL     1      -3.463  -2.686  24.414  0.00  0.00    -0.389 OA
ATOM     34  H   UNL     1      -4.137  -3.377  24.521  0.00  0.00    +0.210 HD
ENDBRANCH   9   2
BRANCH   8  13
ATOM     13  C   UNL     1      -5.190   0.453  25.580  0.00  0.00    +0.115 C 
BRANCH  13   6
ATOM      6  N   UNL     1      -6.134   1.299  24.866  0.00  0.00    -0.309 NA
ATOM     33  H   UNL     1      -5.856   1.362  23.886  0.00  0.00    +0.122 HD
BRANCH   6  16
ATOM     16  C   UNL     1      -6.165   2.641  25.433  0.00  0.00    +0.116 C 
BRANCH  16  18
ATOM     18  C   UNL     1      -4.825   3.322  25.334  0.00  0.00    -0.033 A 
ATOM     21  C   UNL     1      -4.057   3.523  26.482  0.00  0.00    +0.008 A 
ATOM     22  C   UNL     1      -4.352   3.752  24.095  0.00  0.00    +0.008 A 
ATOM     23  C   UNL     1      -2.817   4.154  26.389  0.00  0.00    +0.046 A 
ATOM     24  C   UNL     1      -3.111   4.383  24.002  0.00  0.00    +0.046 A 
ATOM     27  C   UNL     1      -2.344   4.583  25.150  0.00  0.00    +0.120 A 
BRANCH  27   4
ATOM      4  O   UNL     1      -1.133   5.199  25.059  0.00  0.00    -0.495 OA
ATOM     31  C   UNL     1      -0.127   4.541  24.291  0.00  0.00    +0.277 C 
ENDBRANCH  27   4
ENDBRANCH  16  18
ENDBRANCH   6  16
ENDBRANCH  13   6
ENDBRANCH   8  13
BRANCH  10  14
ATOM     14  C   UNL     1      -1.670   1.400  23.178  0.00  0.00    +0.090 C 
BRANCH  14  15
ATOM      3  O   UNL     1       1.212  -0.510  22.157  0.00  0.00    -0.354 OA
ATOM      7  N   UNL     1      -0.135  -0.179  22.078  0.00  0.00    -0.083 NA
ATOM     15  C   UNL     1      -0.309   0.788  22.983  0.00  0.00    +0.087 A 
ATOM     17  C   UNL     1       0.882   1.107  23.658  0.00  0.00    +0.076 A 
ATOM     19  C   UNL     1       1.807   0.264  23.101  0.00  0.00    +0.167 A 
BRANCH  19  20
ATOM     20  C   UNL     1       3.210   0.037  23.297  0.00  0.00    +0.020 A 
ATOM     25  C   UNL     1       4.122   1.066  23.063  0.00  0.00    +0.015 A 
ATOM     26  C   UNL     1       3.662  -1.212  23.723  0.00  0.00    +0.015 A 
ATOM     28  C   UNL     1       5.487   0.845  23.253  0.00  0.00    +0.046 A 
ATOM     29  C   UNL     1       5.025  -1.433  23.914  0.00  0.00    +0.046 A 
ATOM     30  C   UNL     1       5.938  -0.404  23.679  0.00  0.00    +0.120 A 
BRANCH  30   5
ATOM      5  O   UNL     1       7.269  -0.620  23.868  0.00  0.00    -0.495 OA
ATOM     32  C   UNL     1       8.099  -0.606  22.707  0.00  0.00    +0.277 C 
ENDBRANCH  30   5
ENDBRANCH  19  20
ENDBRANCH  14  15
ENDBRANCH  10  14
TORSDOF 10
ENDMDL
MODEL 2
REMARK VINA RESULT:       1.2      2.000      3.249
REMARK  Name = 75536399
REMARK  12 active torsions:
REMARK  status: ('A' for Active; 'I' for Inactive)
REMARK    1  A    between atoms: O_2  and  C_9
REMARK    2  A    between atoms: O_4  and  C_27
REMARK    3  A    between atoms: O_4  and  C_31
REMARK    4  A    between atoms: O_5  and  C_30
REMARK    5  A    between atoms: O_5  and  C_32
REMARK    6  A    between atoms: N_6  and  C_13
REMARK    7  A    between atoms: N_6  and  C_16
REMARK    8  A    between atoms: C_8  and  C_13
REMARK    9  A    between atoms: C_10  and  C_14
REMARK   10  A    between atoms: C_14  and  C_15
REMARK   11  A    between atoms: C_16  and  C_18
REMARK   12  A    between atoms: C_19  and  C_20
REMARK                            x       y       z     vdW  Elec       q    Type
REMARK                         _______ _______ _______ _____ _____    ______ ____
ROOT
ATOM      1  O   UNL     1      -4.575   0.692  24.070  0.00  0.00    -0.369 OA
ATOM      8  C   UNL     1      -5.082   1.995  23.759  0.00  0.00    +0.161 C 
ATOM      9  C   UNL     1      -6.202   2.404  24.724  0.00  0.00    +0.145 C 
ATOM     10  C   UNL     1      -4.112   0.524  25.411  0.00  0.00    +0.125 C 
ATOM     11  C   UNL     1      -5.811   2.202  26.186  0.00  0.00    +0.036 C 
ATOM     12  C   UNL     1      -5.234   0.806  26.408  0.00  0.00    +0.034 C 
ENDROOT
BRANCH   9   2
ATOM      2  O   UNL     1      -7.353   1.595  24.464  0.00  0.00    -0.389 OA
ATOM     34  H   UNL     1      -7.612   1.742  23.539  0.00  0.00    +0.210 HD
ENDBRANCH   9   2
BRANCH   8  13
ATOM     13  C   UNL     1      -3.954   3.023  23.685  0.00  0.00    +0.115 C 
BRANCH  13   6
ATOM      6  N   UNL     1      -4.442   4.352  24.020  0.00  0.00    -0.309 NA
ATOM     33  H   UNL     1      -4.888   4.764  23.200  0.00  0.00    +0.122 HD
BRANCH   6  16
ATOM     16  C   UNL     1      -3.348   5.217  24.444  0.00  0.00    +0.116 C 
BRANCH  16  18
ATOM     18  C   UNL     1      -2.216   4.433  25.053  0.00  0.00    -0.033 A 
ATOM     21  C   UNL     1      -2.426   3.691  26.216  0.00  0.00    +0.008 A 
ATOM     22  C   UNL     1      -0.957   4.448  24.454  0.00  0.00    +0.008 A 
ATOM     23  C   UNL     1      -1.377   2.966  26.779  0.00  0.00    +0.046 A 
ATOM     24  C   UNL     1       0.093   3.721  25.018  0.00  0.00    +0.046 A 
ATOM     27  C   UNL     1      -0.118   2.980  26.180  0.00  0.00    +0.120 A 
BRANCH  27   4
ATOM      4  O   UNL     1       0.906   2.271  26.729  0.00  0.00    -0.495 OA
ATOM     31  C   UNL     1       1.254   2.572  28.079  0.00  0.00    +0.277 C 
ENDBRANCH  27   4
ENDBRANCH  16  18
ENDBRANCH   6  16
ENDBRANCH  13   6
ENDBRANCH   8  13
BRANCH  10  14
ATOM     14  C   UNL     1      -3.613  -0.911  25.547  0.00  0.00    +0.090 C 
BRANCH  14  15
ATOM      3  O   UNL     1      -0.623  -2.077  23.907  0.00  0.00    -0.354 OA
ATOM      7  N   UNL     1      -1.922  -2.255  24.369  0.00  0.00    -0.083 NA
ATOM     15  C   UNL     1      -2.252  -1.089  24.930  0.00  0.00    +0.087 A 
ATOM     17  C   UNL     1      -1.213  -0.146  24.854  0.00  0.00    +0.076 A 
ATOM     19  C   UNL     1      -0.212  -0.817  24.201  0.00  0.00    +0.167 A 
BRANCH  19  20
ATOM     20  C   UNL     1       1.118  -0.483  23.782  0.00  0.00    +0.020 A 
ATOM     25  C   UNL     1       1.390   0.786  23.272  0.00  0.00    +0.015 A 
ATOM     26  C   UNL     1       2.140  -1.427  23.885  0.00  0.00    +0.015 A 
ATOM     28  C   UNL     1       2.684   1.111  22.864  0.00  0.00    +0.046 A 
ATOM     29  C   UNL     1       3.433  -1.102  23.477  0.00  0.00    +0.046 A 
ATOM     30  C   UNL     1       3.706   0.167  22.967  0.00  0.00    +0.120 A 
BRANCH  30   5
ATOM      5  O   UNL     1       4.969   0.484  22.572  0.00  0.00    -0.495 OA
ATOM     32  C   UNL     1       6.034   0.111  23.445  0.00  0.00    +0.277 C 
ENDBRANCH  30   5
ENDBRANCH  19  20
ENDBRANCH  14  15
ENDBRANCH  10  14
TORSDOF 10
ENDMDL
MODEL 3
REMARK VINA RESULT:       1.8      1.435      4.037
REMARK  Name = 75536399
REMARK  12 active torsions:
REMARK  status: ('A' for Active; 'I' for Inactive)
REMARK    1  A    between atoms: O_2  and  C_9
REMARK    2  A    between atoms: O_4  and  C_27
REMARK    3  A    between atoms: O_4  and  C_31
REMARK    4  A    between atoms: O_5  and  C_30
REMARK    5  A    between atoms: O_5  and  C_32
REMARK    6  A    between atoms: N_6  and  C_13
REMARK    7  A    between atoms: N_6  and  C_16
REMARK    8  A    between atoms: C_8  and  C_13
REMARK    9  A    between atoms: C_10  and  C_14
REMARK   10  A    between atoms: C_14  and  C_15
REMARK   11  A    between atoms: C_16  and  C_18
REMARK   12  A    between atoms: C_19  and  C_20
REMARK                            x       y       z     vdW  Elec       q    Type
REMARK                         _______ _______ _______ _____ _____    ______ ____
ROOT
ATOM      1  O   UNL     1      -3.172   2.286  24.891  0.00  0.00    -0.369 OA
ATOM      8  C   UNL     1      -3.804   3.240  25.754  0.00  0.00    +0.161 C 
ATOM      9  C   UNL     1      -3.375   4.673  25.410  0.00  0.00    +0.145 C 
ATOM     10  C   UNL     1      -3.371   2.505  23.493  0.00  0.00    +0.125 C 
ATOM     11  C   UNL     1      -3.503   4.976  23.919  0.00  0.00    +0.036 C 
ATOM     12  C   UNL     1      -2.848   3.880  23.082  0.00  0.00    +0.034 C 
ENDROOT
BRANCH   9   2
ATOM      2  O   UNL     1      -2.003   4.844  25.774  0.00  0.00    -0.389 OA
ATOM     34  H   UNL     1      -1.560   3.986  25.660  0.00  0.00    +0.210 HD
ENDBRANCH   9   2
BRANCH   8  13
ATOM     13  C   UNL     1      -5.320   3.057  25.762  0.00  0.00    +0.115 C 
BRANCH  13   6
ATOM      6  N   UNL     1      -5.679   1.735  26.249  0.00  0.00    -0.309 NA
ATOM     33  H   UNL     1      -4.925   1.375  26.834  0.00  0.00    +0.122 HD
BRANCH   6  16
ATOM     16  C   UNL     1      -5.895   0.811  25.142  0.00  0.00    +0.116 C 
BRANCH  16  18
ATOM     18  C   UNL     1      -4.773  -0.183  25.014  0.00  0.00    -0.033 A 
ATOM     21  C   UNL     1      -3.761  -0.223  25.975  0.00  0.00    +0.008 A 
ATOM     22  C   UNL     1      -4.743  -1.067  23.936  0.00  0.00    +0.008 A 
ATOM     23  C   UNL     1      -2.722  -1.144  25.856  0.00  0.00    +0.046 A 
ATOM     24  C   UNL     1      -3.703  -1.989  23.817  0.00  0.00    +0.046 A 
ATOM     27  C   UNL     1      -2.693  -2.027  24.777  0.00  0.00    +0.120 A 
BRANCH  27   4
ATOM      4  O   UNL     1      -1.678  -2.928  24.661  0.00  0.00    -0.495 OA
ATOM     31  C   UNL     1      -0.395  -2.526  25.138  0.00  0.00    +0.277 C 
ENDBRANCH  27   4
ENDBRANCH  16  18
ENDBRANCH   6  16
ENDBRANCH  13   6
ENDBRANCH   8  13
BRANCH  10  14
ATOM     14  C   UNL     1      -2.634   1.399  22.746  0.00  0.00    +0.090 C 
BRANCH  14  15
ATOM      3  O   UNL     1       0.659   1.888  24.128  0.00  0.00    -0.354 OA
ATOM      7  N   UNL     1      -0.683   2.226  23.997  0.00  0.00    -0.083 NA
ATOM     15  C   UNL     1      -1.181   1.338  23.133  0.00  0.00    +0.087 A 
ATOM     17  C   UNL     1      -0.211   0.424  22.687  0.00  0.00    +0.076 A 
ATOM     19  C   UNL     1       0.928   0.813  23.343  0.00  0.00    +0.167 A 
BRANCH  19  20
ATOM     20  C   UNL     1       2.283   0.343  23.374  0.00  0.00    +0.020 A 
ATOM     25  C   UNL     1       3.328   1.210  23.057  0.00  0.00    +0.015 A 
ATOM     26  C   UNL     1       2.554  -0.980  23.723  0.00  0.00    +0.015 A 
ATOM     28  C   UNL     1       4.646   0.752  23.086  0.00  0.00    +0.046 A 
ATOM     29  C   UNL     1       3.872  -1.436  23.752  0.00  0.00    +0.046 A 
ATOM     30  C   UNL     1       4.918  -0.570  23.435  0.00  0.00    +0.120 A 
BRANCH  30   5
ATOM      5  O   UNL     1       6.203  -1.016  23.467  0.00  0.00    -0.495 OA
ATOM     32  C   UNL     1       7.218  -0.098  23.062  0.00  0.00    +0.277 C 
ENDBRANCH  30   5
ENDBRANCH  19  20
ENDBRANCH  14  15
ENDBRANCH  10  14
TORSDOF 10
ENDMDL
MODEL 4
REMARK VINA RESULT:       2.0      1.635      4.547
REMARK  Name = 75536399
REMARK  12 active torsions:
REMARK  status: ('A' for Active; 'I' for Inactive)
REMARK    1  A    between atoms: O_2  and  C_9
REMARK    2  A    between atoms: O_4  and  C_27
REMARK    3  A    between atoms: O_4  and  C_31
REMARK    4  A    between atoms: O_5  and  C_30
REMARK    5  A    between atoms: O_5  and  C_32
REMARK    6  A    between atoms: N_6  and  C_13
REMARK    7  A    between atoms: N_6  and  C_16
REMARK    8  A    between atoms: C_8  and  C_13
REMARK    9  A    between atoms: C_10  and  C_14
REMARK   10  A    between atoms: C_14  and  C_15
REMARK   11  A    between atoms: C_16  and  C_18
REMARK   12  A    between atoms: C_19  and  C_20
REMARK                            x       y       z     vdW  Elec       q    Type
REMARK                         _______ _______ _______ _____ _____    ______ ____
ROOT
ATOM      1  O   UNL     1      -1.087   2.939  24.192  0.00  0.00    -0.369 OA
ATOM      8  C   UNL     1      -1.133   3.694  25.409  0.00  0.00    +0.161 C 
ATOM      9  C   UNL     1      -2.497   4.373  25.593  0.00  0.00    +0.145 C 
ATOM     10  C   UNL     1      -2.114   1.957  24.046  0.00  0.00    +0.125 C 
ATOM     11  C   UNL     1      -3.659   3.404  25.397  0.00  0.00    +0.036 C 
ATOM     12  C   UNL     1      -3.495   2.609  24.104  0.00  0.00    +0.034 C 
ENDROOT
BRANCH   9   2
ATOM      2  O   UNL     1      -2.628   5.414  24.621  0.00  0.00    -0.389 OA
ATOM     34  H   UNL     1      -3.083   5.039  23.849  0.00  0.00    +0.210 HD
ENDBRANCH   9   2
BRANCH   8  13
ATOM     13  C   UNL     1      -0.728   2.836  26.607  0.00  0.00    +0.115 C 
BRANCH  13   6
ATOM      6  N   UNL     1      -0.095   1.602  26.168  0.00  0.00    -0.309 NA
ATOM     33  H   UNL     1      -0.321   1.437  25.187  0.00  0.00    +0.122 HD
BRANCH   6  16
ATOM     16  C   UNL     1      -0.563   0.467  26.955  0.00  0.00    +0.116 C 
BRANCH  16  18
ATOM     18  C   UNL     1      -1.348  -0.508  26.119  0.00  0.00    -0.033 A 
ATOM     21  C   UNL     1      -2.743  -0.467  26.123  0.00  0.00    +0.008 A 
ATOM     22  C   UNL     1      -0.681  -1.452  25.339  0.00  0.00    +0.008 A 
ATOM     23  C   UNL     1      -3.469  -1.371  25.348  0.00  0.00    +0.046 A 
ATOM     24  C   UNL     1      -1.408  -2.357  24.564  0.00  0.00    +0.046 A 
ATOM     27  C   UNL     1      -2.802  -2.315  24.569  0.00  0.00    +0.120 A 
BRANCH  27   4
ATOM      4  O   UNL     1      -3.511  -3.197  23.812  0.00  0.00    -0.495 OA
ATOM     31  C   UNL     1      -4.817  -2.798  23.402  0.00  0.00    +0.277 C 
ENDBRANCH  27   4
ENDBRANCH  16  18
ENDBRANCH   6  16
ENDBRANCH  13   6
ENDBRANCH   8  13
BRANCH  10  14
ATOM     14  C   UNL     1      -1.898   1.263  22.706  0.00  0.00    +0.090 C 
BRANCH  14  15
ATOM      3  O   UNL     1       1.078  -0.593  21.875  0.00  0.00    -0.354 OA
ATOM      7  N   UNL     1      -0.269  -0.291  21.712  0.00  0.00    -0.083 NA
ATOM     15  C   UNL     1      -0.516   0.678  22.598  0.00  0.00    +0.087 A 
ATOM     17  C   UNL     1       0.625   1.025  23.341  0.00  0.00    +0.076 A 
ATOM     19  C   UNL     1       1.599   0.198  22.847  0.00  0.00    +0.167 A 
BRANCH  19  20
ATOM     20  C   UNL     1       2.992   0.001  23.129  0.00  0.00    +0.020 A 
ATOM     25  C   UNL     1       3.895   1.046  22.942  0.00  0.00    +0.015 A 
ATOM     26  C   UNL     1       3.442  -1.236  23.591  0.00  0.00    +0.015 A 
ATOM     28  C   UNL     1       5.250   0.854  23.216  0.00  0.00    +0.046 A 
ATOM     29  C   UNL     1       4.796  -1.428  23.864  0.00  0.00    +0.046 A 
ATOM     30  C   UNL     1       5.700  -0.383  23.678  0.00  0.00    +0.120 A 
BRANCH  30   5
ATOM      5  O   UNL     1       7.021  -0.570  23.948  0.00  0.00    -0.495 OA
ATOM     32  C   UNL     1       7.918  -0.553  22.838  0.00  0.00    +0.277 C 
ENDBRANCH  30   5
ENDBRANCH  19  20
ENDBRANCH  14  15
ENDBRANCH  10  14
TORSDOF 10
ENDMDL
MODEL 5
REMARK VINA RESULT:       2.4      2.067      3.130
REMARK  Name = 75536399
REMARK  12 active torsions:
REMARK  status: ('A' for Active; 'I' for Inactive)
REMARK    1  A    between atoms: O_2  and  C_9
REMARK    2  A    between atoms: O_4  and  C_27
REMARK    3  A    between atoms: O_4  and  C_31
REMARK    4  A    between atoms: O_5  and  C_30
REMARK    5  A    between atoms: O_5  and  C_32
REMARK    6  A    between atoms: N_6  and  C_13
REMARK    7  A    between atoms: N_6  and  C_16
REMARK    8  A    between atoms: C_8  and  C_13
REMARK    9  A    between atoms: C_10  and  C_14
REMARK   10  A    between atoms: C_14  and  C_15
REMARK   11  A    between atoms: C_16  and  C_18
REMARK   12  A    between atoms: C_19  and  C_20
REMARK                            x       y       z     vdW  Elec       q    Type
REMARK                         _______ _______ _______ _____ _____    ______ ____
ROOT
ATOM      1  O   UNL     1      -4.678   2.269  23.803  0.00  0.00    -0.369 OA
ATOM      8  C   UNL     1      -5.438   3.010  24.766  0.00  0.00    +0.161 C 
ATOM      9  C   UNL     1      -6.363   2.092  25.575  0.00  0.00    +0.145 C 
ATOM     10  C   UNL     1      -3.906   1.192  24.338  0.00  0.00    +0.125 C 
ATOM     11  C   UNL     1      -5.627   0.878  26.138  0.00  0.00    +0.036 C 
ATOM     12  C   UNL     1      -4.806   0.186  25.054  0.00  0.00    +0.034 C 
ENDROOT
BRANCH   9   2
ATOM      2  O   UNL     1      -7.402   1.613  24.717  0.00  0.00    -0.389 OA
ATOM     34  H   UNL     1      -7.411   2.176  23.925  0.00  0.00    +0.210 HD
ENDBRANCH   9   2
BRANCH   8  13
ATOM     13  C   UNL     1      -4.528   3.866  25.646  0.00  0.00    +0.115 C 
BRANCH  13   6
ATOM      6  N   UNL     1      -3.998   4.995  24.898  0.00  0.00    -0.309 NA
ATOM     33  H   UNL     1      -4.723   5.362  24.281  0.00  0.00    +0.122 HD
BRANCH   6  16
ATOM     16  C   UNL     1      -2.853   4.593  24.089  0.00  0.00    +0.116 C 
BRANCH  16  18
ATOM     18  C   UNL     1      -1.777   3.948  24.922  0.00  0.00    -0.033 A 
ATOM     21  C   UNL     1      -0.509   3.735  24.382  0.00  0.00    +0.008 A 
ATOM     22  C   UNL     1      -2.049   3.564  26.235  0.00  0.00    +0.008 A 
ATOM     23  C   UNL     1       0.487   3.138  25.154  0.00  0.00    +0.046 A 
ATOM     24  C   UNL     1      -1.053   2.966  27.007  0.00  0.00    +0.046 A 
ATOM     27  C   UNL     1       0.215   2.753  26.467  0.00  0.00    +0.120 A 
BRANCH  27   4
ATOM      4  O   UNL     1       1.187   2.171  27.221  0.00  0.00    -0.495 OA
ATOM     31  C   UNL     1       1.338   2.639  28.560  0.00  0.00    +0.277 C 
ENDBRANCH  27   4
ENDBRANCH  16  18
ENDBRANCH   6  16
ENDBRANCH  13   6
ENDBRANCH   8  13
BRANCH  10  14
ATOM     14  C   UNL     1      -3.173   0.532  23.176  0.00  0.00    +0.090 C 
BRANCH  14  15
ATOM      3  O   UNL     1      -0.037  -0.474  24.642  0.00  0.00    -0.354 OA
ATOM      7  N   UNL     1      -1.423  -0.380  24.648  0.00  0.00    -0.083 NA
ATOM     15  C   UNL     1      -1.732   0.251  23.512  0.00  0.00    +0.087 A 
ATOM     17  C   UNL     1      -0.594   0.578  22.756  0.00  0.00    +0.076 A 
ATOM     19  C   UNL     1       0.445   0.100  23.510  0.00  0.00    +0.167 A 
BRANCH  19  20
ATOM     20  C   UNL     1       1.872   0.078  23.360  0.00  0.00    +0.020 A 
ATOM     25  C   UNL     1       2.537   1.196  22.857  0.00  0.00    +0.015 A 
ATOM     26  C   UNL     1       2.593  -1.060  23.720  0.00  0.00    +0.015 A 
ATOM     28  C   UNL     1       3.925   1.174  22.711  0.00  0.00    +0.046 A 
ATOM     29  C   UNL     1       3.980  -1.081  23.575  0.00  0.00    +0.046 A 
ATOM     30  C   UNL     1       4.646   0.036  23.071  0.00  0.00    +0.120 A 
BRANCH  30   5
ATOM      5  O   UNL     1       6.000   0.016  22.932  0.00  0.00    -0.495 OA
ATOM     32  C   UNL     1       6.739  -0.736  23.895  0.00  0.00    +0.277 C 
ENDBRANCH  30   5
ENDBRANCH  19  20
ENDBRANCH  14  15
ENDBRANCH  10  14
TORSDOF 10
ENDMDL
MODEL 6
REMARK VINA RESULT:       3.1      1.990      4.589
REMARK  Name = 75536399
REMARK  12 active torsions:
REMARK  status: ('A' for Active; 'I' for Inactive)
REMARK    1  A    between atoms: O_2  and  C_9
REMARK    2  A    between atoms: O_4  and  C_27
REMARK    3  A    between atoms: O_4  and  C_31
REMARK    4  A    between atoms: O_5  and  C_30
REMARK    5  A    between atoms: O_5  and  C_32
REMARK    6  A    between atoms: N_6  and  C_13
REMARK    7  A    between atoms: N_6  and  C_16
REMARK    8  A    between atoms: C_8  and  C_13
REMARK    9  A    between atoms: C_10  and  C_14
REMARK   10  A    between atoms: C_14  and  C_15
REMARK   11  A    between atoms: C_16  and  C_18
REMARK   12  A    between atoms: C_19  and  C_20
REMARK                            x       y       z     vdW  Elec       q    Type
REMARK                         _______ _______ _______ _____ _____    ______ ____
ROOT
ATOM      1  O   UNL     1      -4.493   3.138  26.317  0.00  0.00    -0.369 OA
ATOM      8  C   UNL     1      -5.864   3.210  25.905  0.00  0.00    +0.161 C 
ATOM      9  C   UNL     1      -6.172   4.548  25.221  0.00  0.00    +0.145 C 
ATOM     10  C   UNL     1      -3.534   3.358  25.281  0.00  0.00    +0.125 C 
ATOM     11  C   UNL     1      -5.158   4.890  24.132  0.00  0.00    +0.036 C 
ATOM     12  C   UNL     1      -3.730   4.734  24.648  0.00  0.00    +0.034 C 
ENDROOT
BRANCH   9   2
ATOM      2  O   UNL     1      -6.128   5.588  26.201  0.00  0.00    -0.389 OA
ATOM     34  H   UNL     1      -5.337   6.125  26.024  0.00  0.00    +0.210 HD
ENDBRANCH   9   2
BRANCH   8  13
ATOM     13  C   UNL     1      -6.247   2.001  25.052  0.00  0.00    +0.115 C 
BRANCH  13   6
ATOM      6  N   UNL     1      -5.491   0.825  25.452  0.00  0.00    -0.309 NA
ATOM     33  H   UNL     1      -4.592   1.116  25.837  0.00  0.00    +0.122 HD
BRANCH   6  16
ATOM     16  C   UNL     1      -5.252  -0.054  24.313  0.00  0.00    +0.116 C 
BRANCH  16  18
ATOM     18  C   UNL     1      -4.014  -0.889  24.501  0.00  0.00    -0.033 A 
ATOM     21  C   UNL     1      -3.994  -2.216  24.069  0.00  0.00    +0.008 A 
ATOM     22  C   UNL     1      -2.886  -0.336  25.106  0.00  0.00    +0.008 A 
ATOM     23  C   UNL     1      -2.846  -2.988  24.244  0.00  0.00    +0.046 A 
ATOM     24  C   UNL     1      -1.737  -1.109  25.281  0.00  0.00    +0.046 A 
ATOM     27  C   UNL     1      -1.718  -2.435  24.849  0.00  0.00    +0.120 A 
BRANCH  27   4
ATOM      4  O   UNL     1      -0.598  -3.189  25.019  0.00  0.00    -0.495 OA
ATOM     31  C   UNL     1       0.523  -2.558  25.637  0.00  0.00    +0.277 C 
ENDBRANCH  27   4
ENDBRANCH  16  18
ENDBRANCH   6  16
ENDBRANCH  13   6
ENDBRANCH   8  13
BRANCH  10  14
ATOM     14  C   UNL     1      -2.149   3.240  25.905  0.00  0.00    +0.090 C 
BRANCH  14  15
ATOM      3  O   UNL     1      -0.437   1.629  23.172  0.00  0.00    -0.354 OA
ATOM      7  N   UNL     1      -1.562   2.204  23.751  0.00  0.00    -0.083 NA
ATOM     15  C   UNL     1      -1.173   2.570  24.975  0.00  0.00    +0.087 A 
ATOM     17  C   UNL     1       0.174   2.255  25.224  0.00  0.00    +0.076 A 
ATOM     19  C   UNL     1       0.591   1.666  24.060  0.00  0.00    +0.167 A 
BRANCH  19  20
ATOM     20  C   UNL     1       1.829   1.105  23.601  0.00  0.00    +0.020 A 
ATOM     25  C   UNL     1       2.877   1.944  23.225  0.00  0.00    +0.015 A 
ATOM     26  C   UNL     1       1.984  -0.279  23.532  0.00  0.00    +0.015 A 
ATOM     28  C   UNL     1       4.081   1.398  22.779  0.00  0.00    +0.046 A 
ATOM     29  C   UNL     1       3.187  -0.825  23.086  0.00  0.00    +0.046 A 
ATOM     30  C   UNL     1       4.237   0.014  22.710  0.00  0.00    +0.120 A 
BRANCH  30   5
ATOM      5  O   UNL     1       5.412  -0.519  22.277  0.00  0.00    -0.495 OA
ATOM     32  C   UNL     1       6.542  -0.379  23.137  0.00  0.00    +0.277 C 
ENDBRANCH  30   5
ENDBRANCH  19  20
ENDBRANCH  14  15
ENDBRANCH  10  14
TORSDOF 10
ENDMDL
MODEL 7
REMARK VINA RESULT:       3.7      2.055      4.390
REMARK  Name = 75536399
REMARK  12 active torsions:
REMARK  status: ('A' for Active; 'I' for Inactive)
REMARK    1  A    between atoms: O_2  and  C_9
REMARK    2  A    between atoms: O_4  and  C_27
REMARK    3  A    between atoms: O_4  and  C_31
REMARK    4  A    between atoms: O_5  and  C_30
REMARK    5  A    between atoms: O_5  and  C_32
REMARK    6  A    between atoms: N_6  and  C_13
REMARK    7  A    between atoms: N_6  and  C_16
REMARK    8  A    between atoms: C_8  and  C_13
REMARK    9  A    between atoms: C_10  and  C_14
REMARK   10  A    between atoms: C_14  and  C_15
REMARK   11  A    between atoms: C_16  and  C_18
REMARK   12  A    between atoms: C_19  and  C_20
REMARK                            x       y       z     vdW  Elec       q    Type
REMARK                         _______ _______ _______ _____ _____    ______ ____
ROOT
ATOM      1  O   UNL     1      -4.162   2.178  25.494  0.00  0.00    -0.369 OA
ATOM      8  C   UNL     1      -5.460   1.572  25.465  0.00  0.00    +0.161 C 
ATOM      9  C   UNL     1      -6.513   2.475  26.119  0.00  0.00    +0.145 C 
ATOM     10  C   UNL     1      -4.086   3.478  24.905  0.00  0.00    +0.125 C 
ATOM     11  C   UNL     1      -6.464   3.905  25.587  0.00  0.00    +0.036 C 
ATOM     12  C   UNL     1      -5.037   4.445  25.607  0.00  0.00    +0.034 C 
ENDROOT
BRANCH   9   2
ATOM      2  O   UNL     1      -6.268   2.524  27.527  0.00  0.00    -0.389 OA
ATOM     34  H   UNL     1      -6.060   1.621  27.821  0.00  0.00    +0.210 HD
ENDBRANCH   9   2
BRANCH   8  13
ATOM     13  C   UNL     1      -5.838   1.145  24.047  0.00  0.00    +0.115 C 
BRANCH  13   6
ATOM      6  N   UNL     1      -4.824   0.268  23.483  0.00  0.00    -0.309 NA
ATOM     33  H   UNL     1      -5.063   0.055  22.514  0.00  0.00    +0.122 HD
BRANCH   6  16
ATOM     16  C   UNL     1      -4.739  -0.980  24.231  0.00  0.00    +0.116 C 
BRANCH  16  18
ATOM     18  C   UNL     1      -3.332  -1.270  24.679  0.00  0.00    -0.033 A 
ATOM     21  C   UNL     1      -2.716  -0.451  25.626  0.00  0.00    +0.008 A 
ATOM     22  C   UNL     1      -2.642  -2.360  24.147  0.00  0.00    +0.008 A 
ATOM     23  C   UNL     1      -1.412  -0.720  26.039  0.00  0.00    +0.046 A 
ATOM     24  C   UNL     1      -1.337  -2.629  24.561  0.00  0.00    +0.046 A 
ATOM     27  C   UNL     1      -0.723  -1.810  25.507  0.00  0.00    +0.120 A 
BRANCH  27   4
ATOM      4  O   UNL     1       0.550  -2.073  25.911  0.00  0.00    -0.495 OA
ATOM     31  C   UNL     1       1.134  -3.295  25.463  0.00  0.00    +0.277 C 
ENDBRANCH  27   4
ENDBRANCH  16  18
ENDBRANCH   6  16
ENDBRANCH  13   6
ENDBRANCH   8  13
BRANCH  10  14
ATOM     14  C   UNL     1      -2.642   3.953  25.027  0.00  0.00    +0.090 C 
BRANCH  14  15
ATOM      3  O   UNL     1      -1.003   1.399  23.081  0.00  0.00    -0.354 OA
ATOM      7  N   UNL     1      -2.129   2.113  23.475  0.00  0.00    -0.083 NA
ATOM     15  C   UNL     1      -1.683   2.994  24.374  0.00  0.00    +0.087 A 
ATOM     17  C   UNL     1      -0.298   2.885  24.588  0.00  0.00    +0.076 A 
ATOM     19  C   UNL     1       0.081   1.868  23.751  0.00  0.00    +0.167 A 
BRANCH  19  20
ATOM     20  C   UNL     1       1.326   1.226  23.446  0.00  0.00    +0.020 A 
ATOM     25  C   UNL     1       2.497   1.979  23.360  0.00  0.00    +0.015 A 
ATOM     26  C   UNL     1       1.367  -0.153  23.238  0.00  0.00    +0.015 A 
ATOM     28  C   UNL     1       3.708   1.353  23.063  0.00  0.00    +0.046 A 
ATOM     29  C   UNL     1       2.578  -0.778  22.941  0.00  0.00    +0.046 A 
ATOM     30  C   UNL     1       3.749  -0.026  22.854  0.00  0.00    +0.120 A 
BRANCH  30   5
ATOM      5  O   UNL     1       4.930  -0.637  22.568  0.00  0.00    -0.495 OA
ATOM     32  C   UNL     1       6.067  -0.244  23.337  0.00  0.00    +0.277 C 
ENDBRANCH  30   5
ENDBRANCH  19  20
ENDBRANCH  14  15
ENDBRANCH  10  14
TORSDOF 10
ENDMDL
MODEL 8
REMARK VINA RESULT:       3.8      1.633      2.876
REMARK  Name = 75536399
REMARK  12 active torsions:
REMARK  status: ('A' for Active; 'I' for Inactive)
REMARK    1  A    between atoms: O_2  and  C_9
REMARK    2  A    between atoms: O_4  and  C_27
REMARK    3  A    between atoms: O_4  and  C_31
REMARK    4  A    between atoms: O_5  and  C_30
REMARK    5  A    between atoms: O_5  and  C_32
REMARK    6  A    between atoms: N_6  and  C_13
REMARK    7  A    between atoms: N_6  and  C_16
REMARK    8  A    between atoms: C_8  and  C_13
REMARK    9  A    between atoms: C_10  and  C_14
REMARK   10  A    between atoms: C_14  and  C_15
REMARK   11  A    between atoms: C_16  and  C_18
REMARK   12  A    between atoms: C_19  and  C_20
REMARK                            x       y       z     vdW  Elec       q    Type
REMARK                         _______ _______ _______ _____ _____    ______ ____
ROOT
ATOM      1  O   UNL     1      -4.557   1.429  23.925  0.00  0.00    -0.369 OA
ATOM      8  C   UNL     1      -5.320   2.593  24.267  0.00  0.00    +0.161 C 
ATOM      9  C   UNL     1      -6.485   2.242  25.201  0.00  0.00    +0.145 C 
ATOM     10  C   UNL     1      -4.050   0.687  25.036  0.00  0.00    +0.125 C 
ATOM     11  C   UNL     1      -6.039   1.397  26.392  0.00  0.00    +0.036 C 
ATOM     12  C   UNL     1      -5.191   0.214  25.935  0.00  0.00    +0.034 C 
ENDROOT
BRANCH   9   2
ATOM      2  O   UNL     1      -7.453   1.487  24.469  0.00  0.00    -0.389 OA
ATOM     34  H   UNL     1      -8.320   1.646  24.879  0.00  0.00    +0.210 HD
ENDBRANCH   9   2
BRANCH   8  13
ATOM     13  C   UNL     1      -4.422   3.698  24.821  0.00  0.00    +0.115 C 
BRANCH  13   6
ATOM      6  N   UNL     1      -4.625   3.861  26.251  0.00  0.00    -0.309 NA
ATOM     33  H   UNL     1      -5.221   4.672  26.418  0.00  0.00    +0.122 HD
BRANCH   6  16
ATOM     16  C   UNL     1      -3.355   4.063  26.939  0.00  0.00    +0.116 C 
BRANCH  16  18
ATOM     18  C   UNL     1      -2.208   4.184  25.973  0.00  0.00    -0.033 A 
ATOM     21  C   UNL     1      -2.012   5.370  25.265  0.00  0.00    +0.008 A 
ATOM     22  C   UNL     1      -1.340   3.108  25.784  0.00  0.00    +0.008 A 
ATOM     23  C   UNL     1      -0.948   5.481  24.370  0.00  0.00    +0.046 A 
ATOM     24  C   UNL     1      -0.276   3.219  24.888  0.00  0.00    +0.046 A 
ATOM     27  C   UNL     1      -0.080   4.406  24.182  0.00  0.00    +0.120 A 
BRANCH  27   4
ATOM      4  O   UNL     1       0.958   4.513  23.309  0.00  0.00    -0.495 OA
ATOM     31  C   UNL     1       0.850   5.506  22.290  0.00  0.00    +0.277 C 
ENDBRANCH  27   4
ENDBRANCH  16  18
ENDBRANCH   6  16
ENDBRANCH  13   6
ENDBRANCH   8  13
BRANCH  10  14
ATOM     14  C   UNL     1      -3.271  -0.500  24.478  0.00  0.00    +0.090 C 
BRANCH  14  15
ATOM      3  O   UNL     1      -0.464   1.031  22.814  0.00  0.00    -0.354 OA
ATOM      7  N   UNL     1      -1.824   0.914  23.077  0.00  0.00    -0.083 NA
ATOM     15  C   UNL     1      -1.921  -0.086  23.957  0.00  0.00    +0.087 A 
ATOM     17  C   UNL     1      -0.669  -0.635  24.283  0.00  0.00    +0.076 A 
ATOM     19  C   UNL     1       0.213   0.103  23.538  0.00  0.00    +0.167 A 
BRANCH  19  20
ATOM     20  C   UNL     1       1.638   0.102  23.371  0.00  0.00    +0.020 A 
ATOM     25  C   UNL     1       2.292   1.262  22.958  0.00  0.00    +0.015 A 
ATOM     26  C   UNL     1       2.368  -1.059  23.623  0.00  0.00    +0.015 A 
ATOM     28  C   UNL     1       3.678   1.261  22.795  0.00  0.00    +0.046 A 
ATOM     29  C   UNL     1       3.753  -1.060  23.460  0.00  0.00    +0.046 A 
ATOM     30  C   UNL     1       4.409   0.100  23.047  0.00  0.00    +0.120 A 
BRANCH  30   5
ATOM      5  O   UNL     1       5.760   0.098  22.891  0.00  0.00    -0.495 OA
ATOM     32  C   UNL     1       6.521  -0.652  23.837  0.00  0.00    +0.277 C 
ENDBRANCH  30   5
ENDBRANCH  19  20
ENDBRANCH  14  15
ENDBRANCH  10  14
TORSDOF 10
ENDMDL
