MODEL 1
REMARK VINA RESULT:      -1.6      0.000      0.000
REMARK  Name = 75537069
REMARK  4 active torsions:
REMARK  status: ('A' for Active; 'I' for Inactive)
REMARK    1  A    between atoms: N_3  and  C_12
REMARK    2  A    between atoms: N_4  and  C_13
REMARK    3  A    between atoms: C_12  and  C_14
REMARK    4  A    between atoms: C_13  and  C_15
REMARK                            x       y       z     vdW  Elec       q    Type
REMARK                         _______ _______ _______ _____ _____    ______ ____
ROOT
ATOM      1  O   UNL     1       0.308  -1.466  24.033  0.00  0.00    -0.252 OA
ATOM      2  N   UNL     1      -0.328   0.657  24.816  0.00  0.00    -0.278 N 
ATOM      3  N   UNL     1      -2.012   2.772  25.590  0.00  0.00    -0.295 NA
ATOM      4  N   UNL     1       1.334   0.532  23.310  0.00  0.00    -0.278 N 
ATOM      6  C   UNL     1       0.151   2.018  24.690  0.00  0.00    +0.109 C 
ATOM      7  C   UNL     1      -1.022   2.981  24.514  0.00  0.00    +0.109 C 
ATOM      8  C   UNL     1       1.114   1.954  23.506  0.00  0.00    +0.133 C 
ATOM      9  C   UNL     1      -1.405   0.366  25.740  0.00  0.00    +0.125 C 
ATOM     10  C   UNL     1      -2.530   1.389  25.570  0.00  0.00    +0.104 C 
ATOM     11  C   UNL     1       0.425  -0.247  24.054  0.00  0.00    +0.306 C 
ENDROOT
BRANCH   3  12
ATOM     12  C   UNL     1      -3.109   3.730  25.466  0.00  0.00    +0.119 C 
BRANCH  12  14
ATOM     14  C   UNL     1      -4.444   3.042  25.357  0.00  0.00    -0.033 A 
ATOM     16  C   UNL     1      -4.793   2.376  24.183  0.00  0.00    +0.005 A 
ATOM     17  C   UNL     1      -5.333   3.073  26.431  0.00  0.00    +0.005 A 
ATOM     19  C   UNL     1      -6.030   1.739  24.081  0.00  0.00    +0.000 A 
ATOM     20  C   UNL     1      -6.571   2.435  26.331  0.00  0.00    +0.000 A 
ATOM     22  C   UNL     1      -6.919   1.769  25.156  0.00  0.00    +0.000 A 
ENDBRANCH  12  14
ENDBRANCH   3  12
BRANCH   4  13
ATOM     13  C   UNL     1       2.282   0.030  22.341  0.00  0.00    +0.164 C 
BRANCH  13  15
ATOM      5  N   UNL     1       3.842  -1.440  23.493  0.00  0.00    -0.258 NA
ATOM     15  C   UNL     1       3.635  -0.217  22.956  0.00  0.00    +0.059 A 
ATOM     18  C   UNL     1       4.580   0.795  22.942  0.00  0.00    +0.025 A 
ATOM     21  C   UNL     1       5.819   0.535  23.518  0.00  0.00    +0.003 A 
ATOM     23  C   UNL     1       5.058  -1.656  24.044  0.00  0.00    +0.111 A 
ATOM     24  C   UNL     1       6.071  -0.711  24.080  0.00  0.00    +0.020 A 
ENDBRANCH  13  15
ENDBRANCH   4  13
TORSDOF 4
ENDMDL
MODEL 2
REMARK VINA RESULT:      -1.4      1.467      1.969
REMARK  Name = 75537069
REMARK  4 active torsions:
REMARK  status: ('A' for Active; 'I' for Inactive)
REMARK    1  A    between atoms: N_3  and  C_12
REMARK    2  A    between atoms: N_4  and  C_13
REMARK    3  A    between atoms: C_12  and  C_14
REMARK    4  A    between atoms: C_13  and  C_15
REMARK                            x       y       z     vdW  Elec       q    Type
REMARK                         _______ _______ _______ _____ _____    ______ ____
ROOT
ATOM      1  O   UNL     1       0.747  -1.417  22.211  0.00  0.00    -0.252 OA
ATOM      2  N   UNL     1      -0.706  -0.802  23.953  0.00  0.00    -0.278 N 
ATOM      3  N   UNL     1      -3.123  -0.355  25.320  0.00  0.00    -0.295 NA
ATOM      4  N   UNL     1       1.030   0.546  23.489  0.00  0.00    -0.278 N 
ATOM      6  C   UNL     1      -0.754   0.219  24.979  0.00  0.00    +0.109 C 
ATOM      7  C   UNL     1      -2.175   0.761  25.125  0.00  0.00    +0.109 C 
ATOM      8  C   UNL     1       0.281   1.244  24.519  0.00  0.00    +0.133 C 
ATOM      9  C   UNL     1      -1.688  -1.866  23.964  0.00  0.00    +0.125 C 
ATOM     10  C   UNL     1      -3.088  -1.284  24.172  0.00  0.00    +0.104 C 
ATOM     11  C   UNL     1       0.402  -0.657  23.107  0.00  0.00    +0.306 C 
ENDROOT
BRANCH   3  12
ATOM     12  C   UNL     1      -4.478   0.156  25.521  0.00  0.00    +0.119 C 
BRANCH  12  14
ATOM     14  C   UNL     1      -4.588   1.612  25.153  0.00  0.00    -0.033 A 
ATOM     16  C   UNL     1      -3.946   2.095  24.013  0.00  0.00    +0.005 A 
ATOM     17  C   UNL     1      -5.333   2.478  25.953  0.00  0.00    +0.005 A 
ATOM     19  C   UNL     1      -4.048   3.444  23.673  0.00  0.00    +0.000 A 
ATOM     20  C   UNL     1      -5.437   3.828  25.613  0.00  0.00    +0.000 A 
ATOM     22  C   UNL     1      -4.794   4.310  24.473  0.00  0.00    +0.000 A 
ENDBRANCH  12  14
ENDBRANCH   3  12
BRANCH   4  13
ATOM     13  C   UNL     1       2.191   1.131  22.856  0.00  0.00    +0.164 C 
BRANCH  13  15
ATOM      5  N   UNL     1       3.330  -0.907  23.542  0.00  0.00    -0.258 NA
ATOM     15  C   UNL     1       3.456   0.400  23.222  0.00  0.00    +0.059 A 
ATOM     18  C   UNL     1       4.661   1.084  23.213  0.00  0.00    +0.025 A 
ATOM     21  C   UNL     1       5.810   0.380  23.555  0.00  0.00    +0.003 A 
ATOM     23  C   UNL     1       4.469  -1.558  23.869  0.00  0.00    +0.111 A 
ATOM     24  C   UNL     1       5.722  -0.966  23.889  0.00  0.00    +0.020 A 
ENDBRANCH  13  15
ENDBRANCH   4  13
TORSDOF 4
ENDMDL
MODEL 3
REMARK VINA RESULT:      -0.9      1.435      2.132
REMARK  Name = 75537069
REMARK  4 active torsions:
REMARK  status: ('A' for Active; 'I' for Inactive)
REMARK    1  A    between atoms: N_3  and  C_12
REMARK    2  A    between atoms: N_4  and  C_13
REMARK    3  A    between atoms: C_12  and  C_14
REMARK    4  A    between atoms: C_13  and  C_15
REMARK                            x       y       z     vdW  Elec       q    Type
REMARK                         _______ _______ _______ _____ _____    ______ ____
ROOT
ATOM      1  O   UNL     1       0.951  -2.184  24.598  0.00  0.00    -0.252 OA
ATOM      2  N   UNL     1      -0.689  -0.529  24.908  0.00  0.00    -0.278 N 
ATOM      3  N   UNL     1      -3.223   0.602  25.364  0.00  0.00    -0.295 NA
ATOM      4  N   UNL     1       0.806  -0.250  23.255  0.00  0.00    -0.278 N 
ATOM      6  C   UNL     1      -0.977   0.787  24.375  0.00  0.00    +0.109 C 
ATOM      7  C   UNL     1      -2.478   0.948  24.137  0.00  0.00    +0.109 C 
ATOM      8  C   UNL     1      -0.114   0.865  23.118  0.00  0.00    +0.133 C 
ATOM      9  C   UNL     1      -1.466  -1.029  26.023  0.00  0.00    +0.125 C 
ATOM     10  C   UNL     1      -2.956  -0.794  25.768  0.00  0.00    +0.104 C 
ATOM     11  C   UNL     1       0.425  -1.121  24.295  0.00  0.00    +0.306 C 
ENDROOT
BRANCH   3  12
ATOM     12  C   UNL     1      -4.656   0.810  25.165  0.00  0.00    +0.119 C 
BRANCH  12  14
ATOM     14  C   UNL     1      -5.020   2.271  25.194  0.00  0.00    -0.033 A 
ATOM     16  C   UNL     1      -6.153   2.695  25.888  0.00  0.00    +0.005 A 
ATOM     17  C   UNL     1      -4.223   3.200  24.526  0.00  0.00    +0.005 A 
ATOM     19  C   UNL     1      -6.490   4.048  25.913  0.00  0.00    +0.000 A 
ATOM     20  C   UNL     1      -4.559   4.554  24.552  0.00  0.00    +0.000 A 
ATOM     22  C   UNL     1      -5.692   4.978  25.246  0.00  0.00    +0.000 A 
ENDBRANCH  12  14
ENDBRANCH   3  12
BRANCH   4  13
ATOM     13  C   UNL     1       1.882  -0.476  22.315  0.00  0.00    +0.164 C 
BRANCH  13  15
ATOM      5  N   UNL     1       3.742   0.989  22.875  0.00  0.00    -0.258 NA
ATOM     15  C   UNL     1       3.232  -0.261  22.945  0.00  0.00    +0.059 A 
ATOM     18  C   UNL     1       3.873  -1.328  23.554  0.00  0.00    +0.025 A 
ATOM     21  C   UNL     1       5.119  -1.095  24.128  0.00  0.00    +0.003 A 
ATOM     23  C   UNL     1       4.955   1.176  23.443  0.00  0.00    +0.111 A 
ATOM     24  C   UNL     1       5.676   0.177  24.076  0.00  0.00    +0.020 A 
ENDBRANCH  13  15
ENDBRANCH   4  13
TORSDOF 4
ENDMDL
MODEL 4
REMARK VINA RESULT:      -0.3      1.765      8.740
REMARK  Name = 75537069
REMARK  4 active torsions:
REMARK  status: ('A' for Active; 'I' for Inactive)
REMARK    1  A    between atoms: N_3  and  C_12
REMARK    2  A    between atoms: N_4  and  C_13
REMARK    3  A    between atoms: C_12  and  C_14
REMARK    4  A    between atoms: C_13  and  C_15
REMARK                            x       y       z     vdW  Elec       q    Type
REMARK                         _______ _______ _______ _____ _____    ______ ____
ROOT
ATOM      1  O   UNL     1      -1.755   3.895  25.032  0.00  0.00    -0.252 OA
ATOM      2  N   UNL     1      -0.719   1.922  24.285  0.00  0.00    -0.278 N 
ATOM      3  N   UNL     1       1.279   0.241  23.240  0.00  0.00    -0.295 NA
ATOM      4  N   UNL     1      -2.834   2.320  23.646  0.00  0.00    -0.278 N 
ATOM      6  C   UNL     1      -1.112   0.728  23.565  0.00  0.00    +0.109 C 
ATOM      7  C   UNL     1      -0.030   0.332  22.561  0.00  0.00    +0.109 C 
ATOM      8  C   UNL     1      -2.456   1.105  22.947  0.00  0.00    +0.133 C 
ATOM      9  C   UNL     1       0.606   1.997  24.865  0.00  0.00    +0.125 C 
ATOM     10  C   UNL     1       1.650   1.536  23.846  0.00  0.00    +0.104 C 
ATOM     11  C   UNL     1      -1.768   2.844  24.404  0.00  0.00    +0.306 C 
ENDROOT
BRANCH   3  12
ATOM     12  C   UNL     1       2.310  -0.197  22.300  0.00  0.00    +0.119 C 
BRANCH  12  14
ATOM     14  C   UNL     1       3.660  -0.302  22.958  0.00  0.00    -0.033 A 
ATOM     16  C   UNL     1       4.034  -1.481  23.600  0.00  0.00    +0.005 A 
ATOM     17  C   UNL     1       4.537   0.783  22.925  0.00  0.00    +0.005 A 
ATOM     19  C   UNL     1       5.285  -1.578  24.210  0.00  0.00    +0.000 A 
ATOM     20  C   UNL     1       5.789   0.686  23.534  0.00  0.00    +0.000 A 
ATOM     22  C   UNL     1       6.163  -0.494  24.176  0.00  0.00    +0.000 A 
ENDBRANCH  12  14
ENDBRANCH   3  12
BRANCH   4  13
ATOM     13  C   UNL     1      -4.115   2.959  23.435  0.00  0.00    +0.164 C 
BRANCH  13  15
ATOM      5  N   UNL     1      -5.393   3.831  25.313  0.00  0.00    -0.258 NA
ATOM     15  C   UNL     1      -5.049   2.738  24.595  0.00  0.00    +0.059 A 
ATOM     18  C   UNL     1      -5.502   1.458  24.866  0.00  0.00    +0.025 A 
ATOM     21  C   UNL     1      -6.365   1.288  25.944  0.00  0.00    +0.003 A 
ATOM     23  C   UNL     1      -6.232   3.627  26.353  0.00  0.00    +0.111 A 
ATOM     24  C   UNL     1      -6.742   2.388  26.706  0.00  0.00    +0.020 A 
ENDBRANCH  13  15
ENDBRANCH   4  13
TORSDOF 4
ENDMDL
MODEL 5
REMARK VINA RESULT:       0.6      1.487      1.955
REMARK  Name = 75537069
REMARK  4 active torsions:
REMARK  status: ('A' for Active; 'I' for Inactive)
REMARK    1  A    between atoms: N_3  and  C_12
REMARK    2  A    between atoms: N_4  and  C_13
REMARK    3  A    between atoms: C_12  and  C_14
REMARK    4  A    between atoms: C_13  and  C_15
REMARK                            x       y       z     vdW  Elec       q    Type
REMARK                         _______ _______ _______ _____ _____    ______ ____
ROOT
ATOM      1  O   UNL     1       1.274   1.723  25.300  0.00  0.00    -0.252 OA
ATOM      2  N   UNL     1      -0.580   2.687  24.225  0.00  0.00    -0.278 N 
ATOM      3  N   UNL     1      -3.053   3.992  23.923  0.00  0.00    -0.295 NA
ATOM      4  N   UNL     1       0.180   0.714  23.469  0.00  0.00    -0.278 N 
ATOM      6  C   UNL     1      -1.376   2.419  23.045  0.00  0.00    +0.109 C 
ATOM      7  C   UNL     1      -2.858   2.649  23.340  0.00  0.00    +0.109 C 
ATOM      8  C   UNL     1      -1.009   0.982  22.681  0.00  0.00    +0.133 C 
ATOM      9  C   UNL     1      -0.796   3.915  24.963  0.00  0.00    +0.125 C 
ATOM     10  C   UNL     1      -2.294   4.135  25.183  0.00  0.00    +0.104 C 
ATOM     11  C   UNL     1       0.404   1.712  24.438  0.00  0.00    +0.306 C 
ENDROOT
BRANCH   3  12
ATOM     12  C   UNL     1      -4.475   4.246  24.153  0.00  0.00    +0.119 C 
BRANCH  12  14
ATOM     14  C   UNL     1      -5.125   3.133  24.931  0.00  0.00    -0.033 A 
ATOM     16  C   UNL     1      -4.901   1.805  24.570  0.00  0.00    +0.005 A 
ATOM     17  C   UNL     1      -5.952   3.432  26.014  0.00  0.00    +0.005 A 
ATOM     19  C   UNL     1      -5.505   0.774  25.291  0.00  0.00    +0.000 A 
ATOM     20  C   UNL     1      -6.555   2.402  26.736  0.00  0.00    +0.000 A 
ATOM     22  C   UNL     1      -6.331   1.073  26.375  0.00  0.00    +0.000 A 
ENDBRANCH  12  14
ENDBRANCH   3  12
BRANCH   4  13
ATOM     13  C   UNL     1       0.925  -0.519  23.338  0.00  0.00    +0.164 C 
BRANCH  13  15
ATOM      5  N   UNL     1       3.212  -1.214  23.792  0.00  0.00    -0.258 NA
ATOM     15  C   UNL     1       2.408  -0.272  23.251  0.00  0.00    +0.059 A 
ATOM     18  C   UNL     1       2.868   0.881  22.636  0.00  0.00    +0.025 A 
ATOM     21  C   UNL     1       4.243   1.079  22.572  0.00  0.00    +0.003 A 
ATOM     23  C   UNL     1       4.543  -0.987  23.711  0.00  0.00    +0.111 A 
ATOM     24  C   UNL     1       5.103   0.132  23.116  0.00  0.00    +0.020 A 
ENDBRANCH  13  15
ENDBRANCH   4  13
TORSDOF 4
ENDMDL
MODEL 6
REMARK VINA RESULT:       0.8      2.598      3.957
REMARK  Name = 75537069
REMARK  4 active torsions:
REMARK  status: ('A' for Active; 'I' for Inactive)
REMARK    1  A    between atoms: N_3  and  C_12
REMARK    2  A    between atoms: N_4  and  C_13
REMARK    3  A    between atoms: C_12  and  C_14
REMARK    4  A    between atoms: C_13  and  C_15
REMARK                            x       y       z     vdW  Elec       q    Type
REMARK                         _______ _______ _______ _____ _____    ______ ____
ROOT
ATOM      1  O   UNL     1      -0.614   4.653  25.387  0.00  0.00    -0.252 OA
ATOM      2  N   UNL     1      -2.288   3.281  24.471  0.00  0.00    -0.278 N 
ATOM      3  N   UNL     1      -4.551   1.615  24.371  0.00  0.00    -0.295 NA
ATOM      4  N   UNL     1      -0.173   2.988  23.775  0.00  0.00    -0.278 N 
ATOM      6  C   UNL     1      -2.387   2.294  23.416  0.00  0.00    +0.109 C 
ATOM      7  C   UNL     1      -3.255   1.120  23.866  0.00  0.00    +0.109 C 
ATOM      8  C   UNL     1      -0.932   1.940  23.115  0.00  0.00    +0.133 C 
ATOM      9  C   UNL     1      -3.493   3.729  25.139  0.00  0.00    +0.125 C 
ATOM     10  C   UNL     1      -4.358   2.525  25.518  0.00  0.00    +0.104 C 
ATOM     11  C   UNL     1      -0.980   3.758  24.637  0.00  0.00    +0.306 C 
ENDROOT
BRANCH   3  12
ATOM     12  C   UNL     1      -5.413   0.495  24.747  0.00  0.00    +0.119 C 
BRANCH  12  14
ATOM     14  C   UNL     1      -4.657  -0.806  24.786  0.00  0.00    -0.033 A 
ATOM     16  C   UNL     1      -4.773  -1.713  23.734  0.00  0.00    +0.005 A 
ATOM     17  C   UNL     1      -3.839  -1.104  25.877  0.00  0.00    +0.005 A 
ATOM     19  C   UNL     1      -4.072  -2.919  23.771  0.00  0.00    +0.000 A 
ATOM     20  C   UNL     1      -3.137  -2.309  25.914  0.00  0.00    +0.000 A 
ATOM     22  C   UNL     1      -3.254  -3.217  24.861  0.00  0.00    +0.000 A 
ENDBRANCH  12  14
ENDBRANCH   3  12
BRANCH   4  13
ATOM     13  C   UNL     1       1.264   3.091  23.646  0.00  0.00    +0.164 C 
BRANCH  13  15
ATOM      5  N   UNL     1       3.207   1.778  22.999  0.00  0.00    -0.258 NA
ATOM     15  C   UNL     1       1.894   1.763  23.321  0.00  0.00    +0.059 A 
ATOM     18  C   UNL     1       1.119   0.616  23.369  0.00  0.00    +0.025 A 
ATOM     21  C   UNL     1       1.732  -0.595  23.065  0.00  0.00    +0.003 A 
ATOM     23  C   UNL     1       3.767   0.582  22.709  0.00  0.00    +0.111 A 
ATOM     24  C   UNL     1       3.081  -0.622  22.728  0.00  0.00    +0.020 A 
ENDBRANCH  13  15
ENDBRANCH   4  13
TORSDOF 4
ENDMDL
MODEL 7
REMARK VINA RESULT:       0.9      2.221      3.050
REMARK  Name = 75537069
REMARK  4 active torsions:
REMARK  status: ('A' for Active; 'I' for Inactive)
REMARK    1  A    between atoms: N_3  and  C_12
REMARK    2  A    between atoms: N_4  and  C_13
REMARK    3  A    between atoms: C_12  and  C_14
REMARK    4  A    between atoms: C_13  and  C_15
REMARK                            x       y       z     vdW  Elec       q    Type
REMARK                         _______ _______ _______ _____ _____    ______ ____
ROOT
ATOM      1  O   UNL     1       2.493   1.869  24.056  0.00  0.00    -0.252 OA
ATOM      2  N   UNL     1       0.157   1.719  23.856  0.00  0.00    -0.278 N 
ATOM      3  N   UNL     1      -2.533   1.463  24.637  0.00  0.00    -0.295 NA
ATOM      4  N   UNL     1       1.425   0.542  22.424  0.00  0.00    -0.278 N 
ATOM      6  C   UNL     1      -0.790   1.132  22.931  0.00  0.00    +0.109 C 
ATOM      7  C   UNL     1      -1.949   0.490  23.693  0.00  0.00    +0.109 C 
ATOM      8  C   UNL     1       0.059   0.160  22.114  0.00  0.00    +0.133 C 
ATOM      9  C   UNL     1      -0.328   2.576  24.919  0.00  0.00    +0.125 C 
ATOM     10  C   UNL     1      -1.524   1.921  25.614  0.00  0.00    +0.104 C 
ATOM     11  C   UNL     1       1.486   1.436  23.512  0.00  0.00    +0.306 C 
ENDROOT
BRANCH   3  12
ATOM     12  C   UNL     1      -3.681   0.878  25.327  0.00  0.00    +0.119 C 
BRANCH  12  14
ATOM     14  C   UNL     1      -3.771  -0.608  25.105  0.00  0.00    -0.033 A 
ATOM     16  C   UNL     1      -3.182  -1.487  26.012  0.00  0.00    +0.005 A 
ATOM     17  C   UNL     1      -4.446  -1.106  23.990  0.00  0.00    +0.005 A 
ATOM     19  C   UNL     1      -3.265  -2.864  25.806  0.00  0.00    +0.000 A 
ATOM     20  C   UNL     1      -4.530  -2.483  23.783  0.00  0.00    +0.000 A 
ATOM     22  C   UNL     1      -3.940  -3.362  24.691  0.00  0.00    +0.000 A 
ENDBRANCH  12  14
ENDBRANCH   3  12
BRANCH   4  13
ATOM     13  C   UNL     1       2.559  -0.066  21.765  0.00  0.00    +0.164 C 
BRANCH  13  15
ATOM      5  N   UNL     1       3.744  -1.401  23.418  0.00  0.00    -0.258 NA
ATOM     15  C   UNL     1       3.720  -0.252  22.706  0.00  0.00    +0.059 A 
ATOM     18  C   UNL     1       4.685   0.737  22.795  0.00  0.00    +0.025 A 
ATOM     21  C   UNL     1       5.745   0.533  23.673  0.00  0.00    +0.003 A 
ATOM     23  C   UNL     1       4.789  -1.563  24.262  0.00  0.00    +0.111 A 
ATOM     24  C   UNL     1       5.806  -0.636  24.423  0.00  0.00    +0.020 A 
ENDBRANCH  13  15
ENDBRANCH   4  13
TORSDOF 4
ENDMDL
MODEL 8
REMARK VINA RESULT:       1.0      1.986      3.358
REMARK  Name = 75537069
REMARK  4 active torsions:
REMARK  status: ('A' for Active; 'I' for Inactive)
REMARK    1  A    between atoms: N_3  and  C_12
REMARK    2  A    between atoms: N_4  and  C_13
REMARK    3  A    between atoms: C_12  and  C_14
REMARK    4  A    between atoms: C_13  and  C_15
REMARK                            x       y       z     vdW  Elec       q    Type
REMARK                         _______ _______ _______ _____ _____    ______ ____
ROOT
ATOM      1  O   UNL     1      -1.523  -3.292  23.484  0.00  0.00    -0.252 OA
ATOM      2  N   UNL     1      -2.765  -1.706  24.694  0.00  0.00    -0.278 N 
ATOM      3  N   UNL     1      -4.636   0.332  25.198  0.00  0.00    -0.295 NA
ATOM      4  N   UNL     1      -0.558  -1.851  25.082  0.00  0.00    -0.278 N 
ATOM      6  C   UNL     1      -2.529  -0.793  25.793  0.00  0.00    +0.109 C 
ATOM      7  C   UNL     1      -3.212   0.548  25.526  0.00  0.00    +0.109 C 
ATOM      8  C   UNL     1      -1.006  -0.731  25.891  0.00  0.00    +0.133 C 
ATOM      9  C   UNL     1      -4.113  -1.880  24.192  0.00  0.00    +0.125 C 
ATOM     10  C   UNL     1      -4.778  -0.516  23.997  0.00  0.00    +0.104 C 
ATOM     11  C   UNL     1      -1.606  -2.400  24.317  0.00  0.00    +0.306 C 
ENDROOT
BRANCH   3  12
ATOM     12  C   UNL     1      -5.312   1.613  25.001  0.00  0.00    +0.119 C 
BRANCH  12  14
ATOM     14  C   UNL     1      -4.347   2.768  25.029  0.00  0.00    -0.033 A 
ATOM     16  C   UNL     1      -3.715   3.180  23.856  0.00  0.00    +0.005 A 
ATOM     17  C   UNL     1      -4.084   3.427  26.231  0.00  0.00    +0.005 A 
ATOM     19  C   UNL     1      -2.820   4.249  23.884  0.00  0.00    +0.000 A 
ATOM     20  C   UNL     1      -3.190   4.497  26.259  0.00  0.00    +0.000 A 
ATOM     22  C   UNL     1      -2.558   4.908  25.085  0.00  0.00    +0.000 A 
ENDBRANCH  12  14
ENDBRANCH   3  12
BRANCH   4  13
ATOM     13  C   UNL     1       0.837  -2.222  24.993  0.00  0.00    +0.164 C 
BRANCH  13  15
ATOM      5  N   UNL     1       2.942  -1.485  24.020  0.00  0.00    -0.258 NA
ATOM     15  C   UNL     1       1.603  -1.306  24.076  0.00  0.00    +0.059 A 
ATOM     18  C   UNL     1       0.918  -0.347  23.349  0.00  0.00    +0.025 A 
ATOM     21  C   UNL     1       1.655   0.482  22.510  0.00  0.00    +0.003 A 
ATOM     23  C   UNL     1       3.625  -0.660  23.194  0.00  0.00    +0.111 A 
ATOM     24  C   UNL     1       3.034   0.329  22.425  0.00  0.00    +0.020 A 
ENDBRANCH  13  15
ENDBRANCH   4  13
TORSDOF 4
ENDMDL
MODEL 9
REMARK VINA RESULT:       1.5      2.631      7.844
REMARK  Name = 75537069
REMARK  4 active torsions:
REMARK  status: ('A' for Active; 'I' for Inactive)
REMARK    1  A    between atoms: N_3  and  C_12
REMARK    2  A    between atoms: N_4  and  C_13
REMARK    3  A    between atoms: C_12  and  C_14
REMARK    4  A    between atoms: C_13  and  C_15
REMARK                            x       y       z     vdW  Elec       q    Type
REMARK                         _______ _______ _______ _____ _____    ______ ____
ROOT
ATOM      1  O   UNL     1      -3.155   3.284  24.892  0.00  0.00    -0.252 OA
ATOM      2  N   UNL     1      -0.966   2.444  24.732  0.00  0.00    -0.278 N 
ATOM      3  N   UNL     1       1.635   2.070  23.730  0.00  0.00    -0.295 NA
ATOM      4  N   UNL     1      -2.629   1.001  25.173  0.00  0.00    -0.278 N 
ATOM      6  C   UNL     1      -0.299   1.181  24.967  0.00  0.00    +0.109 C 
ATOM      7  C   UNL     1       0.730   0.911  23.869  0.00  0.00    +0.109 C 
ATOM      8  C   UNL     1      -1.444   0.173  25.036  0.00  0.00    +0.133 C 
ATOM      9  C   UNL     1      -0.175   3.621  24.437  0.00  0.00    +0.125 C 
ATOM     10  C   UNL     1       0.879   3.289  23.378  0.00  0.00    +0.104 C 
ATOM     11  C   UNL     1      -2.351   2.361  24.931  0.00  0.00    +0.306 C 
ENDROOT
BRANCH   3  12
ATOM     12  C   UNL     1       2.660   1.797  22.724  0.00  0.00    +0.119 C 
BRANCH  12  14
ATOM     14  C   UNL     1       3.620   0.730  23.176  0.00  0.00    -0.033 A 
ATOM     16  C   UNL     1       4.946   1.057  23.459  0.00  0.00    +0.005 A 
ATOM     17  C   UNL     1       3.183  -0.588  23.313  0.00  0.00    +0.005 A 
ATOM     19  C   UNL     1       5.836   0.067  23.877  0.00  0.00    +0.000 A 
ATOM     20  C   UNL     1       4.072  -1.578  23.733  0.00  0.00    +0.000 A 
ATOM     22  C   UNL     1       5.398  -1.251  24.015  0.00  0.00    +0.000 A 
ENDBRANCH  12  14
ENDBRANCH   3  12
BRANCH   4  13
ATOM     13  C   UNL     1      -3.942   0.431  25.383  0.00  0.00    +0.164 C 
BRANCH  13  15
ATOM      5  N   UNL     1      -4.702  -1.240  23.786  0.00  0.00    -0.258 NA
ATOM     15  C   UNL     1      -4.012  -1.001  24.924  0.00  0.00    +0.059 A 
ATOM     18  C   UNL     1      -3.380  -1.983  25.670  0.00  0.00    +0.025 A 
ATOM     21  C   UNL     1      -3.462  -3.296  25.218  0.00  0.00    +0.003 A 
ATOM     23  C   UNL     1      -4.760  -2.529  23.379  0.00  0.00    +0.111 A 
ATOM     24  C   UNL     1      -4.163  -3.582  24.051  0.00  0.00    +0.020 A 
ENDBRANCH  13  15
ENDBRANCH   4  13
TORSDOF 4
ENDMDL
MODEL 10
REMARK VINA RESULT:       1.7      2.725      7.120
REMARK  Name = 75537069
REMARK  4 active torsions:
REMARK  status: ('A' for Active; 'I' for Inactive)
REMARK    1  A    between atoms: N_3  and  C_12
REMARK    2  A    between atoms: N_4  and  C_13
REMARK    3  A    between atoms: C_12  and  C_14
REMARK    4  A    between atoms: C_13  and  C_15
REMARK                            x       y       z     vdW  Elec       q    Type
REMARK                         _______ _______ _______ _____ _____    ______ ____
ROOT
ATOM      1  O   UNL     1      -0.241   3.905  23.294  0.00  0.00    -0.252 OA
ATOM      2  N   UNL     1      -0.004   1.891  24.482  0.00  0.00    -0.278 N 
ATOM      3  N   UNL     1       0.190  -0.876  24.944  0.00  0.00    -0.295 NA
ATOM      4  N   UNL     1      -1.377   3.462  25.314  0.00  0.00    -0.278 N 
ATOM      6  C   UNL     1      -0.429   1.362  25.761  0.00  0.00    +0.109 C 
ATOM      7  C   UNL     1      -0.869  -0.095  25.614  0.00  0.00    +0.109 C 
ATOM      8  C   UNL     1      -1.529   2.324  26.203  0.00  0.00    +0.133 C 
ATOM      9  C   UNL     1       0.924   1.130  23.671  0.00  0.00    +0.125 C 
ATOM     10  C   UNL     1       0.477  -0.332  23.601  0.00  0.00    +0.104 C 
ATOM     11  C   UNL     1      -0.504   3.179  24.244  0.00  0.00    +0.306 C 
ENDROOT
BRANCH   3  12
ATOM     12  C   UNL     1      -0.196  -2.283  24.853  0.00  0.00    +0.119 C 
BRANCH  12  14
ATOM     14  C   UNL     1      -1.666  -2.444  24.569  0.00  0.00    -0.033 A 
ATOM     16  C   UNL     1      -2.592  -1.598  25.177  0.00  0.00    +0.005 A 
ATOM     17  C   UNL     1      -2.101  -3.443  23.697  0.00  0.00    +0.005 A 
ATOM     19  C   UNL     1      -3.953  -1.748  24.915  0.00  0.00    +0.000 A 
ATOM     20  C   UNL     1      -3.463  -3.593  23.433  0.00  0.00    +0.000 A 
ATOM     22  C   UNL     1      -4.389  -2.746  24.042  0.00  0.00    +0.000 A 
ENDBRANCH  12  14
ENDBRANCH   3  12
BRANCH   4  13
ATOM     13  C   UNL     1      -2.166   4.665  25.466  0.00  0.00    +0.164 C 
BRANCH  13  15
ATOM      5  N   UNL     1      -4.463   5.386  25.814  0.00  0.00    -0.258 NA
ATOM     15  C   UNL     1      -3.643   4.370  25.464  0.00  0.00    +0.059 A 
ATOM     18  C   UNL     1      -4.081   3.104  25.112  0.00  0.00    +0.025 A 
ATOM     21  C   UNL     1      -5.451   2.865  25.119  0.00  0.00    +0.003 A 
ATOM     23  C   UNL     1      -5.788   5.115  25.810  0.00  0.00    +0.111 A 
ATOM     24  C   UNL     1      -6.328   3.885  25.473  0.00  0.00    +0.020 A 
ENDBRANCH  13  15
ENDBRANCH   4  13
TORSDOF 4
ENDMDL
