MODEL 1
REMARK VINA RESULT:      -5.0      0.000      0.000
REMARK  Name = 38027524
REMARK  14 active torsions:
REMARK  status: ('A' for Active; 'I' for Inactive)
REMARK    1  A    between atoms: S_1  and  N_6
REMARK    2  A    between atoms: S_1  and  C_21
REMARK    3  A    between atoms: N_6  and  C_15
REMARK    4  A    between atoms: N_7  and  C_23
REMARK    5  A    between atoms: C_8  and  C_12
REMARK    6  A    between atoms: C_9  and  C_15
REMARK    7  A    between atoms: C_11  and  C_16
REMARK    8  A    between atoms: C_12  and  C_17
REMARK    9  A    between atoms: C_12  and  C_18
REMARK   10  A    between atoms: C_13  and  C_19
REMARK   11  A    between atoms: C_16  and  C_20
REMARK   12  A    between atoms: C_21  and  C_22
REMARK   13  A    between atoms: C_22  and  C_24
REMARK   14  A    between atoms: C_23  and  C_25
REMARK                            x       y       z     vdW  Elec       q    Type
REMARK                         _______ _______ _______ _____ _____    ______ ____
ROOT
ATOM      8  C   UNL     1      -1.652   0.556  24.904  0.00  0.00    +0.000 C 
ATOM      9  C   UNL     1      -0.656  -0.598  24.626  0.00  0.00    +0.030 C 
ATOM     10  C   UNL     1      -2.723   0.109  25.910  0.00  0.00    +0.012 C 
ATOM     11  C   UNL     1      -3.518  -1.112  25.410  0.00  0.00    +0.023 C 
ATOM     13  C   UNL     1      -2.607  -2.193  24.867  0.00  0.00    -0.073 C 
ATOM     14  C   UNL     1      -1.327  -1.948  24.535  0.00  0.00    -0.023 C 
ATOM     19  C   UNL     1      -3.187  -3.576  24.757  0.00  0.00    +0.039 C 
ENDROOT
BRANCH   8  12
ATOM     12  C   UNL     1      -0.940   1.808  25.427  0.00  0.00    -0.013 C 
ATOM     17  C   UNL     1      -0.069   2.420  24.333  0.00  0.00    +0.007 C 
ATOM     18  C   UNL     1      -0.107   1.472  26.658  0.00  0.00    +0.007 C 
ENDBRANCH   8  12
BRANCH   9  15
ATOM     15  C   UNL     1       0.147  -0.339  23.346  0.00  0.00    +0.113 C 
BRANCH  15   6
ATOM      6  N   UNL     1       1.530  -0.639  23.545  0.00  0.00    -0.194 NA
ATOM     31  H   UNL     1       1.794  -0.826  24.520  0.00  0.00    +0.148 HD
BRANCH   6   1
ATOM      1  S   UNL     1       2.744   0.157  22.605  0.00  0.00    +0.029 S 
ATOM      4  O   UNL     1       2.909   1.510  23.099  0.00  0.00    -0.158 OA
ATOM      5  O   UNL     1       2.517  -0.095  21.195  0.00  0.00    -0.158 OA
BRANCH   1  21
ATOM     21  C   UNL     1       4.175  -0.781  23.088  0.00  0.00    +0.185 C 
BRANCH  21  22
ATOM     22  C   UNL     1       5.414   0.097  23.161  0.00  0.00    +0.021 C 
ATOM     24  C   UNL     1       5.793   0.404  24.600  0.00  0.00    +0.005 C 
ENDBRANCH  21  22
ENDBRANCH   1  21
ENDBRANCH   6   1
ENDBRANCH  15   6
ENDBRANCH   9  15
BRANCH  11  16
ATOM     16  C   UNL     1      -4.564  -0.700  24.367  0.00  0.00    +0.103 C 
BRANCH  16  20
ATOM      3  O   UNL     1      -4.057   1.419  23.315  0.00  0.00    -0.276 OA
ATOM      7  N   UNL     1      -5.449   1.368  25.176  0.00  0.00    -0.311 N 
ATOM     20  C   UNL     1      -4.641   0.801  24.201  0.00  0.00    +0.214 C 
ATOM     32  H   UNL     1      -5.898   0.772  25.864  0.00  0.00    +0.149 HD
BRANCH   7  23
ATOM     23  C   UNL     1      -5.702   2.787  25.262  0.00  0.00    +0.139 C 
BRANCH  23  25
ATOM      2  F   UNL     1      -0.937   5.788  25.236  0.00  0.00    -0.205 F 
ATOM     25  C   UNL     1      -4.432   3.587  25.255  0.00  0.00    -0.030 A 
ATOM     26  C   UNL     1      -3.957   4.134  24.062  0.00  0.00    +0.008 A 
ATOM     27  C   UNL     1      -3.724   3.784  26.441  0.00  0.00    +0.008 A 
ATOM     28  C   UNL     1      -2.777   4.876  24.055  0.00  0.00    +0.038 A 
ATOM     29  C   UNL     1      -2.544   4.526  26.434  0.00  0.00    +0.038 A 
ATOM     30  C   UNL     1      -2.070   5.073  25.242  0.00  0.00    +0.123 A 
ENDBRANCH  23  25
ENDBRANCH   7  23
ENDBRANCH  16  20
ENDBRANCH  11  16
TORSDOF 10
ENDMDL
MODEL 2
REMARK VINA RESULT:      -3.7      3.018      7.433
REMARK  Name = 38027524
REMARK  14 active torsions:
REMARK  status: ('A' for Active; 'I' for Inactive)
REMARK    1  A    between atoms: S_1  and  N_6
REMARK    2  A    between atoms: S_1  and  C_21
REMARK    3  A    between atoms: N_6  and  C_15
REMARK    4  A    between atoms: N_7  and  C_23
REMARK    5  A    between atoms: C_8  and  C_12
REMARK    6  A    between atoms: C_9  and  C_15
REMARK    7  A    between atoms: C_11  and  C_16
REMARK    8  A    between atoms: C_12  and  C_17
REMARK    9  A    between atoms: C_12  and  C_18
REMARK   10  A    between atoms: C_13  and  C_19
REMARK   11  A    between atoms: C_16  and  C_20
REMARK   12  A    between atoms: C_21  and  C_22
REMARK   13  A    between atoms: C_22  and  C_24
REMARK   14  A    between atoms: C_23  and  C_25
REMARK                            x       y       z     vdW  Elec       q    Type
REMARK                         _______ _______ _______ _____ _____    ______ ____
ROOT
ATOM      8  C   UNL     1      -2.307   3.660  25.119  0.00  0.00    +0.000 C 
ATOM      9  C   UNL     1      -3.464   3.864  24.110  0.00  0.00    +0.030 C 
ATOM     10  C   UNL     1      -1.023   3.240  24.387  0.00  0.00    +0.012 C 
ATOM     11  C   UNL     1      -1.210   1.937  23.588  0.00  0.00    +0.023 C 
ATOM     13  C   UNL     1      -2.482   1.955  22.767  0.00  0.00    -0.073 C 
ATOM     14  C   UNL     1      -3.473   2.833  23.006  0.00  0.00    -0.023 C 
ATOM     19  C   UNL     1      -2.572   0.972  21.633  0.00  0.00    +0.039 C 
ENDROOT
BRANCH   8  12
ATOM     12  C   UNL     1      -2.043   4.924  25.945  0.00  0.00    -0.013 C 
ATOM     17  C   UNL     1      -3.247   5.246  26.825  0.00  0.00    +0.007 C 
ATOM     18  C   UNL     1      -1.712   6.098  25.030  0.00  0.00    +0.007 C 
ENDBRANCH   8  12
BRANCH   9  15
ATOM     15  C   UNL     1      -4.823   3.864  24.820  0.00  0.00    +0.113 C 
BRANCH  15   6
ATOM      6  N   UNL     1      -4.858   2.874  25.850  0.00  0.00    -0.194 NA
ATOM     31  H   UNL     1      -3.966   2.730  26.339  0.00  0.00    +0.148 HD
BRANCH   6   1
ATOM      1  S   UNL     1      -5.820   1.449  25.664  0.00  0.00    +0.029 S 
ATOM      4  O   UNL     1      -6.539   1.527  24.408  0.00  0.00    -0.158 OA
ATOM      5  O   UNL     1      -6.519   1.164  26.902  0.00  0.00    -0.158 OA
BRANCH   1  21
ATOM     21  C   UNL     1      -4.538   0.230  25.486  0.00  0.00    +0.185 C 
BRANCH  21  22
ATOM     22  C   UNL     1      -4.694  -0.553  24.192  0.00  0.00    +0.021 C 
ATOM     24  C   UNL     1      -3.826  -1.801  24.190  0.00  0.00    +0.005 C 
ENDBRANCH  21  22
ENDBRANCH   1  21
ENDBRANCH   6   1
ENDBRANCH  15   6
ENDBRANCH   9  15
BRANCH  11  16
ATOM     16  C   UNL     1      -1.170   0.713  24.512  0.00  0.00    +0.103 C 
BRANCH  16  20
ATOM      3  O   UNL     1      -0.182  -1.495  24.453  0.00  0.00    -0.276 OA
ATOM      7  N   UNL     1       0.559   0.131  22.967  0.00  0.00    -0.311 N 
ATOM     20  C   UNL     1      -0.229  -0.354  24.000  0.00  0.00    +0.214 C 
ATOM     32  H   UNL     1       0.441   1.090  22.654  0.00  0.00    +0.149 HD
BRANCH   7  23
ATOM     23  C   UNL     1       1.551  -0.670  22.288  0.00  0.00    +0.139 C 
BRANCH  23  25
ATOM      2  F   UNL     1       6.743   0.299  24.241  0.00  0.00    -0.205 F 
ATOM     25  C   UNL     1       2.935  -0.411  22.809  0.00  0.00    -0.030 A 
ATOM     26  C   UNL     1       3.616  -1.409  23.507  0.00  0.00    +0.008 A 
ATOM     27  C   UNL     1       3.541   0.827  22.595  0.00  0.00    +0.008 A 
ATOM     28  C   UNL     1       4.901  -1.170  23.992  0.00  0.00    +0.038 A 
ATOM     29  C   UNL     1       4.827   1.067  23.079  0.00  0.00    +0.038 A 
ATOM     30  C   UNL     1       5.507   0.069  23.777  0.00  0.00    +0.123 A 
ENDBRANCH  23  25
ENDBRANCH   7  23
ENDBRANCH  16  20
ENDBRANCH  11  16
TORSDOF 10
ENDMDL
MODEL 3
REMARK VINA RESULT:      -3.6      1.524      3.160
REMARK  Name = 38027524
REMARK  14 active torsions:
REMARK  status: ('A' for Active; 'I' for Inactive)
REMARK    1  A    between atoms: S_1  and  N_6
REMARK    2  A    between atoms: S_1  and  C_21
REMARK    3  A    between atoms: N_6  and  C_15
REMARK    4  A    between atoms: N_7  and  C_23
REMARK    5  A    between atoms: C_8  and  C_12
REMARK    6  A    between atoms: C_9  and  C_15
REMARK    7  A    between atoms: C_11  and  C_16
REMARK    8  A    between atoms: C_12  and  C_17
REMARK    9  A    between atoms: C_12  and  C_18
REMARK   10  A    between atoms: C_13  and  C_19
REMARK   11  A    between atoms: C_16  and  C_20
REMARK   12  A    between atoms: C_21  and  C_22
REMARK   13  A    between atoms: C_22  and  C_24
REMARK   14  A    between atoms: C_23  and  C_25
REMARK                            x       y       z     vdW  Elec       q    Type
REMARK                         _______ _______ _______ _____ _____    ______ ____
ROOT
ATOM      8  C   UNL     1      -3.129  -0.962  24.904  0.00  0.00    +0.000 C 
ATOM      9  C   UNL     1      -2.002  -0.201  24.161  0.00  0.00    +0.030 C 
ATOM     10  C   UNL     1      -4.474  -0.758  24.191  0.00  0.00    +0.012 C 
ATOM     11  C   UNL     1      -4.866   0.728  24.101  0.00  0.00    +0.023 C 
ATOM     13  C   UNL     1      -3.712   1.588  23.627  0.00  0.00    -0.073 C 
ATOM     14  C   UNL     1      -2.441   1.151  23.648  0.00  0.00    -0.023 C 
ATOM     19  C   UNL     1      -4.058   2.946  23.083  0.00  0.00    +0.039 C 
ENDROOT
BRANCH   8  12
ATOM     12  C   UNL     1      -2.824  -2.459  25.019  0.00  0.00    -0.013 C 
ATOM     17  C   UNL     1      -1.535  -2.798  24.275  0.00  0.00    +0.007 C 
ATOM     18  C   UNL     1      -3.990  -3.282  24.485  0.00  0.00    +0.007 C 
ENDBRANCH   8  12
BRANCH   9  15
ATOM     15  C   UNL     1      -0.767  -0.033  25.054  0.00  0.00    +0.113 C 
BRANCH  15   6
ATOM      6  N   UNL     1       0.387  -0.611  24.438  0.00  0.00    -0.194 NA
ATOM     31  H   UNL     1       1.003  -1.127  25.078  0.00  0.00    +0.148 HD
BRANCH   6   1
ATOM      1  S   UNL     1       1.201   0.213  23.154  0.00  0.00    +0.029 S 
ATOM      4  O   UNL     1       1.303   1.620  23.488  0.00  0.00    -0.158 OA
ATOM      5  O   UNL     1       0.656  -0.208  21.878  0.00  0.00    -0.158 OA
BRANCH   1  21
ATOM     21  C   UNL     1       2.821  -0.504  23.303  0.00  0.00    +0.185 C 
BRANCH  21  22
ATOM     22  C   UNL     1       3.903   0.487  22.909  0.00  0.00    +0.021 C 
ATOM     24  C   UNL     1       5.250   0.103  23.500  0.00  0.00    +0.005 C 
ENDBRANCH  21  22
ENDBRANCH   1  21
ENDBRANCH   6   1
ENDBRANCH  15   6
ENDBRANCH   9  15
BRANCH  11  16
ATOM     16  C   UNL     1      -5.415   1.236  25.439  0.00  0.00    +0.103 C 
BRANCH  16  20
ATOM      3  O   UNL     1      -5.650   3.645  25.425  0.00  0.00    -0.276 OA
ATOM      7  N   UNL     1      -3.755   2.684  26.368  0.00  0.00    -0.311 N 
ATOM     20  C   UNL     1      -4.985   2.657  25.727  0.00  0.00    +0.214 C 
ATOM     32  H   UNL     1      -3.283   1.812  26.585  0.00  0.00    +0.149 HD
BRANCH   7  23
ATOM     23  C   UNL     1      -3.098   3.908  26.763  0.00  0.00    +0.139 C 
BRANCH  23  25
ATOM      2  F   UNL     1       0.803   5.509  23.030  0.00  0.00    -0.205 F 
ATOM     25  C   UNL     1      -2.058   4.335  25.767  0.00  0.00    -0.030 A 
ATOM     26  C   UNL     1      -2.121   5.606  25.194  0.00  0.00    +0.008 A 
ATOM     27  C   UNL     1      -1.029   3.462  25.415  0.00  0.00    +0.008 A 
ATOM     28  C   UNL     1      -1.156   6.002  24.269  0.00  0.00    +0.038 A 
ATOM     29  C   UNL     1      -0.064   3.858  24.491  0.00  0.00    +0.038 A 
ATOM     30  C   UNL     1      -0.126   5.128  23.918  0.00  0.00    +0.123 A 
ENDBRANCH  23  25
ENDBRANCH   7  23
ENDBRANCH  16  20
ENDBRANCH  11  16
TORSDOF 10
ENDMDL
MODEL 4
REMARK VINA RESULT:      -3.4      2.427      4.885
REMARK  Name = 38027524
REMARK  14 active torsions:
REMARK  status: ('A' for Active; 'I' for Inactive)
REMARK    1  A    between atoms: S_1  and  N_6
REMARK    2  A    between atoms: S_1  and  C_21
REMARK    3  A    between atoms: N_6  and  C_15
REMARK    4  A    between atoms: N_7  and  C_23
REMARK    5  A    between atoms: C_8  and  C_12
REMARK    6  A    between atoms: C_9  and  C_15
REMARK    7  A    between atoms: C_11  and  C_16
REMARK    8  A    between atoms: C_12  and  C_17
REMARK    9  A    between atoms: C_12  and  C_18
REMARK   10  A    between atoms: C_13  and  C_19
REMARK   11  A    between atoms: C_16  and  C_20
REMARK   12  A    between atoms: C_21  and  C_22
REMARK   13  A    between atoms: C_22  and  C_24
REMARK   14  A    between atoms: C_23  and  C_25
REMARK                            x       y       z     vdW  Elec       q    Type
REMARK                         _______ _______ _______ _____ _____    ______ ____
ROOT
ATOM      8  C   UNL     1      -1.913   2.075  23.862  0.00  0.00    +0.000 C 
ATOM      9  C   UNL     1      -0.448   2.545  23.677  0.00  0.00    +0.030 C 
ATOM     10  C   UNL     1      -2.886   3.230  23.586  0.00  0.00    +0.012 C 
ATOM     11  C   UNL     1      -2.639   4.433  24.515  0.00  0.00    +0.023 C 
ATOM     13  C   UNL     1      -1.170   4.792  24.595  0.00  0.00    -0.073 C 
ATOM     14  C   UNL     1      -0.205   3.940  24.203  0.00  0.00    -0.023 C 
ATOM     19  C   UNL     1      -0.834   6.170  25.092  0.00  0.00    +0.039 C 
ENDROOT
BRANCH   8  12
ATOM     12  C   UNL     1      -2.248   0.886  22.954  0.00  0.00    -0.013 C 
ATOM     17  C   UNL     1      -1.257  -0.252  23.181  0.00  0.00    +0.007 C 
ATOM     18  C   UNL     1      -2.251   1.318  21.492  0.00  0.00    +0.007 C 
ENDBRANCH   8  12
BRANCH   9  15
ATOM     15  C   UNL     1       0.533   1.571  24.340  0.00  0.00    +0.113 C 
BRANCH  15   6
ATOM      6  N   UNL     1       1.775   1.542  23.632  0.00  0.00    -0.194 NA
ATOM     31  H   UNL     1       2.018   2.417  23.153  0.00  0.00    +0.148 HD
BRANCH   6   1
ATOM      1  S   UNL     1       2.286   0.104  22.818  0.00  0.00    +0.029 S 
ATOM      4  O   UNL     1       1.517  -0.046  21.599  0.00  0.00    -0.158 OA
ATOM      5  O   UNL     1       2.389  -0.987  23.769  0.00  0.00    -0.158 OA
BRANCH   1  21
ATOM     21  C   UNL     1       3.940   0.574  22.368  0.00  0.00    +0.185 C 
BRANCH  21  22
ATOM     22  C   UNL     1       4.828   0.717  23.593  0.00  0.00    +0.021 C 
ATOM     24  C   UNL     1       5.620  -0.553  23.857  0.00  0.00    +0.005 C 
ENDBRANCH  21  22
ENDBRANCH   1  21
ENDBRANCH   6   1
ENDBRANCH  15   6
ENDBRANCH   9  15
BRANCH  11  16
ATOM     16  C   UNL     1      -3.220   4.182  25.911  0.00  0.00    +0.103 C 
BRANCH  16  20
ATOM      3  O   UNL     1      -5.602   3.763  25.961  0.00  0.00    -0.276 OA
ATOM      7  N   UNL     1      -4.131   1.982  25.701  0.00  0.00    -0.311 N 
ATOM     20  C   UNL     1      -4.461   3.319  25.864  0.00  0.00    +0.214 C 
ATOM     32  H   UNL     1      -3.156   1.712  25.622  0.00  0.00    +0.149 HD
BRANCH   7  23
ATOM     23  C   UNL     1      -5.118   0.930  25.624  0.00  0.00    +0.139 C 
BRANCH  23  25
ATOM      2  F   UNL     1      -2.852  -3.975  24.036  0.00  0.00    -0.205 F 
ATOM     25  C   UNL     1      -4.514  -0.378  25.200  0.00  0.00    -0.030 A 
ATOM     26  C   UNL     1      -4.878  -0.953  23.982  0.00  0.00    +0.008 A 
ATOM     27  C   UNL     1      -3.589  -1.019  26.025  0.00  0.00    +0.008 A 
ATOM     28  C   UNL     1      -4.318  -2.168  23.589  0.00  0.00    +0.038 A 
ATOM     29  C   UNL     1      -3.028  -2.233  25.631  0.00  0.00    +0.038 A 
ATOM     30  C   UNL     1      -3.392  -2.808  24.414  0.00  0.00    +0.123 A 
ENDBRANCH  23  25
ENDBRANCH   7  23
ENDBRANCH  16  20
ENDBRANCH  11  16
TORSDOF 10
ENDMDL
MODEL 5
REMARK VINA RESULT:      -3.4      3.068      6.871
REMARK  Name = 38027524
REMARK  14 active torsions:
REMARK  status: ('A' for Active; 'I' for Inactive)
REMARK    1  A    between atoms: S_1  and  N_6
REMARK    2  A    between atoms: S_1  and  C_21
REMARK    3  A    between atoms: N_6  and  C_15
REMARK    4  A    between atoms: N_7  and  C_23
REMARK    5  A    between atoms: C_8  and  C_12
REMARK    6  A    between atoms: C_9  and  C_15
REMARK    7  A    between atoms: C_11  and  C_16
REMARK    8  A    between atoms: C_12  and  C_17
REMARK    9  A    between atoms: C_12  and  C_18
REMARK   10  A    between atoms: C_13  and  C_19
REMARK   11  A    between atoms: C_16  and  C_20
REMARK   12  A    between atoms: C_21  and  C_22
REMARK   13  A    between atoms: C_22  and  C_24
REMARK   14  A    between atoms: C_23  and  C_25
REMARK                            x       y       z     vdW  Elec       q    Type
REMARK                         _______ _______ _______ _____ _____    ______ ____
ROOT
ATOM      8  C   UNL     1      -3.335   1.453  23.634  0.00  0.00    +0.000 C 
ATOM      9  C   UNL     1      -4.628   0.993  24.352  0.00  0.00    +0.030 C 
ATOM     10  C   UNL     1      -2.482   0.240  23.234  0.00  0.00    +0.012 C 
ATOM     11  C   UNL     1      -2.086  -0.618  24.450  0.00  0.00    +0.023 C 
ATOM     13  C   UNL     1      -3.268  -0.892  25.357  0.00  0.00    -0.073 C 
ATOM     14  C   UNL     1      -4.401  -0.170  25.289  0.00  0.00    -0.023 C 
ATOM     19  C   UNL     1      -3.137  -2.044  26.313  0.00  0.00    +0.039 C 
ENDROOT
BRANCH   8  12
ATOM     12  C   UNL     1      -3.643   2.301  22.395  0.00  0.00    -0.013 C 
ATOM     17  C   UNL     1      -2.483   2.238  21.406  0.00  0.00    +0.007 C 
ATOM     18  C   UNL     1      -3.936   3.742  22.795  0.00  0.00    +0.007 C 
ENDBRANCH   8  12
BRANCH   9  15
ATOM     15  C   UNL     1      -5.276   2.151  25.121  0.00  0.00    +0.113 C 
BRANCH  15   6
ATOM      6  N   UNL     1      -4.519   2.468  26.291  0.00  0.00    -0.194 NA
ATOM     31  H   UNL     1      -4.890   2.074  27.164  0.00  0.00    +0.148 HD
BRANCH   6   1
ATOM      1  S   UNL     1      -3.771   4.019  26.457  0.00  0.00    +0.029 S 
ATOM      4  O   UNL     1      -3.572   4.298  27.865  0.00  0.00    -0.158 OA
ATOM      5  O   UNL     1      -4.439   4.979  25.598  0.00  0.00    -0.158 OA
BRANCH   1  21
ATOM     21  C   UNL     1      -2.183   3.677  25.736  0.00  0.00    +0.185 C 
BRANCH  21  22
ATOM     22  C   UNL     1      -1.487   4.954  25.297  0.00  0.00    +0.021 C 
ATOM     24  C   UNL     1      -0.476   4.686  24.194  0.00  0.00    +0.005 C 
ENDBRANCH  21  22
ENDBRANCH   1  21
ENDBRANCH   6   1
ENDBRANCH  15   6
ENDBRANCH   9  15
BRANCH  11  16
ATOM     16  C   UNL     1      -0.934   0.027  25.230  0.00  0.00    +0.103 C 
BRANCH  16  20
ATOM      3  O   UNL     1       0.542   1.764  24.418  0.00  0.00    -0.276 OA
ATOM      7  N   UNL     1       0.507  -0.300  23.351  0.00  0.00    -0.311 N 
ATOM     20  C   UNL     1       0.112   0.619  24.312  0.00  0.00    +0.214 C 
ATOM     32  H   UNL     1       0.099  -1.230  23.348  0.00  0.00    +0.149 HD
BRANCH   7  23
ATOM     23  C   UNL     1       1.495  -0.008  22.339  0.00  0.00    +0.139 C 
BRANCH  23  25
ATOM      2  F   UNL     1       6.745  -0.406  24.336  0.00  0.00    -0.205 F 
ATOM     25  C   UNL     1       2.894  -0.114  22.871  0.00  0.00    -0.030 A 
ATOM     26  C   UNL     1       3.323  -1.295  23.478  0.00  0.00    +0.008 A 
ATOM     27  C   UNL     1       3.768   0.969  22.760  0.00  0.00    +0.008 A 
ATOM     28  C   UNL     1       4.622  -1.394  23.974  0.00  0.00    +0.038 A 
ATOM     29  C   UNL     1       5.067   0.870  23.255  0.00  0.00    +0.038 A 
ATOM     30  C   UNL     1       5.495  -0.311  23.861  0.00  0.00    +0.123 A 
ENDBRANCH  23  25
ENDBRANCH   7  23
ENDBRANCH  16  20
ENDBRANCH  11  16
TORSDOF 10
ENDMDL
MODEL 6
REMARK VINA RESULT:      -3.1      2.965      6.596
REMARK  Name = 38027524
REMARK  14 active torsions:
REMARK  status: ('A' for Active; 'I' for Inactive)
REMARK    1  A    between atoms: S_1  and  N_6
REMARK    2  A    between atoms: S_1  and  C_21
REMARK    3  A    between atoms: N_6  and  C_15
REMARK    4  A    between atoms: N_7  and  C_23
REMARK    5  A    between atoms: C_8  and  C_12
REMARK    6  A    between atoms: C_9  and  C_15
REMARK    7  A    between atoms: C_11  and  C_16
REMARK    8  A    between atoms: C_12  and  C_17
REMARK    9  A    between atoms: C_12  and  C_18
REMARK   10  A    between atoms: C_13  and  C_19
REMARK   11  A    between atoms: C_16  and  C_20
REMARK   12  A    between atoms: C_21  and  C_22
REMARK   13  A    between atoms: C_22  and  C_24
REMARK   14  A    between atoms: C_23  and  C_25
REMARK                            x       y       z     vdW  Elec       q    Type
REMARK                         _______ _______ _______ _____ _____    ______ ____
ROOT
ATOM      8  C   UNL     1      -3.939   2.600  25.227  0.00  0.00    +0.000 C 
ATOM      9  C   UNL     1      -4.511   1.451  24.360  0.00  0.00    +0.030 C 
ATOM     10  C   UNL     1      -3.391   3.724  24.335  0.00  0.00    +0.012 C 
ATOM     11  C   UNL     1      -2.282   3.228  23.389  0.00  0.00    +0.023 C 
ATOM     13  C   UNL     1      -2.670   1.940  22.693  0.00  0.00    -0.073 C 
ATOM     14  C   UNL     1      -3.677   1.166  23.133  0.00  0.00    -0.023 C 
ATOM     19  C   UNL     1      -1.902   1.583  21.450  0.00  0.00    +0.039 C 
ENDROOT
BRANCH   8  12
ATOM     12  C   UNL     1      -4.991   3.166  26.188  0.00  0.00    -0.013 C 
ATOM     17  C   UNL     1      -6.155   2.191  26.335  0.00  0.00    +0.007 C 
ATOM     18  C   UNL     1      -5.481   4.525  25.700  0.00  0.00    +0.007 C 
ENDBRANCH   8  12
BRANCH   9  15
ATOM     15  C   UNL     1      -4.670   0.165  25.181  0.00  0.00    +0.113 C 
BRANCH  15   6
ATOM      6  N   UNL     1      -3.435  -0.552  25.245  0.00  0.00    -0.194 NA
ATOM     31  H   UNL     1      -2.601   0.008  25.029  0.00  0.00    +0.148 HD
BRANCH   6   1
ATOM      1  S   UNL     1      -3.353  -2.202  24.735  0.00  0.00    +0.029 S 
ATOM      4  O   UNL     1      -4.133  -2.361  23.524  0.00  0.00    -0.158 OA
ATOM      5  O   UNL     1      -3.564  -3.078  25.873  0.00  0.00    -0.158 OA
BRANCH   1  21
ATOM     21  C   UNL     1      -1.633  -2.306  24.297  0.00  0.00    +0.185 C 
BRANCH  21  22
ATOM     22  C   UNL     1      -0.740  -1.951  25.474  0.00  0.00    +0.021 C 
ATOM     24  C   UNL     1       0.517  -2.806  25.496  0.00  0.00    +0.005 C 
ENDBRANCH  21  22
ENDBRANCH   1  21
ENDBRANCH   6   1
ENDBRANCH  15   6
ENDBRANCH   9  15
BRANCH  11  16
ATOM     16  C   UNL     1      -0.951   3.071  24.134  0.00  0.00    +0.103 C 
BRANCH  16  20
ATOM      3  O   UNL     1      -0.939   0.866  25.131  0.00  0.00    -0.276 OA
ATOM      7  N   UNL     1       0.356   1.277  23.245  0.00  0.00    -0.311 N 
ATOM     20  C   UNL     1      -0.534   1.622  24.252  0.00  0.00    +0.214 C 
ATOM     32  H   UNL     1       0.626   1.971  22.555  0.00  0.00    +0.149 HD
BRANCH   7  23
ATOM     23  C   UNL     1       0.923  -0.045  23.112  0.00  0.00    +0.139 C 
BRANCH  23  25
ATOM      2  F   UNL     1       6.549   0.041  23.324  0.00  0.00    -0.205 F 
ATOM     25  C   UNL     1       2.423  -0.022  23.169  0.00  0.00    -0.030 A 
ATOM     26  C   UNL     1       3.121  -1.138  23.633  0.00  0.00    +0.008 A 
ATOM     27  C   UNL     1       3.120   1.115  22.758  0.00  0.00    +0.008 A 
ATOM     28  C   UNL     1       4.514  -1.117  23.687  0.00  0.00    +0.038 A 
ATOM     29  C   UNL     1       4.513   1.136  22.811  0.00  0.00    +0.038 A 
ATOM     30  C   UNL     1       5.210   0.021  23.275  0.00  0.00    +0.123 A 
ENDBRANCH  23  25
ENDBRANCH   7  23
ENDBRANCH  16  20
ENDBRANCH  11  16
TORSDOF 10
ENDMDL
MODEL 7
REMARK VINA RESULT:      -1.2      2.514      4.384
REMARK  Name = 38027524
REMARK  14 active torsions:
REMARK  status: ('A' for Active; 'I' for Inactive)
REMARK    1  A    between atoms: S_1  and  N_6
REMARK    2  A    between atoms: S_1  and  C_21
REMARK    3  A    between atoms: N_6  and  C_15
REMARK    4  A    between atoms: N_7  and  C_23
REMARK    5  A    between atoms: C_8  and  C_12
REMARK    6  A    between atoms: C_9  and  C_15
REMARK    7  A    between atoms: C_11  and  C_16
REMARK    8  A    between atoms: C_12  and  C_17
REMARK    9  A    between atoms: C_12  and  C_18
REMARK   10  A    between atoms: C_13  and  C_19
REMARK   11  A    between atoms: C_16  and  C_20
REMARK   12  A    between atoms: C_21  and  C_22
REMARK   13  A    between atoms: C_22  and  C_24
REMARK   14  A    between atoms: C_23  and  C_25
REMARK                            x       y       z     vdW  Elec       q    Type
REMARK                         _______ _______ _______ _____ _____    ______ ____
ROOT
ATOM      8  C   UNL     1      -2.559  -0.340  25.014  0.00  0.00    +0.000 C 
ATOM      9  C   UNL     1      -1.622  -0.263  23.784  0.00  0.00    +0.030 C 
ATOM     10  C   UNL     1      -3.938   0.248  24.677  0.00  0.00    +0.012 C 
ATOM     11  C   UNL     1      -3.848   1.716  24.223  0.00  0.00    +0.023 C 
ATOM     13  C   UNL     1      -2.755   1.924  23.196  0.00  0.00    -0.073 C 
ATOM     14  C   UNL     1      -1.776   1.022  23.004  0.00  0.00    -0.023 C 
ATOM     19  C   UNL     1      -2.837   3.171  22.361  0.00  0.00    +0.039 C 
ENDROOT
BRANCH   8  12
ATOM     12  C   UNL     1      -2.718  -1.779  25.519  0.00  0.00    -0.013 C 
ATOM     17  C   UNL     1      -3.624  -2.573  24.583  0.00  0.00    +0.007 C 
ATOM     18  C   UNL     1      -3.269  -1.786  26.941  0.00  0.00    +0.007 C 
ENDBRANCH   8  12
BRANCH   9  15
ATOM     15  C   UNL     1      -0.155  -0.439  24.194  0.00  0.00    +0.113 C 
BRANCH  15   6
ATOM      6  N   UNL     1       0.692   0.430  23.438  0.00  0.00    -0.194 NA
ATOM     31  H   UNL     1       0.200   1.174  22.929  0.00  0.00    +0.148 HD
BRANCH   6   1
ATOM      1  S   UNL     1       2.094  -0.191  22.638  0.00  0.00    +0.029 S 
ATOM      4  O   UNL     1       1.825  -0.279  21.217  0.00  0.00    -0.158 OA
ATOM      5  O   UNL     1       2.609  -1.335  23.368  0.00  0.00    -0.158 OA
BRANCH   1  21
ATOM     21  C   UNL     1       3.223   1.157  22.900  0.00  0.00    +0.185 C 
BRANCH  21  22
ATOM     22  C   UNL     1       4.663   0.725  22.676  0.00  0.00    +0.021 C 
ATOM     24  C   UNL     1       5.319   0.287  23.975  0.00  0.00    +0.005 C 
ENDBRANCH  21  22
ENDBRANCH   1  21
ENDBRANCH   6   1
ENDBRANCH  15   6
ENDBRANCH   9  15
BRANCH  11  16
ATOM     16  C   UNL     1      -3.661   2.654  25.422  0.00  0.00    +0.103 C 
BRANCH  16  20
ATOM      3  O   UNL     1      -2.214   4.539  24.963  0.00  0.00    -0.276 OA
ATOM      7  N   UNL     1      -1.307   2.584  25.834  0.00  0.00    -0.311 N 
ATOM     20  C   UNL     1      -2.339   3.386  25.369  0.00  0.00    +0.214 C 
ATOM     32  H   UNL     1      -1.510   1.643  26.159  0.00  0.00    +0.149 HD
BRANCH   7  23
ATOM     23  C   UNL     1       0.067   3.024  25.896  0.00  0.00    +0.139 C 
BRANCH  23  25
ATOM      2  F   UNL     1       2.352   2.098  30.960  0.00  0.00    -0.205 F 
ATOM     25  C   UNL     1       0.676   2.777  27.246  0.00  0.00    -0.030 A 
ATOM     26  C   UNL     1      -0.122   2.337  28.303  0.00  0.00    +0.008 A 
ATOM     27  C   UNL     1       2.041   2.988  27.446  0.00  0.00    +0.008 A 
ATOM     28  C   UNL     1       0.442   2.109  29.557  0.00  0.00    +0.038 A 
ATOM     29  C   UNL     1       2.606   2.759  28.700  0.00  0.00    +0.038 A 
ATOM     30  C   UNL     1       1.808   2.320  29.755  0.00  0.00    +0.123 A 
ENDBRANCH  23  25
ENDBRANCH   7  23
ENDBRANCH  16  20
ENDBRANCH  11  16
TORSDOF 10
ENDMDL
