MODEL 1
REMARK VINA RESULT:      -2.4      0.000      0.000
REMARK  Name = 28959726
REMARK  9 active torsions:
REMARK  status: ('A' for Active; 'I' for Inactive)
REMARK    1  A    between atoms: O_2  and  C_21
REMARK    2  A    between atoms: O_4  and  C_27
REMARK    3  A    between atoms: O_4  and  C_28
REMARK    4  A    between atoms: N_6  and  C_13
REMARK    5  A    between atoms: C_7  and  C_10
REMARK    6  A    between atoms: C_8  and  C_14
REMARK    7  A    between atoms: C_10  and  C_13
REMARK    8  A    between atoms: C_14  and  C_21
REMARK    9  A    between atoms: C_20  and  C_22
REMARK                            x       y       z     vdW  Elec       q    Type
REMARK                         _______ _______ _______ _____ _____    ______ ____
ROOT
ATOM      1  O   UNL     1      -0.589   4.904  24.865  0.00  0.00    -0.270 OA
ATOM      5  N   UNL     1      -0.495   2.904  23.656  0.00  0.00    -0.297 N 
ATOM      7  C   UNL     1      -0.264   0.429  23.609  0.00  0.00    +0.011 C 
ATOM      8  C   UNL     1       1.196   0.614  23.124  0.00  0.00    +0.006 C 
ATOM      9  C   UNL     1      -1.111   1.649  23.201  0.00  0.00    +0.112 C 
ATOM     11  C   UNL     1       1.780   1.960  23.585  0.00  0.00    +0.023 C 
ATOM     12  C   UNL     1       0.873   3.122  23.188  0.00  0.00    +0.108 C 
ATOM     20  C   UNL     1      -1.102   3.857  24.477  0.00  0.00    +0.247 C 
ENDROOT
BRANCH  20  22
ATOM     22  C   UNL     1      -2.475   3.604  24.928  0.00  0.00    +0.037 A 
ATOM     23  C   UNL     1      -2.839   3.881  26.245  0.00  0.00    +0.016 A 
ATOM     24  C   UNL     1      -3.417   3.085  24.039  0.00  0.00    +0.016 A 
ATOM     25  C   UNL     1      -4.144   3.639  26.674  0.00  0.00    +0.046 A 
ATOM     26  C   UNL     1      -4.721   2.843  24.467  0.00  0.00    +0.046 A 
ATOM     27  C   UNL     1      -5.086   3.120  25.786  0.00  0.00    +0.120 A 
BRANCH  27   4
ATOM      4  O   UNL     1      -6.359   2.884  26.203  0.00  0.00    -0.495 OA
ATOM     28  C   UNL     1      -6.607   1.638  26.856  0.00  0.00    +0.277 C 
ENDBRANCH  27   4
ENDBRANCH  20  22
BRANCH   7  10
ATOM     10  C   UNL     1      -0.392   0.174  25.116  0.00  0.00    +0.020 C 
BRANCH  10  13
ATOM     13  C   UNL     1      -0.602  -1.306  25.400  0.00  0.00    +0.085 C 
BRANCH  13   6
ATOM      6  N   UNL     1      -2.024  -1.635  25.299  0.00  0.00    -0.302 NA
ATOM     15  C   UNL     1      -2.825  -0.413  25.141  0.00  0.00    +0.084 C 
ATOM     16  C   UNL     1      -2.256  -2.570  24.190  0.00  0.00    +0.084 C 
ATOM     17  C   UNL     1      -4.318  -0.737  25.083  0.00  0.00    +0.015 C 
ATOM     18  C   UNL     1      -3.732  -2.965  24.100  0.00  0.00    +0.015 C 
ATOM     19  C   UNL     1      -4.626  -1.738  23.974  0.00  0.00    +0.002 C 
ENDBRANCH  13   6
ENDBRANCH  10  13
ENDBRANCH   7  10
BRANCH   8  14
ATOM     14  C   UNL     1       2.114  -0.538  23.529  0.00  0.00    +0.124 C 
BRANCH  14  21
ATOM      3  O   UNL     1       3.915   0.487  22.245  0.00  0.00    -0.251 OA
ATOM     21  C   UNL     1       3.537  -0.289  23.111  0.00  0.00    +0.305 C 
BRANCH  21   2
ATOM      2  O   UNL     1       4.373  -1.065  23.846  0.00  0.00    -0.481 OA
ATOM     29  H   UNL     1       3.884  -1.623  24.488  0.00  0.00    +0.295 HD
ENDBRANCH  21   2
ENDBRANCH  14  21
ENDBRANCH   8  14
TORSDOF 8
ENDMDL
MODEL 2
REMARK VINA RESULT:      -1.6      1.714      4.417
REMARK  Name = 28959726
REMARK  9 active torsions:
REMARK  status: ('A' for Active; 'I' for Inactive)
REMARK    1  A    between atoms: O_2  and  C_21
REMARK    2  A    between atoms: O_4  and  C_27
REMARK    3  A    between atoms: O_4  and  C_28
REMARK    4  A    between atoms: N_6  and  C_13
REMARK    5  A    between atoms: C_7  and  C_10
REMARK    6  A    between atoms: C_8  and  C_14
REMARK    7  A    between atoms: C_10  and  C_13
REMARK    8  A    between atoms: C_14  and  C_21
REMARK    9  A    between atoms: C_20  and  C_22
REMARK                            x       y       z     vdW  Elec       q    Type
REMARK                         _______ _______ _______ _____ _____    ______ ____
ROOT
ATOM      1  O   UNL     1      -4.702  -1.254  23.411  0.00  0.00    -0.270 OA
ATOM      5  N   UNL     1      -2.804  -1.042  24.762  0.00  0.00    -0.297 N 
ATOM      7  C   UNL     1      -0.597   0.006  25.219  0.00  0.00    +0.011 C 
ATOM      8  C   UNL     1       0.079  -1.303  24.737  0.00  0.00    +0.006 C 
ATOM      9  C   UNL     1      -2.009  -0.300  25.751  0.00  0.00    +0.112 C 
ATOM     11  C   UNL     1      -0.810  -2.067  23.742  0.00  0.00    +0.023 C 
ATOM     12  C   UNL     1      -2.207  -2.297  24.312  0.00  0.00    +0.108 C 
ATOM     20  C   UNL     1      -4.037  -0.639  24.242  0.00  0.00    +0.247 C 
ENDROOT
BRANCH  20  22
ATOM     22  C   UNL     1      -4.605   0.627  24.717  0.00  0.00    +0.037 A 
ATOM     23  C   UNL     1      -5.435   0.641  25.839  0.00  0.00    +0.016 A 
ATOM     24  C   UNL     1      -4.318   1.816  24.047  0.00  0.00    +0.016 A 
ATOM     25  C   UNL     1      -5.977   1.844  26.290  0.00  0.00    +0.046 A 
ATOM     26  C   UNL     1      -4.860   3.019  24.498  0.00  0.00    +0.046 A 
ATOM     27  C   UNL     1      -5.690   3.033  25.620  0.00  0.00    +0.120 A 
BRANCH  27   4
ATOM      4  O   UNL     1      -6.219   4.208  26.059  0.00  0.00    -0.495 OA
ATOM     28  C   UNL     1      -6.127   5.329  25.181  0.00  0.00    +0.277 C 
ENDBRANCH  27   4
ENDBRANCH  20  22
BRANCH   7  10
ATOM     10  C   UNL     1      -0.656   1.105  24.152  0.00  0.00    +0.020 C 
BRANCH  10  13
ATOM     13  C   UNL     1       0.353   2.204  24.447  0.00  0.00    +0.085 C 
BRANCH  13   6
ATOM      6  N   UNL     1      -0.312   3.326  25.110  0.00  0.00    -0.302 NA
ATOM     15  C   UNL     1      -0.498   4.442  24.171  0.00  0.00    +0.084 C 
ATOM     16  C   UNL     1      -1.594   2.896  25.683  0.00  0.00    +0.084 C 
ATOM     17  C   UNL     1      -1.148   5.641  24.862  0.00  0.00    +0.015 C 
ATOM     18  C   UNL     1      -2.281   4.045  26.424  0.00  0.00    +0.015 C 
ATOM     19  C   UNL     1      -2.470   5.254  25.516  0.00  0.00    +0.002 C 
ENDBRANCH  13   6
ENDBRANCH  10  13
ENDBRANCH   7  10
BRANCH   8  14
ATOM     14  C   UNL     1       1.474  -1.079  24.153  0.00  0.00    +0.124 C 
BRANCH  14  21
ATOM      3  O   UNL     1       0.567  -0.572  21.948  0.00  0.00    -0.251 OA
ATOM     21  C   UNL     1       1.412  -0.397  22.814  0.00  0.00    +0.305 C 
BRANCH  21   2
ATOM      2  O   UNL     1       2.452   0.466  22.691  0.00  0.00    -0.481 OA
ATOM     29  H   UNL     1       2.197   1.280  22.207  0.00  0.00    +0.295 HD
ENDBRANCH  21   2
ENDBRANCH  14  21
ENDBRANCH   8  14
TORSDOF 8
ENDMDL
MODEL 3
REMARK VINA RESULT:      -1.6     15.251     19.857
REMARK  Name = 28959726
REMARK  9 active torsions:
REMARK  status: ('A' for Active; 'I' for Inactive)
REMARK    1  A    between atoms: O_2  and  C_21
REMARK    2  A    between atoms: O_4  and  C_27
REMARK    3  A    between atoms: O_4  and  C_28
REMARK    4  A    between atoms: N_6  and  C_13
REMARK    5  A    between atoms: C_7  and  C_10
REMARK    6  A    between atoms: C_8  and  C_14
REMARK    7  A    between atoms: C_10  and  C_13
REMARK    8  A    between atoms: C_14  and  C_21
REMARK    9  A    between atoms: C_20  and  C_22
REMARK                            x       y       z     vdW  Elec       q    Type
REMARK                         _______ _______ _______ _____ _____    ______ ____
ROOT
ATOM      1  O   UNL     1      11.610 -10.663  32.497  0.00  0.00    -0.270 OA
ATOM      5  N   UNL     1      11.458  -8.549  31.507  0.00  0.00    -0.297 N 
ATOM      7  C   UNL     1      12.108  -6.151  31.448  0.00  0.00    +0.011 C 
ATOM      8  C   UNL     1      10.723  -5.802  32.049  0.00  0.00    +0.006 C 
ATOM      9  C   UNL     1      12.023  -7.479  30.673  0.00  0.00    +0.112 C 
ATOM     11  C   UNL     1      10.152  -6.968  32.873  0.00  0.00    +0.023 C 
ATOM     12  C   UNL     1      10.137  -8.262  32.062  0.00  0.00    +0.108 C 
ATOM     20  C   UNL     1      12.077  -9.768  31.796  0.00  0.00    +0.247 C 
ENDROOT
BRANCH  20  22
ATOM     22  C   UNL     1      13.402 -10.021  31.221  0.00  0.00    +0.037 A 
ATOM     23  C   UNL     1      13.519 -10.435  29.894  0.00  0.00    +0.016 A 
ATOM     24  C   UNL     1      14.546  -9.850  32.001  0.00  0.00    +0.016 A 
ATOM     25  C   UNL     1      14.779 -10.678  29.347  0.00  0.00    +0.046 A 
ATOM     26  C   UNL     1      15.806 -10.093  31.455  0.00  0.00    +0.046 A 
ATOM     27  C   UNL     1      15.923 -10.507  30.127  0.00  0.00    +0.120 A 
BRANCH  27   4
ATOM      4  O   UNL     1      17.152 -10.744  29.595  0.00  0.00    -0.495 OA
ATOM     28  C   UNL     1      17.350 -10.375  28.230  0.00  0.00    +0.277 C 
ENDBRANCH  27   4
ENDBRANCH  20  22
BRANCH   7  10
ATOM     10  C   UNL     1      13.239  -6.210  32.483  0.00  0.00    +0.020 C 
BRANCH  10  13
ATOM     13  C   UNL     1      13.848  -4.833  32.701  0.00  0.00    +0.085 C 
BRANCH  13   6
ATOM      6  N   UNL     1      15.162  -4.764  32.061  0.00  0.00    -0.302 NA
ATOM     15  C   UNL     1      15.483  -6.039  31.404  0.00  0.00    +0.084 C 
ATOM     16  C   UNL     1      15.208  -3.648  31.106  0.00  0.00    +0.084 C 
ATOM     17  C   UNL     1      16.875  -5.998  30.772  0.00  0.00    +0.015 C 
ATOM     18  C   UNL     1      16.591  -3.529  30.462  0.00  0.00    +0.015 C 
ATOM     19  C   UNL     1      17.006  -4.835  29.795  0.00  0.00    +0.002 C 
ENDBRANCH  13   6
ENDBRANCH  10  13
ENDBRANCH   7  10
BRANCH   8  14
ATOM     14  C   UNL     1      10.733  -4.514  32.873  0.00  0.00    +0.124 C 
BRANCH  14  21
ATOM      3  O   UNL     1      10.646  -2.867  31.079  0.00  0.00    -0.251 OA
ATOM     21  C   UNL     1      10.176  -3.353  32.097  0.00  0.00    +0.305 C 
BRANCH  21   2
ATOM      2  O   UNL     1       9.045  -2.903  32.697  0.00  0.00    -0.481 OA
ATOM     29  H   UNL     1       9.140  -1.977  33.009  0.00  0.00    +0.295 HD
ENDBRANCH  21   2
ENDBRANCH  14  21
ENDBRANCH   8  14
TORSDOF 8
ENDMDL
MODEL 4
REMARK VINA RESULT:      -0.2      1.888      7.354
REMARK  Name = 28959726
REMARK  9 active torsions:
REMARK  status: ('A' for Active; 'I' for Inactive)
REMARK    1  A    between atoms: O_2  and  C_21
REMARK    2  A    between atoms: O_4  and  C_27
REMARK    3  A    between atoms: O_4  and  C_28
REMARK    4  A    between atoms: N_6  and  C_13
REMARK    5  A    between atoms: C_7  and  C_10
REMARK    6  A    between atoms: C_8  and  C_14
REMARK    7  A    between atoms: C_10  and  C_13
REMARK    8  A    between atoms: C_14  and  C_21
REMARK    9  A    between atoms: C_20  and  C_22
REMARK                            x       y       z     vdW  Elec       q    Type
REMARK                         _______ _______ _______ _____ _____    ______ ____
ROOT
ATOM      1  O   UNL     1      -0.877  -0.879  26.681  0.00  0.00    -0.270 OA
ATOM      5  N   UNL     1      -2.545  -0.721  25.047  0.00  0.00    -0.297 N 
ATOM      7  C   UNL     1      -3.994   0.668  23.582  0.00  0.00    +0.011 C 
ATOM      8  C   UNL     1      -5.175   0.378  24.543  0.00  0.00    +0.006 C 
ATOM      9  C   UNL     1      -2.963  -0.473  23.660  0.00  0.00    +0.112 C 
ATOM     11  C   UNL     1      -4.684   0.079  25.969  0.00  0.00    +0.023 C 
ATOM     12  C   UNL     1      -3.634  -1.029  25.971  0.00  0.00    +0.108 C 
ATOM     20  C   UNL     1      -1.231  -0.677  25.521  0.00  0.00    +0.247 C 
ENDROOT
BRANCH  20  22
ATOM     22  C   UNL     1      -0.163  -0.366  24.564  0.00  0.00    +0.037 A 
ATOM     23  C   UNL     1       0.218  -1.312  23.613  0.00  0.00    +0.016 A 
ATOM     24  C   UNL     1       0.472   0.876  24.607  0.00  0.00    +0.016 A 
ATOM     25  C   UNL     1       1.234  -1.016  22.704  0.00  0.00    +0.046 A 
ATOM     26  C   UNL     1       1.488   1.171  23.699  0.00  0.00    +0.046 A 
ATOM     27  C   UNL     1       1.870   0.225  22.747  0.00  0.00    +0.120 A 
BRANCH  27   4
ATOM      4  O   UNL     1       2.861   0.514  21.861  0.00  0.00    -0.495 OA
ATOM     28  C   UNL     1       4.142   0.835  22.403  0.00  0.00    +0.277 C 
ENDBRANCH  27   4
ENDBRANCH  20  22
BRANCH   7  10
ATOM     10  C   UNL     1      -3.311   2.019  23.825  0.00  0.00    +0.020 C 
BRANCH  10  13
ATOM     13  C   UNL     1      -2.805   2.123  25.256  0.00  0.00    +0.085 C 
BRANCH  13   6
ATOM      6  N   UNL     1      -2.056   3.367  25.430  0.00  0.00    -0.302 NA
ATOM     15  C   UNL     1      -0.917   3.417  24.503  0.00  0.00    +0.084 C 
ATOM     16  C   UNL     1      -2.939   4.527  25.248  0.00  0.00    +0.084 C 
ATOM     17  C   UNL     1      -0.094   4.689  24.707  0.00  0.00    +0.015 C 
ATOM     18  C   UNL     1      -2.183   5.838  25.476  0.00  0.00    +0.015 C 
ATOM     19  C   UNL     1      -0.961   5.937  24.572  0.00  0.00    +0.002 C 
ENDBRANCH  13   6
ENDBRANCH  10  13
ENDBRANCH   7  10
BRANCH   8  14
ATOM     14  C   UNL     1      -6.225   1.489  24.556  0.00  0.00    +0.124 C 
BRANCH  14  21
ATOM      3  O   UNL     1      -5.719   3.300  26.107  0.00  0.00    -0.251 OA
ATOM     21  C   UNL     1      -6.242   2.221  25.869  0.00  0.00    +0.305 C 
BRANCH  21   2
ATOM      2  O   UNL     1      -6.938   1.502  26.785  0.00  0.00    -0.481 OA
ATOM     29  H   UNL     1      -6.822   1.856  27.693  0.00  0.00    +0.295 HD
ENDBRANCH  21   2
ENDBRANCH  14  21
ENDBRANCH   8  14
TORSDOF 8
ENDMDL
MODEL 5
REMARK VINA RESULT:       0.6      1.895      4.151
REMARK  Name = 28959726
REMARK  9 active torsions:
REMARK  status: ('A' for Active; 'I' for Inactive)
REMARK    1  A    between atoms: O_2  and  C_21
REMARK    2  A    between atoms: O_4  and  C_27
REMARK    3  A    between atoms: O_4  and  C_28
REMARK    4  A    between atoms: N_6  and  C_13
REMARK    5  A    between atoms: C_7  and  C_10
REMARK    6  A    between atoms: C_8  and  C_14
REMARK    7  A    between atoms: C_10  and  C_13
REMARK    8  A    between atoms: C_14  and  C_21
REMARK    9  A    between atoms: C_20  and  C_22
REMARK                            x       y       z     vdW  Elec       q    Type
REMARK                         _______ _______ _______ _____ _____    ______ ____
ROOT
ATOM      1  O   UNL     1      -1.975  -2.570  23.801  0.00  0.00    -0.270 OA
ATOM      5  N   UNL     1      -0.555  -0.888  24.595  0.00  0.00    -0.297 N 
ATOM      7  C   UNL     1       0.459   1.367  24.339  0.00  0.00    +0.011 C 
ATOM      8  C   UNL     1       1.774   0.681  23.888  0.00  0.00    +0.006 C 
ATOM      9  C   UNL     1      -0.346   0.415  25.243  0.00  0.00    +0.112 C 
ATOM     11  C   UNL     1       1.507  -0.697  23.260  0.00  0.00    +0.023 C 
ATOM     12  C   UNL     1       0.669  -1.574  24.187  0.00  0.00    +0.108 C 
ATOM     20  C   UNL     1      -1.795  -1.483  24.348  0.00  0.00    +0.247 C 
ENDROOT
BRANCH  20  22
ATOM     22  C   UNL     1      -3.001  -0.765  24.771  0.00  0.00    +0.037 A 
ATOM     23  C   UNL     1      -3.489  -0.926  26.068  0.00  0.00    +0.016 A 
ATOM     24  C   UNL     1      -3.662   0.078  23.877  0.00  0.00    +0.016 A 
ATOM     25  C   UNL     1      -4.638  -0.244  26.470  0.00  0.00    +0.046 A 
ATOM     26  C   UNL     1      -4.810   0.759  24.279  0.00  0.00    +0.046 A 
ATOM     27  C   UNL     1      -5.299   0.599  25.577  0.00  0.00    +0.120 A 
BRANCH  27   4
ATOM      4  O   UNL     1      -6.419   1.264  25.968  0.00  0.00    -0.495 OA
ATOM     28  C   UNL     1      -6.988   2.182  25.034  0.00  0.00    +0.277 C 
ENDBRANCH  27   4
ENDBRANCH  20  22
BRANCH   7  10
ATOM     10  C   UNL     1      -0.413   1.864  23.179  0.00  0.00    +0.020 C 
BRANCH  10  13
ATOM     13  C   UNL     1      -0.906   3.280  23.439  0.00  0.00    +0.085 C 
BRANCH  13   6
ATOM      6  N   UNL     1      -2.030   3.252  24.375  0.00  0.00    -0.302 NA
ATOM     15  C   UNL     1      -1.616   3.757  25.691  0.00  0.00    +0.084 C 
ATOM     16  C   UNL     1      -3.161   4.023  23.842  0.00  0.00    +0.084 C 
ATOM     17  C   UNL     1      -2.767   3.688  26.695  0.00  0.00    +0.015 C 
ATOM     18  C   UNL     1      -4.364   3.964  24.786  0.00  0.00    +0.015 C 
ATOM     19  C   UNL     1      -3.993   4.438  26.185  0.00  0.00    +0.002 C 
ENDBRANCH  13   6
ENDBRANCH  10  13
ENDBRANCH   7  10
BRANCH   8  14
ATOM     14  C   UNL     1       2.613   1.548  22.950  0.00  0.00    +0.124 C 
BRANCH  14  21
ATOM      3  O   UNL     1       4.856   0.769  23.498  0.00  0.00    -0.251 OA
ATOM     21  C   UNL     1       3.960   0.935  22.684  0.00  0.00    +0.305 C 
BRANCH  21   2
ATOM      2  O   UNL     1       4.051   0.580  21.377  0.00  0.00    -0.481 OA
ATOM     29  H   UNL     1       4.146  -0.390  21.267  0.00  0.00    +0.295 HD
ENDBRANCH  21   2
ENDBRANCH  14  21
ENDBRANCH   8  14
TORSDOF 8
ENDMDL
MODEL 6
REMARK VINA RESULT:       1.6      1.495      6.404
REMARK  Name = 28959726
REMARK  9 active torsions:
REMARK  status: ('A' for Active; 'I' for Inactive)
REMARK    1  A    between atoms: O_2  and  C_21
REMARK    2  A    between atoms: O_4  and  C_27
REMARK    3  A    between atoms: O_4  and  C_28
REMARK    4  A    between atoms: N_6  and  C_13
REMARK    5  A    between atoms: C_7  and  C_10
REMARK    6  A    between atoms: C_8  and  C_14
REMARK    7  A    between atoms: C_10  and  C_13
REMARK    8  A    between atoms: C_14  and  C_21
REMARK    9  A    between atoms: C_20  and  C_22
REMARK                            x       y       z     vdW  Elec       q    Type
REMARK                         _______ _______ _______ _____ _____    ______ ____
ROOT
ATOM      1  O   UNL     1      -2.022   1.023  21.420  0.00  0.00    -0.270 OA
ATOM      5  N   UNL     1      -1.865   2.632  23.111  0.00  0.00    -0.297 N 
ATOM      7  C   UNL     1      -1.920   3.228  25.524  0.00  0.00    +0.011 C 
ATOM      8  C   UNL     1      -3.337   3.815  25.306  0.00  0.00    +0.006 C 
ATOM      9  C   UNL     1      -1.125   3.275  24.206  0.00  0.00    +0.112 C 
ATOM     11  C   UNL     1      -4.053   3.143  24.122  0.00  0.00    +0.023 C 
ATOM     12  C   UNL     1      -3.194   3.186  22.861  0.00  0.00    +0.108 C 
ATOM     20  C   UNL     1      -1.404   1.568  22.333  0.00  0.00    +0.247 C 
ENDROOT
BRANCH  20  22
ATOM     22  C   UNL     1      -0.065   1.038  22.613  0.00  0.00    +0.037 A 
ATOM     23  C   UNL     1       0.345  -0.162  22.032  0.00  0.00    +0.016 A 
ATOM     24  C   UNL     1       0.797   1.732  23.463  0.00  0.00    +0.016 A 
ATOM     25  C   UNL     1       1.618  -0.667  22.300  0.00  0.00    +0.046 A 
ATOM     26  C   UNL     1       2.068   1.228  23.731  0.00  0.00    +0.046 A 
ATOM     27  C   UNL     1       2.480   0.027  23.149  0.00  0.00    +0.120 A 
BRANCH  27   4
ATOM      4  O   UNL     1       3.721  -0.464  23.411  0.00  0.00    -0.495 OA
ATOM     28  C   UNL     1       4.829   0.393  23.139  0.00  0.00    +0.277 C 
ENDBRANCH  27   4
ENDBRANCH  20  22
BRANCH   7  10
ATOM     10  C   UNL     1      -1.917   1.805  26.095  0.00  0.00    +0.020 C 
BRANCH  10  13
ATOM     13  C   UNL     1      -1.490   0.796  25.039  0.00  0.00    +0.085 C 
BRANCH  13   6
ATOM      6  N   UNL     1      -2.355  -0.382  25.098  0.00  0.00    -0.302 NA
ATOM     15  C   UNL     1      -3.548  -0.188  24.260  0.00  0.00    +0.084 C 
ATOM     16  C   UNL     1      -1.613  -1.584  24.694  0.00  0.00    +0.084 C 
ATOM     17  C   UNL     1      -4.487  -1.392  24.350  0.00  0.00    +0.015 C 
ATOM     18  C   UNL     1      -2.489  -2.835  24.797  0.00  0.00    +0.015 C 
ATOM     19  C   UNL     1      -3.767  -2.685  23.981  0.00  0.00    +0.002 C 
ENDBRANCH  13   6
ENDBRANCH  10  13
ENDBRANCH   7  10
BRANCH   8  14
ATOM     14  C   UNL     1      -4.208   3.764  26.561  0.00  0.00    +0.124 C 
BRANCH  14  21
ATOM      3  O   UNL     1      -5.955   2.075  26.374  0.00  0.00    -0.251 OA
ATOM     21  C   UNL     1      -5.583   3.233  26.262  0.00  0.00    +0.305 C 
BRANCH  21   2
ATOM      2  O   UNL     1      -6.382   4.245  25.837  0.00  0.00    -0.481 OA
ATOM     29  H   UNL     1      -7.314   4.118  26.117  0.00  0.00    +0.295 HD
ENDBRANCH  21   2
ENDBRANCH  14  21
ENDBRANCH   8  14
TORSDOF 8
ENDMDL
