MODEL 1
REMARK VINA RESULT:      -4.4      0.000      0.000
REMARK  Name = 75536837
REMARK  5 active torsions:
REMARK  status: ('A' for Active; 'I' for Inactive)
REMARK    1  A    between atoms: O_3  and  C_10
REMARK    2  A    between atoms: N_6  and  C_9
REMARK    3  A    between atoms: N_6  and  C_12
REMARK    4  A    between atoms: N_7  and  C_14
REMARK    5  A    between atoms: C_11  and  C_14
REMARK                            x       y       z     vdW  Elec       q    Type
REMARK                         _______ _______ _______ _____ _____    ______ ____
ROOT
ATOM      1  O   UNL     1      -0.377   0.908  25.966  0.00  0.00    -0.371 OA
ATOM      9  C   UNL     1      -0.411  -1.131  24.749  0.00  0.00    +0.111 C 
ATOM     10  C   UNL     1      -0.211   0.021  23.780  0.00  0.00    +0.164 C 
ATOM     11  C   UNL     1       0.305   1.105  24.716  0.00  0.00    +0.165 C 
ATOM     13  C   UNL     1      -0.960  -0.407  25.968  0.00  0.00    +0.181 C 
ENDROOT
BRANCH  10   3
ATOM      3  O   UNL     1       0.718  -0.281  22.758  0.00  0.00    -0.388 OA
ATOM     23  H   UNL     1       0.390   0.098  21.924  0.00  0.00    +0.210 HD
ENDBRANCH  10   3
BRANCH   9   6
ATOM      6  N   UNL     1      -1.307  -2.162  24.252  0.00  0.00    -0.302 NA
ATOM     22  H   UNL     1      -0.892  -3.071  24.458  0.00  0.00    +0.123 HD
BRANCH   6  12
ATOM      2  O   UNL     1      -4.444  -2.465  23.826  0.00  0.00    -0.377 OA
ATOM     12  C   UNL     1      -2.635  -1.992  24.855  0.00  0.00    +0.106 C 
ATOM     15  C   UNL     1      -3.472  -3.240  24.575  0.00  0.00    +0.180 C 
ATOM     16  C   UNL     1      -3.561  -1.313  23.847  0.00  0.00    +0.180 C 
ENDBRANCH   6  12
ENDBRANCH   9   6
BRANCH  11  14
ATOM     14  C   UNL     1       0.047   2.511  24.206  0.00  0.00    +0.140 C 
BRANCH  14   7
ATOM      4  O   UNL     1      -6.075   3.637  25.770  0.00  0.00    -0.377 OA
ATOM      5  O   UNL     1      -2.402   1.690  23.088  0.00  0.00    -0.253 OA
ATOM      7  N   UNL     1      -1.262   2.985  24.600  0.00  0.00    -0.297 N 
ATOM      8  N   UNL     1      -3.620   3.086  24.482  0.00  0.00    -0.281 N 
ATOM     17  C   UNL     1      -2.426   2.528  23.996  0.00  0.00    +0.302 C 
ATOM     18  C   UNL     1      -3.730   4.191  25.447  0.00  0.00    +0.137 C 
ATOM     19  C   UNL     1      -4.896   2.667  23.898  0.00  0.00    +0.137 C 
ATOM     20  C   UNL     1      -4.851   3.928  26.446  0.00  0.00    +0.179 C 
ATOM     21  C   UNL     1      -5.947   2.456  24.976  0.00  0.00    +0.179 C 
ATOM     24  H   UNL     1      -1.279   3.682  25.330  0.00  0.00    +0.150 HD
ENDBRANCH  14   7
ENDBRANCH  11  14
TORSDOF 5
ENDMDL
MODEL 2
REMARK VINA RESULT:      -4.4     14.093     16.259
REMARK  Name = 75536837
REMARK  5 active torsions:
REMARK  status: ('A' for Active; 'I' for Inactive)
REMARK    1  A    between atoms: O_3  and  C_10
REMARK    2  A    between atoms: N_6  and  C_9
REMARK    3  A    between atoms: N_6  and  C_12
REMARK    4  A    between atoms: N_7  and  C_14
REMARK    5  A    between atoms: C_11  and  C_14
REMARK                            x       y       z     vdW  Elec       q    Type
REMARK                         _______ _______ _______ _____ _____    ______ ____
ROOT
ATOM      1  O   UNL     1      -2.526 -10.356  13.615  0.00  0.00    -0.371 OA
ATOM      9  C   UNL     1      -3.507 -10.105  11.466  0.00  0.00    +0.111 C 
ATOM     10  C   UNL     1      -4.594 -10.443  12.470  0.00  0.00    +0.164 C 
ATOM     11  C   UNL     1      -3.921 -10.046  13.777  0.00  0.00    +0.165 C 
ATOM     13  C   UNL     1      -2.259 -10.546  12.215  0.00  0.00    +0.181 C 
ENDROOT
BRANCH  10   3
ATOM      3  O   UNL     1      -5.787  -9.716  12.249  0.00  0.00    -0.388 OA
ATOM     23  H   UNL     1      -6.230  -9.588  13.106  0.00  0.00    +0.210 HD
ENDBRANCH  10   3
BRANCH   9   6
ATOM      6  N   UNL     1      -3.666 -10.775  10.186  0.00  0.00    -0.302 NA
ATOM     22  H   UNL     1      -4.374 -11.503  10.294  0.00  0.00    +0.123 HD
BRANCH   6  12
ATOM      2  O   UNL     1      -5.769  -8.581   9.250  0.00  0.00    -0.377 OA
ATOM     12  C   UNL     1      -4.012  -9.790   9.154  0.00  0.00    +0.106 C 
ATOM     15  C   UNL     1      -4.442  -8.490   9.833  0.00  0.00    +0.180 C 
ATOM     16  C   UNL     1      -5.492  -9.933   8.800  0.00  0.00    +0.180 C 
ENDBRANCH   6  12
ENDBRANCH   9   6
BRANCH  11  14
ATOM     14  C   UNL     1      -4.474 -10.781  14.985  0.00  0.00    +0.140 C 
BRANCH  14   7
ATOM      4  O   UNL     1     -10.474  -8.895  16.263  0.00  0.00    -0.377 OA
ATOM      5  O   UNL     1      -5.716  -9.771  17.300  0.00  0.00    -0.253 OA
ATOM      7  N   UNL     1      -5.891 -10.543  15.146  0.00  0.00    -0.297 N 
ATOM      8  N   UNL     1      -7.821  -9.869  16.332  0.00  0.00    -0.281 N 
ATOM     17  C   UNL     1      -6.427 -10.040  16.325  0.00  0.00    +0.302 C 
ATOM     18  C   UNL     1      -8.753 -10.303  15.280  0.00  0.00    +0.137 C 
ATOM     19  C   UNL     1      -8.472  -9.351  17.538  0.00  0.00    +0.137 C 
ATOM     20  C   UNL     1      -9.828  -9.249  15.040  0.00  0.00    +0.179 C 
ATOM     21  C   UNL     1      -9.539  -8.328  17.184  0.00  0.00    +0.179 C 
ATOM     24  H   UNL     1      -6.473 -10.780  14.355  0.00  0.00    +0.150 HD
ENDBRANCH  14   7
ENDBRANCH  11  14
TORSDOF 5
ENDMDL
MODEL 3
REMARK VINA RESULT:      -4.4      1.620      4.968
REMARK  Name = 75536837
REMARK  5 active torsions:
REMARK  status: ('A' for Active; 'I' for Inactive)
REMARK    1  A    between atoms: O_3  and  C_10
REMARK    2  A    between atoms: N_6  and  C_9
REMARK    3  A    between atoms: N_6  and  C_12
REMARK    4  A    between atoms: N_7  and  C_14
REMARK    5  A    between atoms: C_11  and  C_14
REMARK                            x       y       z     vdW  Elec       q    Type
REMARK                         _______ _______ _______ _____ _____    ______ ____
ROOT
ATOM      1  O   UNL     1      -0.320   3.806  23.751  0.00  0.00    -0.371 OA
ATOM      9  C   UNL     1      -1.534   4.091  25.773  0.00  0.00    +0.111 C 
ATOM     10  C   UNL     1      -0.933   2.697  25.749  0.00  0.00    +0.164 C 
ATOM     11  C   UNL     1       0.181   2.875  24.726  0.00  0.00    +0.165 C 
ATOM     13  C   UNL     1      -1.469   4.472  24.303  0.00  0.00    +0.181 C 
ENDROOT
BRANCH  10   3
ATOM      3  O   UNL     1      -0.433   2.296  27.008  0.00  0.00    -0.388 OA
ATOM     23  H   UNL     1      -1.188   2.115  27.595  0.00  0.00    +0.210 HD
ENDBRANCH  10   3
BRANCH   9   6
ATOM      6  N   UNL     1      -2.883   4.136  26.311  0.00  0.00    -0.302 NA
ATOM     22  H   UNL     1      -3.044   5.069  26.691  0.00  0.00    +0.123 HD
BRANCH   6  12
ATOM      2  O   UNL     1      -5.734   2.876  25.679  0.00  0.00    -0.377 OA
ATOM     12  C   UNL     1      -3.844   3.775  25.261  0.00  0.00    +0.106 C 
ATOM     15  C   UNL     1      -5.237   4.240  25.680  0.00  0.00    +0.180 C 
ATOM     16  C   UNL     1      -4.382   2.370  25.534  0.00  0.00    +0.180 C 
ENDBRANCH   6  12
ENDBRANCH   9   6
BRANCH  11  14
ATOM     14  C   UNL     1       0.581   1.580  24.042  0.00  0.00    +0.140 C 
BRANCH  14   7
ATOM      4  O   UNL     1      -3.785  -3.090  24.618  0.00  0.00    -0.377 OA
ATOM      5  O   UNL     1      -2.106   1.355  23.235  0.00  0.00    -0.253 OA
ATOM      7  N   UNL     1      -0.317   0.500  24.388  0.00  0.00    -0.297 N 
ATOM      8  N   UNL     1      -2.383  -0.648  24.372  0.00  0.00    -0.281 N 
ATOM     17  C   UNL     1      -1.633   0.463  23.948  0.00  0.00    +0.302 C 
ATOM     18  C   UNL     1      -1.948  -1.668  25.338  0.00  0.00    +0.137 C 
ATOM     19  C   UNL     1      -3.784  -0.764  23.961  0.00  0.00    +0.137 C 
ATOM     20  C   UNL     1      -2.383  -3.059  24.888  0.00  0.00    +0.179 C 
ATOM     21  C   UNL     1      -4.116  -2.191  23.556  0.00  0.00    +0.179 C 
ATOM     24  H   UNL     1       0.066  -0.220  24.985  0.00  0.00    +0.150 HD
ENDBRANCH  14   7
ENDBRANCH  11  14
TORSDOF 5
ENDMDL
MODEL 4
REMARK VINA RESULT:      -3.9      1.724      5.892
REMARK  Name = 75536837
REMARK  5 active torsions:
REMARK  status: ('A' for Active; 'I' for Inactive)
REMARK    1  A    between atoms: O_3  and  C_10
REMARK    2  A    between atoms: N_6  and  C_9
REMARK    3  A    between atoms: N_6  and  C_12
REMARK    4  A    between atoms: N_7  and  C_14
REMARK    5  A    between atoms: C_11  and  C_14
REMARK                            x       y       z     vdW  Elec       q    Type
REMARK                         _______ _______ _______ _____ _____    ______ ____
ROOT
ATOM      1  O   UNL     1      -5.062   3.440  26.324  0.00  0.00    -0.371 OA
ATOM      9  C   UNL     1      -3.374   4.319  24.903  0.00  0.00    +0.111 C 
ATOM     10  C   UNL     1      -3.807   2.961  24.378  0.00  0.00    +0.164 C 
ATOM     11  C   UNL     1      -5.172   2.814  25.035  0.00  0.00    +0.165 C 
ATOM     13  C   UNL     1      -3.883   4.263  26.335  0.00  0.00    +0.181 C 
ENDROOT
BRANCH  10   3
ATOM      3  O   UNL     1      -3.893   2.923  22.968  0.00  0.00    -0.388 OA
ATOM     23  H   UNL     1      -4.817   2.744  22.722  0.00  0.00    +0.210 HD
ENDBRANCH  10   3
BRANCH   9   6
ATOM      6  N   UNL     1      -1.941   4.547  24.820  0.00  0.00    -0.302 NA
ATOM     22  H   UNL     1      -1.651   5.055  25.657  0.00  0.00    +0.123 HD
BRANCH   6  12
ATOM      2  O   UNL     1       0.597   2.815  25.640  0.00  0.00    -0.377 OA
ATOM     12  C   UNL     1      -1.247   3.263  24.663  0.00  0.00    +0.106 C 
ATOM     15  C   UNL     1      -0.798   2.768  26.037  0.00  0.00    +0.180 C 
ATOM     16  C   UNL     1       0.240   3.522  24.424  0.00  0.00    +0.180 C 
ENDBRANCH   6  12
ENDBRANCH   9   6
BRANCH  11  14
ATOM     14  C   UNL     1      -5.606   1.369  25.201  0.00  0.00    +0.140 C 
BRANCH  14   7
ATOM      4  O   UNL     1      -0.599  -2.647  25.197  0.00  0.00    -0.377 OA
ATOM      5  O   UNL     1      -5.073  -1.033  23.834  0.00  0.00    -0.253 OA
ATOM      7  N   UNL     1      -4.473   0.500  25.432  0.00  0.00    -0.297 N 
ATOM      8  N   UNL     1      -3.139  -1.414  25.055  0.00  0.00    -0.281 N 
ATOM     17  C   UNL     1      -4.282  -0.673  24.712  0.00  0.00    +0.302 C 
ATOM     18  C   UNL     1      -2.233  -1.140  26.181  0.00  0.00    +0.137 C 
ATOM     19  C   UNL     1      -2.863  -2.668  24.351  0.00  0.00    +0.137 C 
ATOM     20  C   UNL     1      -0.780  -1.352  25.772  0.00  0.00    +0.179 C 
ATOM     21  C   UNL     1      -1.386  -2.790  24.012  0.00  0.00    +0.179 C 
ATOM     24  H   UNL     1      -3.837   0.786  26.162  0.00  0.00    +0.150 HD
ENDBRANCH  14   7
ENDBRANCH  11  14
TORSDOF 5
ENDMDL
MODEL 5
REMARK VINA RESULT:      -3.4      1.811      4.007
REMARK  Name = 75536837
REMARK  5 active torsions:
REMARK  status: ('A' for Active; 'I' for Inactive)
REMARK    1  A    between atoms: O_3  and  C_10
REMARK    2  A    between atoms: N_6  and  C_9
REMARK    3  A    between atoms: N_6  and  C_12
REMARK    4  A    between atoms: N_7  and  C_14
REMARK    5  A    between atoms: C_11  and  C_14
REMARK                            x       y       z     vdW  Elec       q    Type
REMARK                         _______ _______ _______ _____ _____    ______ ____
ROOT
ATOM      1  O   UNL     1      -2.710  -2.985  23.796  0.00  0.00    -0.371 OA
ATOM      9  C   UNL     1      -0.933  -1.992  25.019  0.00  0.00    +0.111 C 
ATOM     10  C   UNL     1      -2.163  -1.110  25.130  0.00  0.00    +0.164 C 
ATOM     11  C   UNL     1      -3.267  -2.101  24.783  0.00  0.00    +0.165 C 
ATOM     13  C   UNL     1      -1.279  -2.841  23.806  0.00  0.00    +0.181 C 
ENDROOT
BRANCH  10   3
ATOM      3  O   UNL     1      -2.331  -0.566  26.424  0.00  0.00    -0.388 OA
ATOM     23  H   UNL     1      -1.914   0.313  26.443  0.00  0.00    +0.210 HD
ENDBRANCH  10   3
BRANCH   9   6
ATOM      6  N   UNL     1       0.305  -1.248  24.854  0.00  0.00    -0.302 NA
ATOM     22  H   UNL     1       1.054  -1.915  24.661  0.00  0.00    +0.123 HD
BRANCH   6  12
ATOM      2  O   UNL     1       1.470   1.401  23.535  0.00  0.00    -0.377 OA
ATOM     12  C   UNL     1       0.142  -0.251  23.789  0.00  0.00    +0.106 C 
ATOM     15  C   UNL     1       1.499   0.006  23.135  0.00  0.00    +0.180 C 
ATOM     16  C   UNL     1       0.318   1.148  24.380  0.00  0.00    +0.180 C 
ENDBRANCH   6  12
ENDBRANCH   9   6
BRANCH  11  14
ATOM     14  C   UNL     1      -4.517  -1.439  24.234  0.00  0.00    +0.140 C 
BRANCH  14   7
ATOM      4  O   UNL     1      -3.572   4.901  24.559  0.00  0.00    -0.377 OA
ATOM      5  O   UNL     1      -5.376   0.539  26.042  0.00  0.00    -0.253 OA
ATOM      7  N   UNL     1      -4.335  -0.013  24.074  0.00  0.00    -0.297 N 
ATOM      8  N   UNL     1      -4.544   2.251  24.718  0.00  0.00    -0.281 N 
ATOM     17  C   UNL     1      -4.790   0.901  25.016  0.00  0.00    +0.302 C 
ATOM     18  C   UNL     1      -3.992   2.774  23.458  0.00  0.00    +0.137 C 
ATOM     19  C   UNL     1      -4.996   3.284  25.653  0.00  0.00    +0.137 C 
ATOM     20  C   UNL     1      -2.994   3.894  23.728  0.00  0.00    +0.179 C 
ATOM     21  C   UNL     1      -3.937   4.360  25.831  0.00  0.00    +0.179 C 
ATOM     24  H   UNL     1      -3.870   0.282  23.227  0.00  0.00    +0.150 HD
ENDBRANCH  14   7
ENDBRANCH  11  14
TORSDOF 5
ENDMDL
MODEL 6
REMARK VINA RESULT:      -2.8      1.919      4.365
REMARK  Name = 75536837
REMARK  5 active torsions:
REMARK  status: ('A' for Active; 'I' for Inactive)
REMARK    1  A    between atoms: O_3  and  C_10
REMARK    2  A    between atoms: N_6  and  C_9
REMARK    3  A    between atoms: N_6  and  C_12
REMARK    4  A    between atoms: N_7  and  C_14
REMARK    5  A    between atoms: C_11  and  C_14
REMARK                            x       y       z     vdW  Elec       q    Type
REMARK                         _______ _______ _______ _____ _____    ______ ____
ROOT
ATOM      1  O   UNL     1      -1.256   3.329  26.506  0.00  0.00    -0.371 OA
ATOM      9  C   UNL     1       0.150   2.836  24.657  0.00  0.00    +0.111 C 
ATOM     10  C   UNL     1      -1.299   2.684  24.231  0.00  0.00    +0.164 C 
ATOM     11  C   UNL     1      -2.006   3.514  25.294  0.00  0.00    +0.165 C 
ATOM     13  C   UNL     1       0.027   2.773  26.171  0.00  0.00    +0.181 C 
ENDROOT
BRANCH  10   3
ATOM      3  O   UNL     1      -1.540   3.177  22.929  0.00  0.00    -0.388 OA
ATOM     23  H   UNL     1      -0.822   3.790  22.696  0.00  0.00    +0.210 HD
ENDBRANCH  10   3
BRANCH   9   6
ATOM      6  N   UNL     1       1.028   1.811  24.117  0.00  0.00    -0.302 NA
ATOM     22  H   UNL     1       1.578   1.425  24.886  0.00  0.00    +0.123 HD
BRANCH   6  12
ATOM      2  O   UNL     1       0.409  -1.295  23.824  0.00  0.00    -0.377 OA
ATOM     12  C   UNL     1       0.228   0.794  23.423  0.00  0.00    +0.106 C 
ATOM     15  C   UNL     1      -0.311  -0.201  24.450  0.00  0.00    +0.180 C 
ATOM     16  C   UNL     1       1.139  -0.355  22.993  0.00  0.00    +0.180 C 
ENDBRANCH   6  12
ENDBRANCH   9   6
BRANCH  11  14
ATOM     14  C   UNL     1      -3.450   3.103  25.515  0.00  0.00    +0.140 C 
BRANCH  14   7
ATOM      4  O   UNL     1      -3.624  -3.291  24.990  0.00  0.00    -0.377 OA
ATOM      5  O   UNL     1      -4.117   1.368  23.401  0.00  0.00    -0.253 OA
ATOM      7  N   UNL     1      -3.582   1.666  25.612  0.00  0.00    -0.297 N 
ATOM      8  N   UNL     1      -4.013  -0.500  24.771  0.00  0.00    -0.281 N 
ATOM     17  C   UNL     1      -3.916   0.878  24.517  0.00  0.00    +0.302 C 
ATOM     18  C   UNL     1      -3.939  -1.146  26.090  0.00  0.00    +0.137 C 
ATOM     19  C   UNL     1      -4.367  -1.405  23.675  0.00  0.00    +0.137 C 
ATOM     20  C   UNL     1      -3.127  -2.434  26.018  0.00  0.00    +0.179 C 
ATOM     21  C   UNL     1      -3.516  -2.664  23.710  0.00  0.00    +0.179 C 
ATOM     24  H   UNL     1      -3.435   1.269  26.529  0.00  0.00    +0.150 HD
ENDBRANCH  14   7
ENDBRANCH  11  14
TORSDOF 5
ENDMDL
MODEL 7
REMARK VINA RESULT:      -2.5      1.794      4.241
REMARK  Name = 75536837
REMARK  5 active torsions:
REMARK  status: ('A' for Active; 'I' for Inactive)
REMARK    1  A    between atoms: O_3  and  C_10
REMARK    2  A    between atoms: N_6  and  C_9
REMARK    3  A    between atoms: N_6  and  C_12
REMARK    4  A    between atoms: N_7  and  C_14
REMARK    5  A    between atoms: C_11  and  C_14
REMARK                            x       y       z     vdW  Elec       q    Type
REMARK                         _______ _______ _______ _____ _____    ______ ____
ROOT
ATOM      1  O   UNL     1      -0.150  -0.984  23.021  0.00  0.00    -0.371 OA
ATOM      9  C   UNL     1       0.712   0.738  24.410  0.00  0.00    +0.111 C 
ATOM     10  C   UNL     1      -0.657   0.327  24.922  0.00  0.00    +0.164 C 
ATOM     11  C   UNL     1      -0.800  -1.055  24.301  0.00  0.00    +0.165 C 
ATOM     13  C   UNL     1       0.679   0.190  22.992  0.00  0.00    +0.181 C 
ENDROOT
BRANCH  10   3
ATOM      3  O   UNL     1      -0.720   0.281  26.334  0.00  0.00    -0.388 OA
ATOM     23  H   UNL     1      -1.612   0.553  26.610  0.00  0.00    +0.210 HD
ENDBRANCH  10   3
BRANCH   9   6
ATOM      6  N   UNL     1       0.946   2.172  24.457  0.00  0.00    -0.302 NA
ATOM     22  H   UNL     1       1.645   2.404  23.750  0.00  0.00    +0.123 HD
BRANCH   6  12
ATOM      2  O   UNL     1      -0.642   4.887  24.926  0.00  0.00    -0.377 OA
ATOM     12  C   UNL     1      -0.323   2.885  24.260  0.00  0.00    +0.106 C 
ATOM     15  C   UNL     1      -0.027   4.295  23.752  0.00  0.00    +0.180 C 
ATOM     16  C   UNL     1      -0.712   3.585  25.562  0.00  0.00    +0.180 C 
ENDBRANCH   6  12
ENDBRANCH   9   6
BRANCH  11  14
ATOM     14  C   UNL     1      -2.244  -1.487  24.122  0.00  0.00    +0.140 C 
BRANCH  14   7
ATOM      4  O   UNL     1      -6.111   3.459  25.456  0.00  0.00    -0.377 OA
ATOM      5  O   UNL     1      -4.171  -1.043  26.125  0.00  0.00    -0.253 OA
ATOM      7  N   UNL     1      -3.146  -0.358  24.190  0.00  0.00    -0.297 N 
ATOM      8  N   UNL     1      -4.881   0.934  25.141  0.00  0.00    -0.281 N 
ATOM     17  C   UNL     1      -4.071  -0.212  25.216  0.00  0.00    +0.302 C 
ATOM     18  C   UNL     1      -4.933   1.887  24.023  0.00  0.00    +0.137 C 
ATOM     19  C   UNL     1      -5.890   1.164  26.177  0.00  0.00    +0.137 C 
ATOM     20  C   UNL     1      -5.027   3.320  24.536  0.00  0.00    +0.179 C 
ATOM     21  C   UNL     1      -5.916   2.624  26.599  0.00  0.00    +0.179 C 
ATOM     24  H   UNL     1      -3.075   0.312  23.437  0.00  0.00    +0.150 HD
ENDBRANCH  14   7
ENDBRANCH  11  14
TORSDOF 5
ENDMDL
MODEL 8
REMARK VINA RESULT:      -2.4     14.099     16.012
REMARK  Name = 75536837
REMARK  5 active torsions:
REMARK  status: ('A' for Active; 'I' for Inactive)
REMARK    1  A    between atoms: O_3  and  C_10
REMARK    2  A    between atoms: N_6  and  C_9
REMARK    3  A    between atoms: N_6  and  C_12
REMARK    4  A    between atoms: N_7  and  C_14
REMARK    5  A    between atoms: C_11  and  C_14
REMARK                            x       y       z     vdW  Elec       q    Type
REMARK                         _______ _______ _______ _____ _____    ______ ____
ROOT
ATOM      1  O   UNL     1      -5.335 -10.349  13.685  0.00  0.00    -0.371 OA
ATOM      9  C   UNL     1      -3.639 -10.053  12.049  0.00  0.00    +0.111 C 
ATOM     10  C   UNL     1      -4.997  -9.965  11.376  0.00  0.00    +0.164 C 
ATOM     11  C   UNL     1      -5.893  -9.642  12.563  0.00  0.00    +0.165 C 
ATOM     13  C   UNL     1      -3.995 -10.749  13.353  0.00  0.00    +0.181 C 
ENDROOT
BRANCH  10   3
ATOM      3  O   UNL     1      -5.050  -8.957  10.386  0.00  0.00    -0.388 OA
ATOM     23  H   UNL     1      -5.406  -8.147  10.791  0.00  0.00    +0.210 HD
ENDBRANCH  10   3
BRANCH   9   6
ATOM      6  N   UNL     1      -2.648 -10.779  11.272  0.00  0.00    -0.302 NA
ATOM     22  H   UNL     1      -2.744 -10.501  10.294  0.00  0.00    +0.123 HD
BRANCH   6  12
ATOM      2  O   UNL     1      -0.706  -8.594  12.523  0.00  0.00    -0.377 OA
ATOM     12  C   UNL     1      -1.309 -10.514  11.811  0.00  0.00    +0.106 C 
ATOM     15  C   UNL     1      -1.443  -9.704  13.100  0.00  0.00    +0.180 C 
ATOM     16  C   UNL     1      -0.775  -9.213  11.212  0.00  0.00    +0.180 C 
ENDBRANCH   6  12
ENDBRANCH   9   6
BRANCH  11  14
ATOM     14  C   UNL     1      -7.337 -10.062  12.358  0.00  0.00    +0.140 C 
BRANCH  14   7
ATOM      4  O   UNL     1     -10.569  -7.228  17.124  0.00  0.00    -0.377 OA
ATOM      5  O   UNL     1      -7.832 -10.781  15.033  0.00  0.00    -0.253 OA
ATOM      7  N   UNL     1      -8.224  -9.371  13.267  0.00  0.00    -0.297 N 
ATOM      8  N   UNL     1      -9.311  -9.020  15.336  0.00  0.00    -0.281 N 
ATOM     17  C   UNL     1      -8.414  -9.791  14.577  0.00  0.00    +0.302 C 
ATOM     18  C   UNL     1     -10.155  -7.926  14.832  0.00  0.00    +0.137 C 
ATOM     19  C   UNL     1      -9.577  -9.396  16.726  0.00  0.00    +0.137 C 
ATOM     20  C   UNL     1     -10.193  -6.770  15.825  0.00  0.00    +0.179 C 
ATOM     21  C   UNL     1      -9.617  -8.169  17.624  0.00  0.00    +0.179 C 
ATOM     24  H   UNL     1      -8.712  -8.571  12.887  0.00  0.00    +0.150 HD
ENDBRANCH  14   7
ENDBRANCH  11  14
TORSDOF 5
ENDMDL
MODEL 9
REMARK VINA RESULT:      -2.4      2.038      3.946
REMARK  Name = 75536837
REMARK  5 active torsions:
REMARK  status: ('A' for Active; 'I' for Inactive)
REMARK    1  A    between atoms: O_3  and  C_10
REMARK    2  A    between atoms: N_6  and  C_9
REMARK    3  A    between atoms: N_6  and  C_12
REMARK    4  A    between atoms: N_7  and  C_14
REMARK    5  A    between atoms: C_11  and  C_14
REMARK                            x       y       z     vdW  Elec       q    Type
REMARK                         _______ _______ _______ _____ _____    ______ ____
ROOT
ATOM      1  O   UNL     1      -2.315  -2.582  25.351  0.00  0.00    -0.371 OA
ATOM      9  C   UNL     1      -3.953  -1.412  24.090  0.00  0.00    +0.111 C 
ATOM     10  C   UNL     1      -2.658  -0.619  24.076  0.00  0.00    +0.164 C 
ATOM     11  C   UNL     1      -1.647  -1.702  24.431  0.00  0.00    +0.165 C 
ATOM     13  C   UNL     1      -3.729  -2.332  25.279  0.00  0.00    +0.181 C 
ENDROOT
BRANCH  10   3
ATOM      3  O   UNL     1      -2.387  -0.037  22.817  0.00  0.00    -0.388 OA
ATOM     23  H   UNL     1      -2.491   0.927  22.897  0.00  0.00    +0.210 HD
ENDBRANCH  10   3
BRANCH   9   6
ATOM      6  N   UNL     1      -5.141  -0.586  24.228  0.00  0.00    -0.302 NA
ATOM     22  H   UNL     1      -5.912  -1.186  24.524  0.00  0.00    +0.123 HD
BRANCH   6  12
ATOM      2  O   UNL     1      -5.682   2.467  24.932  0.00  0.00    -0.377 OA
ATOM     12  C   UNL     1      -4.873   0.506  25.172  0.00  0.00    +0.106 C 
ATOM     15  C   UNL     1      -6.185   1.224  25.486  0.00  0.00    +0.180 C 
ATOM     16  C   UNL     1      -4.529   1.773  24.389  0.00  0.00    +0.180 C 
ENDBRANCH   6  12
ENDBRANCH   9   6
BRANCH  11  14
ATOM     14  C   UNL     1      -0.382  -1.156  25.068  0.00  0.00    +0.140 C 
BRANCH  14   7
ATOM      4  O   UNL     1      -1.045   5.224  25.285  0.00  0.00    -0.377 OA
ATOM      5  O   UNL     1       0.538   0.926  23.413  0.00  0.00    -0.253 OA
ATOM      7  N   UNL     1      -0.498   0.258  25.348  0.00  0.00    -0.297 N 
ATOM      8  N   UNL     1      -0.197   2.557  24.890  0.00  0.00    -0.281 N 
ATOM     17  C   UNL     1      -0.016   1.226  24.476  0.00  0.00    +0.302 C 
ATOM     18  C   UNL     1      -0.704   2.996  26.198  0.00  0.00    +0.137 C 
ATOM     19  C   UNL     1       0.287   3.643  24.034  0.00  0.00    +0.137 C 
ATOM     20  C   UNL     1      -1.656   4.177  26.041  0.00  0.00    +0.179 C 
ATOM     21  C   UNL     1      -0.724   4.776  23.966  0.00  0.00    +0.179 C 
ATOM     24  H   UNL     1      -0.935   0.501  26.225  0.00  0.00    +0.150 HD
ENDBRANCH  14   7
ENDBRANCH  11  14
TORSDOF 5
ENDMDL
MODEL 10
REMARK VINA RESULT:      -2.4     16.004     17.753
REMARK  Name = 75536837
REMARK  5 active torsions:
REMARK  status: ('A' for Active; 'I' for Inactive)
REMARK    1  A    between atoms: O_3  and  C_10
REMARK    2  A    between atoms: N_6  and  C_9
REMARK    3  A    between atoms: N_6  and  C_12
REMARK    4  A    between atoms: N_7  and  C_14
REMARK    5  A    between atoms: C_11  and  C_14
REMARK                            x       y       z     vdW  Elec       q    Type
REMARK                         _______ _______ _______ _____ _____    ______ ____
ROOT
ATOM      1  O   UNL     1      -4.164 -10.518  13.478  0.00  0.00    -0.371 OA
ATOM      9  C   UNL     1      -2.339  -9.588  12.276  0.00  0.00    +0.111 C 
ATOM     10  C   UNL     1      -3.472  -9.881  11.308  0.00  0.00    +0.164 C 
ATOM     11  C   UNL     1      -4.661  -9.942  12.258  0.00  0.00    +0.165 C 
ATOM     13  C   UNL     1      -2.728 -10.454  13.464  0.00  0.00    +0.181 C 
ENDROOT
BRANCH  10   3
ATOM      3  O   UNL     1      -3.629  -8.872  10.331  0.00  0.00    -0.388 OA
ATOM     23  H   UNL     1      -3.686  -8.013  10.784  0.00  0.00    +0.210 HD
ENDBRANCH  10   3
BRANCH   9   6
ATOM      6  N   UNL     1      -1.024  -9.910  11.748  0.00  0.00    -0.302 NA
ATOM     22  H   UNL     1      -1.122 -10.699  11.108  0.00  0.00    +0.123 HD
BRANCH   6  12
ATOM      2  O   UNL     1       1.508  -7.996  11.551  0.00  0.00    -0.377 OA
ATOM     12  C   UNL     1      -0.448  -8.722  11.104  0.00  0.00    +0.106 C 
ATOM     15  C   UNL     1       0.986  -9.032  10.680  0.00  0.00    +0.180 C 
ATOM     16  C   UNL     1       0.204  -7.841  12.169  0.00  0.00    +0.180 C 
ENDBRANCH   6  12
ENDBRANCH   9   6
BRANCH  11  14
ATOM     14  C   UNL     1      -5.811 -10.777  11.727  0.00  0.00    +0.140 C 
BRANCH  14   7
ATOM      4  O   UNL     1      -9.722  -7.179   8.127  0.00  0.00    -0.377 OA
ATOM      5  O   UNL     1      -8.565 -10.209  11.864  0.00  0.00    -0.253 OA
ATOM      7  N   UNL     1      -6.575 -10.054  10.733  0.00  0.00    -0.297 N 
ATOM      8  N   UNL     1      -8.539  -9.105   9.824  0.00  0.00    -0.281 N 
ATOM     17  C   UNL     1      -7.935  -9.815  10.876  0.00  0.00    +0.302 C 
ATOM     18  C   UNL     1      -7.902  -8.734   8.551  0.00  0.00    +0.137 C 
ATOM     19  C   UNL     1      -9.973  -8.815   9.888  0.00  0.00    +0.137 C 
ATOM     20  C   UNL     1      -8.301  -7.322   8.137  0.00  0.00    +0.179 C 
ATOM     21  C   UNL     1     -10.262  -7.393   9.433  0.00  0.00    +0.179 C 
ATOM     24  H   UNL     1      -6.062  -9.748   9.918  0.00  0.00    +0.150 HD
ENDBRANCH  14   7
ENDBRANCH  11  14
TORSDOF 5
ENDMDL
