MODEL 1
REMARK VINA RESULT:      -6.2      0.000      0.000
REMARK  Name = 56775545
REMARK  10 active torsions:
REMARK  status: ('A' for Active; 'I' for Inactive)
REMARK    1  A    between atoms: O_4  and  C_20
REMARK    2  A    between atoms: O_4  and  C_22
REMARK    3  A    between atoms: O_5  and  C_21
REMARK    4  A    between atoms: N_6  and  C_8
REMARK    5  A    between atoms: N_6  and  C_12
REMARK    6  A    between atoms: C_8  and  C_11
REMARK    7  A    between atoms: C_11  and  C_13
REMARK    8  A    between atoms: C_12  and  C_14
REMARK    9  A    between atoms: C_16  and  C_20
REMARK   10  A    between atoms: C_18  and  C_21
REMARK                            x       y       z     vdW  Elec       q    Type
REMARK                         _______ _______ _______ _____ _____    ______ ____
ROOT
ATOM      1  O   UNL     1      -3.516  -3.005  24.938  0.00  0.00    -0.376 OA
ATOM      8  C   UNL     1      -2.571  -1.091  24.972  0.00  0.00    +0.072 C 
ATOM      9  C   UNL     1      -2.384  -2.422  24.252  0.00  0.00    +0.184 C 
ATOM     10  C   UNL     1      -3.691  -1.804  25.722  0.00  0.00    +0.184 C 
ENDROOT
BRANCH   8   6
ATOM      6  N   UNL     1      -3.162  -0.136  24.045  0.00  0.00    -0.300 NA
ATOM     23  H   UNL     1      -3.289  -0.477  23.092  0.00  0.00    +0.123 HD
BRANCH   6  12
ATOM     12  C   UNL     1      -4.437   0.342  24.573  0.00  0.00    +0.156 C 
BRANCH  12  14
ATOM      2  O   UNL     1      -3.146   2.365  24.975  0.00  0.00    -0.461 OA
ATOM     14  C   UNL     1      -4.382   1.802  24.936  0.00  0.00    +0.119 A 
ATOM     17  C   UNL     1      -5.347   2.730  25.251  0.00  0.00    +0.046 A 
ATOM     18  C   UNL     1      -3.324   3.668  25.319  0.00  0.00    +0.131 A 
ATOM     19  C   UNL     1      -4.659   3.943  25.500  0.00  0.00    +0.047 A 
BRANCH  18  21
ATOM     21  C   UNL     1      -2.107   4.485  25.423  0.00  0.00    +0.230 C 
BRANCH  21   5
ATOM      5  O   UNL     1      -1.084   3.958  24.574  0.00  0.00    -0.387 OA
ATOM     24  H   UNL     1      -0.771   3.135  24.987  0.00  0.00    +0.210 HD
ENDBRANCH  21   5
ENDBRANCH  18  21
ENDBRANCH  12  14
ENDBRANCH   6  12
ENDBRANCH   8   6
BRANCH   8  11
ATOM     11  C   UNL     1      -1.425  -0.519  25.748  0.00  0.00    +0.085 C 
BRANCH  11  13
ATOM      3  O   UNL     1       0.887   1.480  23.821  0.00  0.00    -0.357 OA
ATOM      7  N   UNL     1      -0.132   1.335  24.754  0.00  0.00    -0.083 NA
ATOM     13  C   UNL     1      -0.360   0.020  24.815  0.00  0.00    +0.086 A 
ATOM     15  C   UNL     1       0.478  -0.708  23.951  0.00  0.00    +0.073 A 
ATOM     16  C   UNL     1       1.242   0.257  23.350  0.00  0.00    +0.163 A 
BRANCH  16  20
ATOM     20  C   UNL     1       2.314   0.226  22.348  0.00  0.00    +0.236 C 
BRANCH  20   4
ATOM      4  O   UNL     1       3.390   1.083  22.745  0.00  0.00    -0.375 OA
ATOM     22  C   UNL     1       4.547   0.333  23.071  0.00  0.00    +0.194 C 
ENDBRANCH  20   4
ENDBRANCH  16  20
ENDBRANCH  11  13
ENDBRANCH   8  11
TORSDOF 9
ENDMDL
MODEL 2
REMARK VINA RESULT:      -5.9      1.540      4.066
REMARK  Name = 56775545
REMARK  10 active torsions:
REMARK  status: ('A' for Active; 'I' for Inactive)
REMARK    1  A    between atoms: O_4  and  C_20
REMARK    2  A    between atoms: O_4  and  C_22
REMARK    3  A    between atoms: O_5  and  C_21
REMARK    4  A    between atoms: N_6  and  C_8
REMARK    5  A    between atoms: N_6  and  C_12
REMARK    6  A    between atoms: C_8  and  C_11
REMARK    7  A    between atoms: C_11  and  C_13
REMARK    8  A    between atoms: C_12  and  C_14
REMARK    9  A    between atoms: C_16  and  C_20
REMARK   10  A    between atoms: C_18  and  C_21
REMARK                            x       y       z     vdW  Elec       q    Type
REMARK                         _______ _______ _______ _____ _____    ______ ____
ROOT
ATOM      1  O   UNL     1      -1.675   5.460  25.328  0.00  0.00    -0.376 OA
ATOM      8  C   UNL     1      -1.479   3.373  24.925  0.00  0.00    +0.072 C 
ATOM      9  C   UNL     1      -2.480   4.294  25.615  0.00  0.00    +0.184 C 
ATOM     10  C   UNL     1      -0.643   4.635  24.744  0.00  0.00    +0.184 C 
ENDROOT
BRANCH   8   6
ATOM      6  N   UNL     1      -2.020   2.979  23.631  0.00  0.00    -0.300 NA
ATOM     23  H   UNL     1      -1.675   2.091  23.267  0.00  0.00    +0.123 HD
BRANCH   6  12
ATOM     12  C   UNL     1      -3.479   2.956  23.691  0.00  0.00    +0.156 C 
BRANCH  12  14
ATOM      2  O   UNL     1      -3.536   0.523  23.704  0.00  0.00    -0.461 OA
ATOM     14  C   UNL     1      -3.996   1.668  24.274  0.00  0.00    +0.119 A 
ATOM     17  C   UNL     1      -4.868   1.381  25.298  0.00  0.00    +0.046 A 
ATOM     18  C   UNL     1      -4.121  -0.506  24.372  0.00  0.00    +0.131 A 
ATOM     19  C   UNL     1      -4.949  -0.031  25.362  0.00  0.00    +0.047 A 
BRANCH  18  21
ATOM     21  C   UNL     1      -3.766  -1.859  23.922  0.00  0.00    +0.230 C 
BRANCH  21   5
ATOM      5  O   UNL     1      -2.426  -2.173  24.310  0.00  0.00    -0.387 OA
ATOM     24  H   UNL     1      -2.182  -1.548  25.013  0.00  0.00    +0.210 HD
ENDBRANCH  21   5
ENDBRANCH  18  21
ENDBRANCH  12  14
ENDBRANCH   6  12
ENDBRANCH   8   6
BRANCH   8  11
ATOM     11  C   UNL     1      -0.905   2.223  25.692  0.00  0.00    +0.085 C 
BRANCH  11  13
ATOM      3  O   UNL     1       0.269  -0.570  23.722  0.00  0.00    -0.357 OA
ATOM      7  N   UNL     1      -0.611   0.016  24.624  0.00  0.00    -0.083 NA
ATOM     13  C   UNL     1      -0.174   1.270  24.767  0.00  0.00    +0.086 A 
ATOM     15  C   UNL     1       0.966   1.532  23.988  0.00  0.00    +0.073 A 
ATOM     16  C   UNL     1       1.203   0.342  23.350  0.00  0.00    +0.163 A 
BRANCH  16  20
ATOM     20  C   UNL     1       2.219  -0.112  22.392  0.00  0.00    +0.236 C 
BRANCH  20   4
ATOM      4  O   UNL     1       3.314   0.808  22.356  0.00  0.00    -0.375 OA
ATOM     22  C   UNL     1       4.419   0.317  23.095  0.00  0.00    +0.194 C 
ENDBRANCH  20   4
ENDBRANCH  16  20
ENDBRANCH  11  13
ENDBRANCH   8  11
TORSDOF 9
ENDMDL
MODEL 3
REMARK VINA RESULT:      -5.8      1.772      4.305
REMARK  Name = 56775545
REMARK  10 active torsions:
REMARK  status: ('A' for Active; 'I' for Inactive)
REMARK    1  A    between atoms: O_4  and  C_20
REMARK    2  A    between atoms: O_4  and  C_22
REMARK    3  A    between atoms: O_5  and  C_21
REMARK    4  A    between atoms: N_6  and  C_8
REMARK    5  A    between atoms: N_6  and  C_12
REMARK    6  A    between atoms: C_8  and  C_11
REMARK    7  A    between atoms: C_11  and  C_13
REMARK    8  A    between atoms: C_12  and  C_14
REMARK    9  A    between atoms: C_16  and  C_20
REMARK   10  A    between atoms: C_18  and  C_21
REMARK                            x       y       z     vdW  Elec       q    Type
REMARK                         _______ _______ _______ _____ _____    ______ ____
ROOT
ATOM      1  O   UNL     1      -5.681   3.790  25.992  0.00  0.00    -0.376 OA
ATOM      8  C   UNL     1      -4.138   2.734  24.963  0.00  0.00    +0.072 C 
ATOM      9  C   UNL     1      -4.246   3.699  26.139  0.00  0.00    +0.184 C 
ATOM     10  C   UNL     1      -5.639   2.954  24.813  0.00  0.00    +0.184 C 
ENDROOT
BRANCH   8   6
ATOM      6  N   UNL     1      -3.911   1.391  25.480  0.00  0.00    -0.300 NA
ATOM     23  H   UNL     1      -4.107   1.268  26.474  0.00  0.00    +0.123 HD
BRANCH   6  12
ATOM     12  C   UNL     1      -4.681   0.424  24.701  0.00  0.00    +0.156 C 
BRANCH  12  14
ATOM      2  O   UNL     1      -2.660  -0.902  24.987  0.00  0.00    -0.461 OA
ATOM     14  C   UNL     1      -3.938  -0.872  24.524  0.00  0.00    +0.119 A 
ATOM     17  C   UNL     1      -4.280  -2.086  23.972  0.00  0.00    +0.046 A 
ATOM     18  C   UNL     1      -2.182  -2.148  24.728  0.00  0.00    +0.131 A 
ATOM     19  C   UNL     1      -3.139  -2.914  24.105  0.00  0.00    +0.047 A 
BRANCH  18  21
ATOM     21  C   UNL     1      -0.799  -2.413  25.149  0.00  0.00    +0.230 C 
BRANCH  21   5
ATOM      5  O   UNL     1      -0.279  -1.295  25.873  0.00  0.00    -0.387 OA
ATOM     24  H   UNL     1       0.149  -1.650  26.670  0.00  0.00    +0.210 HD
ENDBRANCH  21   5
ENDBRANCH  18  21
ENDBRANCH  12  14
ENDBRANCH   6  12
ENDBRANCH   8   6
BRANCH   8  11
ATOM     11  C   UNL     1      -3.233   3.080  23.821  0.00  0.00    +0.085 C 
BRANCH  11  13
ATOM      3  O   UNL     1      -0.100   1.549  24.767  0.00  0.00    -0.357 OA
ATOM      7  N   UNL     1      -1.197   2.362  25.021  0.00  0.00    -0.083 NA
ATOM     13  C   UNL     1      -1.935   2.304  23.908  0.00  0.00    +0.086 A 
ATOM     15  C   UNL     1      -1.358   1.477  22.928  0.00  0.00    +0.073 A 
ATOM     16  C   UNL     1      -0.207   1.027  23.519  0.00  0.00    +0.163 A 
BRANCH  16  20
ATOM     20  C   UNL     1       0.877   0.138  23.085  0.00  0.00    +0.236 C 
BRANCH  20   4
ATOM      4  O   UNL     1       2.127   0.834  23.098  0.00  0.00    -0.375 OA
ATOM     22  C   UNL     1       3.110   0.136  22.353  0.00  0.00    +0.194 C 
ENDBRANCH  20   4
ENDBRANCH  16  20
ENDBRANCH  11  13
ENDBRANCH   8  11
TORSDOF 9
ENDMDL
MODEL 4
REMARK VINA RESULT:      -5.7      1.589      5.995
REMARK  Name = 56775545
REMARK  10 active torsions:
REMARK  status: ('A' for Active; 'I' for Inactive)
REMARK    1  A    between atoms: O_4  and  C_20
REMARK    2  A    between atoms: O_4  and  C_22
REMARK    3  A    between atoms: O_5  and  C_21
REMARK    4  A    between atoms: N_6  and  C_8
REMARK    5  A    between atoms: N_6  and  C_12
REMARK    6  A    between atoms: C_8  and  C_11
REMARK    7  A    between atoms: C_11  and  C_13
REMARK    8  A    between atoms: C_12  and  C_14
REMARK    9  A    between atoms: C_16  and  C_20
REMARK   10  A    between atoms: C_18  and  C_21
REMARK                            x       y       z     vdW  Elec       q    Type
REMARK                         _______ _______ _______ _____ _____    ______ ____
ROOT
ATOM      1  O   UNL     1      -2.112   5.318  25.821  0.00  0.00    -0.376 OA
ATOM      8  C   UNL     1      -2.405   3.391  24.952  0.00  0.00    +0.072 C 
ATOM      9  C   UNL     1      -1.569   4.634  24.669  0.00  0.00    +0.184 C 
ATOM     10  C   UNL     1      -2.999   4.210  26.092  0.00  0.00    +0.184 C 
ENDROOT
BRANCH   8   6
ATOM      6  N   UNL     1      -1.539   2.363  25.515  0.00  0.00    -0.300 NA
ATOM     23  H   UNL     1      -1.800   1.403  25.290  0.00  0.00    +0.123 HD
BRANCH   6  12
ATOM     12  C   UNL     1      -0.156   2.607  25.114  0.00  0.00    +0.156 C 
BRANCH  12  14
ATOM      2  O   UNL     1       1.663   1.635  23.822  0.00  0.00    -0.461 OA
ATOM     14  C   UNL     1       0.380   1.498  24.248  0.00  0.00    +0.119 A 
ATOM     17  C   UNL     1      -0.166   0.329  23.771  0.00  0.00    +0.046 A 
ATOM     18  C   UNL     1       1.940   0.540  23.065  0.00  0.00    +0.131 A 
ATOM     19  C   UNL     1       0.847  -0.293  23.003  0.00  0.00    +0.047 A 
BRANCH  18  21
ATOM     21  C   UNL     1       3.292   0.471  22.492  0.00  0.00    +0.230 C 
BRANCH  21   5
ATOM      5  O   UNL     1       4.269   0.751  23.497  0.00  0.00    -0.387 OA
ATOM     24  H   UNL     1       3.917   1.477  24.039  0.00  0.00    +0.210 HD
ENDBRANCH  21   5
ENDBRANCH  18  21
ENDBRANCH  12  14
ENDBRANCH   6  12
ENDBRANCH   8   6
BRANCH   8  11
ATOM     11  C   UNL     1      -3.311   2.868  23.881  0.00  0.00    +0.085 C 
BRANCH  11  13
ATOM      3  O   UNL     1      -4.561  -0.237  25.242  0.00  0.00    -0.357 OA
ATOM      7  N   UNL     1      -4.349   1.134  25.301  0.00  0.00    -0.083 NA
ATOM     13  C   UNL     1      -3.710   1.434  24.167  0.00  0.00    +0.086 A 
ATOM     15  C   UNL     1      -3.494   0.303  23.360  0.00  0.00    +0.073 A 
ATOM     16  C   UNL     1      -4.048  -0.722  24.082  0.00  0.00    +0.163 A 
BRANCH  16  20
ATOM     20  C   UNL     1      -4.187  -2.165  23.856  0.00  0.00    +0.236 C 
BRANCH  20   4
ATOM      4  O   UNL     1      -3.402  -2.894  24.804  0.00  0.00    -0.375 OA
ATOM     22  C   UNL     1      -2.021  -2.619  24.645  0.00  0.00    +0.194 C 
ENDBRANCH  20   4
ENDBRANCH  16  20
ENDBRANCH  11  13
ENDBRANCH   8  11
TORSDOF 9
ENDMDL
MODEL 5
REMARK VINA RESULT:      -4.9      1.518      2.660
REMARK  Name = 56775545
REMARK  10 active torsions:
REMARK  status: ('A' for Active; 'I' for Inactive)
REMARK    1  A    between atoms: O_4  and  C_20
REMARK    2  A    between atoms: O_4  and  C_22
REMARK    3  A    between atoms: O_5  and  C_21
REMARK    4  A    between atoms: N_6  and  C_8
REMARK    5  A    between atoms: N_6  and  C_12
REMARK    6  A    between atoms: C_8  and  C_11
REMARK    7  A    between atoms: C_11  and  C_13
REMARK    8  A    between atoms: C_12  and  C_14
REMARK    9  A    between atoms: C_16  and  C_20
REMARK   10  A    between atoms: C_18  and  C_21
REMARK                            x       y       z     vdW  Elec       q    Type
REMARK                         _______ _______ _______ _____ _____    ______ ____
ROOT
ATOM      1  O   UNL     1      -1.822  -1.974  25.239  0.00  0.00    -0.376 OA
ATOM      8  C   UNL     1      -1.150  -0.077  24.530  0.00  0.00    +0.072 C 
ATOM      9  C   UNL     1      -2.471  -0.830  24.640  0.00  0.00    +0.184 C 
ATOM     10  C   UNL     1      -0.526  -1.355  25.079  0.00  0.00    +0.184 C 
ENDROOT
BRANCH   8   6
ATOM      6  N   UNL     1      -1.108   0.947  25.565  0.00  0.00    -0.300 NA
ATOM     23  H   UNL     1      -0.281   0.928  26.163  0.00  0.00    +0.123 HD
BRANCH   6  12
ATOM     12  C   UNL     1      -1.249   2.269  24.959  0.00  0.00    +0.156 C 
BRANCH  12  14
ATOM      2  O   UNL     1      -3.663   2.041  25.173  0.00  0.00    -0.461 OA
ATOM     14  C   UNL     1      -2.595   2.878  25.249  0.00  0.00    +0.119 A 
ATOM     17  C   UNL     1      -2.999   4.149  25.589  0.00  0.00    +0.046 A 
ATOM     18  C   UNL     1      -4.761   2.786  25.467  0.00  0.00    +0.131 A 
ATOM     19  C   UNL     1      -4.406   4.088  25.730  0.00  0.00    +0.047 A 
BRANCH  18  21
ATOM     21  C   UNL     1      -6.050   2.080  25.446  0.00  0.00    +0.230 C 
BRANCH  21   5
ATOM      5  O   UNL     1      -6.574   1.969  26.771  0.00  0.00    -0.387 OA
ATOM     24  H   UNL     1      -6.690   1.020  26.951  0.00  0.00    +0.210 HD
ENDBRANCH  21   5
ENDBRANCH  18  21
ENDBRANCH  12  14
ENDBRANCH   6  12
ENDBRANCH   8   6
BRANCH   8  11
ATOM     11  C   UNL     1      -0.713   0.429  23.190  0.00  0.00    +0.085 C 
BRANCH  11  13
ATOM      3  O   UNL     1       2.680   1.605  23.589  0.00  0.00    -0.357 OA
ATOM      7  N   UNL     1       1.312   1.695  23.817  0.00  0.00    -0.083 NA
ATOM     13  C   UNL     1       0.785   0.656  23.163  0.00  0.00    +0.086 A 
ATOM     15  C   UNL     1       1.762  -0.115  22.509  0.00  0.00    +0.073 A 
ATOM     16  C   UNL     1       2.936   0.524  22.810  0.00  0.00    +0.163 A 
BRANCH  16  20
ATOM     20  C   UNL     1       4.342   0.278  22.469  0.00  0.00    +0.236 C 
BRANCH  20   4
ATOM      4  O   UNL     1       5.190   0.651  23.560  0.00  0.00    -0.375 OA
ATOM     22  C   UNL     1       5.580  -0.482  24.316  0.00  0.00    +0.194 C 
ENDBRANCH  20   4
ENDBRANCH  16  20
ENDBRANCH  11  13
ENDBRANCH   8  11
TORSDOF 9
ENDMDL
MODEL 6
REMARK VINA RESULT:      -4.8      1.340      4.961
REMARK  Name = 56775545
REMARK  10 active torsions:
REMARK  status: ('A' for Active; 'I' for Inactive)
REMARK    1  A    between atoms: O_4  and  C_20
REMARK    2  A    between atoms: O_4  and  C_22
REMARK    3  A    between atoms: O_5  and  C_21
REMARK    4  A    between atoms: N_6  and  C_8
REMARK    5  A    between atoms: N_6  and  C_12
REMARK    6  A    between atoms: C_8  and  C_11
REMARK    7  A    between atoms: C_11  and  C_13
REMARK    8  A    between atoms: C_12  and  C_14
REMARK    9  A    between atoms: C_16  and  C_20
REMARK   10  A    between atoms: C_18  and  C_21
REMARK                            x       y       z     vdW  Elec       q    Type
REMARK                         _______ _______ _______ _____ _____    ______ ____
ROOT
ATOM      1  O   UNL     1      -3.524  -3.371  25.412  0.00  0.00    -0.376 OA
ATOM      8  C   UNL     1      -3.578  -1.479  24.425  0.00  0.00    +0.072 C 
ATOM      9  C   UNL     1      -3.349  -2.001  25.839  0.00  0.00    +0.184 C 
ATOM     10  C   UNL     1      -3.842  -2.938  24.070  0.00  0.00    +0.184 C 
ENDROOT
BRANCH   8   6
ATOM      6  N   UNL     1      -2.295  -1.084  23.858  0.00  0.00    -0.300 NA
ATOM     23  H   UNL     1      -2.339  -0.349  23.152  0.00  0.00    +0.123 HD
BRANCH   6  12
ATOM     12  C   UNL     1      -1.383  -0.688  24.928  0.00  0.00    +0.156 C 
BRANCH  12  14
ATOM      2  O   UNL     1       0.657  -0.371  23.637  0.00  0.00    -0.461 OA
ATOM     14  C   UNL     1      -0.286   0.212  24.424  0.00  0.00    +0.119 A 
ATOM     17  C   UNL     1      -0.015   1.550  24.593  0.00  0.00    +0.046 A 
ATOM     18  C   UNL     1       1.539   0.607  23.300  0.00  0.00    +0.131 A 
ATOM     19  C   UNL     1       1.170   1.806  23.862  0.00  0.00    +0.047 A 
BRANCH  18  21
ATOM     21  C   UNL     1       2.659   0.202  22.439  0.00  0.00    +0.230 C 
BRANCH  21   5
ATOM      5  O   UNL     1       3.892   0.699  22.965  0.00  0.00    -0.387 OA
ATOM     24  H   UNL     1       3.670   1.443  23.550  0.00  0.00    +0.210 HD
ENDBRANCH  21   5
ENDBRANCH  18  21
ENDBRANCH  12  14
ENDBRANCH   6  12
ENDBRANCH   8   6
BRANCH   8  11
ATOM     11  C   UNL     1      -4.656  -0.466  24.192  0.00  0.00    +0.085 C 
BRANCH  11  13
ATOM      3  O   UNL     1      -3.113   2.742  23.568  0.00  0.00    -0.357 OA
ATOM      7  N   UNL     1      -3.502   1.467  23.176  0.00  0.00    -0.083 NA
ATOM     13  C   UNL     1      -4.094   0.940  24.252  0.00  0.00    +0.086 A 
ATOM     15  C   UNL     1      -4.109   1.828  25.342  0.00  0.00    +0.073 A 
ATOM     16  C   UNL     1      -3.480   2.946  24.859  0.00  0.00    +0.163 A 
BRANCH  16  20
ATOM     20  C   UNL     1      -3.144   4.252  25.439  0.00  0.00    +0.236 C 
BRANCH  20   4
ATOM      4  O   UNL     1      -1.765   4.287  25.818  0.00  0.00    -0.375 OA
ATOM     22  C   UNL     1      -1.016   5.120  24.949  0.00  0.00    +0.194 C 
ENDBRANCH  20   4
ENDBRANCH  16  20
ENDBRANCH  11  13
ENDBRANCH   8  11
TORSDOF 9
ENDMDL
MODEL 7
REMARK VINA RESULT:      -4.6      1.927      5.211
REMARK  Name = 56775545
REMARK  10 active torsions:
REMARK  status: ('A' for Active; 'I' for Inactive)
REMARK    1  A    between atoms: O_4  and  C_20
REMARK    2  A    between atoms: O_4  and  C_22
REMARK    3  A    between atoms: O_5  and  C_21
REMARK    4  A    between atoms: N_6  and  C_8
REMARK    5  A    between atoms: N_6  and  C_12
REMARK    6  A    between atoms: C_8  and  C_11
REMARK    7  A    between atoms: C_11  and  C_13
REMARK    8  A    between atoms: C_12  and  C_14
REMARK    9  A    between atoms: C_16  and  C_20
REMARK   10  A    between atoms: C_18  and  C_21
REMARK                            x       y       z     vdW  Elec       q    Type
REMARK                         _______ _______ _______ _____ _____    ______ ____
ROOT
ATOM      1  O   UNL     1      -6.297   4.521  25.833  0.00  0.00    -0.376 OA
ATOM      8  C   UNL     1      -4.709   3.278  25.134  0.00  0.00    +0.072 C 
ATOM      9  C   UNL     1      -5.198   4.706  24.913  0.00  0.00    +0.184 C 
ATOM     10  C   UNL     1      -5.944   3.132  26.016  0.00  0.00    +0.184 C 
ENDROOT
BRANCH   8   6
ATOM      6  N   UNL     1      -3.527   3.315  25.985  0.00  0.00    -0.300 NA
ATOM     23  H   UNL     1      -3.230   2.412  26.356  0.00  0.00    +0.123 HD
BRANCH   6  12
ATOM     12  C   UNL     1      -2.420   3.943  25.268  0.00  0.00    +0.156 C 
BRANCH  12  14
ATOM      2  O   UNL     1      -1.099   2.292  24.063  0.00  0.00    -0.461 OA
ATOM     14  C   UNL     1      -1.218   3.041  25.191  0.00  0.00    +0.119 A 
ATOM     17  C   UNL     1      -0.169   2.796  26.047  0.00  0.00    +0.046 A 
ATOM     18  C   UNL     1       0.039   1.561  24.200  0.00  0.00    +0.131 A 
ATOM     19  C   UNL     1       0.647   1.835  25.403  0.00  0.00    +0.047 A 
BRANCH  18  21
ATOM     21  C   UNL     1       0.375   0.666  23.084  0.00  0.00    +0.230 C 
BRANCH  21   5
ATOM      5  O   UNL     1       1.741   0.256  23.174  0.00  0.00    -0.387 OA
ATOM     24  H   UNL     1       2.258   1.044  23.411  0.00  0.00    +0.210 HD
ENDBRANCH  21   5
ENDBRANCH  18  21
ENDBRANCH  12  14
ENDBRANCH   6  12
ENDBRANCH   8   6
BRANCH   8  11
ATOM     11  C   UNL     1      -4.548   2.375  23.950  0.00  0.00    +0.085 C 
BRANCH  11  13
ATOM      3  O   UNL     1      -4.062  -0.769  25.664  0.00  0.00    -0.357 OA
ATOM      7  N   UNL     1      -4.565   0.524  25.585  0.00  0.00    -0.083 NA
ATOM     13  C   UNL     1      -4.173   0.975  24.390  0.00  0.00    +0.086 A 
ATOM     15  C   UNL     1      -3.426   0.019  23.677  0.00  0.00    +0.073 A 
ATOM     16  C   UNL     1      -3.386  -1.058  24.523  0.00  0.00    +0.163 A 
BRANCH  16  20
ATOM     20  C   UNL     1      -2.785  -2.395  24.437  0.00  0.00    +0.236 C 
BRANCH  20   4
ATOM      4  O   UNL     1      -1.367  -2.292  24.276  0.00  0.00    -0.375 OA
ATOM     22  C   UNL     1      -0.758  -1.755  25.438  0.00  0.00    +0.194 C 
ENDBRANCH  20   4
ENDBRANCH  16  20
ENDBRANCH  11  13
ENDBRANCH   8  11
TORSDOF 9
ENDMDL
MODEL 8
REMARK VINA RESULT:      -4.3      1.726      5.691
REMARK  Name = 56775545
REMARK  10 active torsions:
REMARK  status: ('A' for Active; 'I' for Inactive)
REMARK    1  A    between atoms: O_4  and  C_20
REMARK    2  A    between atoms: O_4  and  C_22
REMARK    3  A    between atoms: O_5  and  C_21
REMARK    4  A    between atoms: N_6  and  C_8
REMARK    5  A    between atoms: N_6  and  C_12
REMARK    6  A    between atoms: C_8  and  C_11
REMARK    7  A    between atoms: C_11  and  C_13
REMARK    8  A    between atoms: C_12  and  C_14
REMARK    9  A    between atoms: C_16  and  C_20
REMARK   10  A    between atoms: C_18  and  C_21
REMARK                            x       y       z     vdW  Elec       q    Type
REMARK                         _______ _______ _______ _____ _____    ______ ____
ROOT
ATOM      1  O   UNL     1       2.263   0.049  22.754  0.00  0.00    -0.376 OA
ATOM      8  C   UNL     1       0.373   0.684  23.516  0.00  0.00    +0.072 C 
ATOM      9  C   UNL     1       0.901  -0.408  22.592  0.00  0.00    +0.184 C 
ATOM     10  C   UNL     1       1.820   1.162  23.562  0.00  0.00    +0.184 C 
ENDROOT
BRANCH   8   6
ATOM      6  N   UNL     1       0.036   0.087  24.802  0.00  0.00    -0.300 NA
ATOM     23  H   UNL     1      -0.750   0.518  25.289  0.00  0.00    +0.123 HD
BRANCH   6  12
ATOM     12  C   UNL     1      -0.210  -1.343  24.634  0.00  0.00    +0.156 C 
BRANCH  12  14
ATOM      2  O   UNL     1      -2.520  -0.584  24.532  0.00  0.00    -0.461 OA
ATOM     14  C   UNL     1      -1.680  -1.653  24.548  0.00  0.00    +0.119 A 
ATOM     17  C   UNL     1      -2.392  -2.828  24.478  0.00  0.00    +0.046 A 
ATOM     18  C   UNL     1      -3.782  -1.083  24.453  0.00  0.00    +0.131 A 
ATOM     19  C   UNL     1      -3.757  -2.457  24.417  0.00  0.00    +0.047 A 
BRANCH  18  21
ATOM     21  C   UNL     1      -4.870  -0.095  24.422  0.00  0.00    +0.230 C 
BRANCH  21   5
ATOM      5  O   UNL     1      -4.892   0.655  25.638  0.00  0.00    -0.387 OA
ATOM     24  H   UNL     1      -3.977   0.687  25.966  0.00  0.00    +0.210 HD
ENDBRANCH  21   5
ENDBRANCH  18  21
ENDBRANCH  12  14
ENDBRANCH   6  12
ENDBRANCH   8   6
BRANCH   8  11
ATOM     11  C   UNL     1      -0.685   1.613  23.009  0.00  0.00    +0.085 C 
BRANCH  11  13
ATOM      3  O   UNL     1      -1.299   3.624  25.948  0.00  0.00    -0.357 OA
ATOM      7  N   UNL     1      -0.458   2.933  25.084  0.00  0.00    -0.083 NA
ATOM     13  C   UNL     1      -1.265   2.438  24.140  0.00  0.00    +0.086 A 
ATOM     15  C   UNL     1      -2.611   2.781  24.354  0.00  0.00    +0.073 A 
ATOM     16  C   UNL     1      -2.578   3.527  25.503  0.00  0.00    +0.163 A 
BRANCH  16  20
ATOM     20  C   UNL     1      -3.604   4.206  26.304  0.00  0.00    +0.236 C 
BRANCH  20   4
ATOM      4  O   UNL     1      -4.808   3.434  26.325  0.00  0.00    -0.375 OA
ATOM     22  C   UNL     1      -5.797   4.005  25.484  0.00  0.00    +0.194 C 
ENDBRANCH  20   4
ENDBRANCH  16  20
ENDBRANCH  11  13
ENDBRANCH   8  11
TORSDOF 9
ENDMDL
MODEL 9
REMARK VINA RESULT:      -4.3      1.964      3.748
REMARK  Name = 56775545
REMARK  10 active torsions:
REMARK  status: ('A' for Active; 'I' for Inactive)
REMARK    1  A    between atoms: O_4  and  C_20
REMARK    2  A    between atoms: O_4  and  C_22
REMARK    3  A    between atoms: O_5  and  C_21
REMARK    4  A    between atoms: N_6  and  C_8
REMARK    5  A    between atoms: N_6  and  C_12
REMARK    6  A    between atoms: C_8  and  C_11
REMARK    7  A    between atoms: C_11  and  C_13
REMARK    8  A    between atoms: C_12  and  C_14
REMARK    9  A    between atoms: C_16  and  C_20
REMARK   10  A    between atoms: C_18  and  C_21
REMARK                            x       y       z     vdW  Elec       q    Type
REMARK                         _______ _______ _______ _____ _____    ______ ____
ROOT
ATOM      1  O   UNL     1      -1.243   5.118  25.296  0.00  0.00    -0.376 OA
ATOM      8  C   UNL     1      -1.476   3.096  24.652  0.00  0.00    +0.072 C 
ATOM      9  C   UNL     1      -2.254   4.103  25.491  0.00  0.00    +0.184 C 
ATOM     10  C   UNL     1      -0.411   4.185  24.570  0.00  0.00    +0.184 C 
ENDROOT
BRANCH   8   6
ATOM      6  N   UNL     1      -2.120   2.973  23.351  0.00  0.00    -0.300 NA
ATOM     23  H   UNL     1      -1.583   3.336  22.563  0.00  0.00    +0.123 HD
BRANCH   6  12
ATOM     12  C   UNL     1      -2.476   1.578  23.106  0.00  0.00    +0.156 C 
BRANCH  12  14
ATOM      2  O   UNL     1      -4.445   2.104  24.436  0.00  0.00    -0.461 OA
ATOM     14  C   UNL     1      -3.617   1.128  23.979  0.00  0.00    +0.119 A 
ATOM     17  C   UNL     1      -4.024  -0.104  24.436  0.00  0.00    +0.046 A 
ATOM     18  C   UNL     1      -5.391   1.489  25.193  0.00  0.00    +0.131 A 
ATOM     19  C   UNL     1      -5.176   0.130  25.225  0.00  0.00    +0.047 A 
BRANCH  18  21
ATOM     21  C   UNL     1      -6.408   2.360  25.798  0.00  0.00    +0.230 C 
BRANCH  21   5
ATOM      5  O   UNL     1      -5.977   3.722  25.763  0.00  0.00    -0.387 OA
ATOM     24  H   UNL     1      -5.825   3.946  24.829  0.00  0.00    +0.210 HD
ENDBRANCH  21   5
ENDBRANCH  18  21
ENDBRANCH  12  14
ENDBRANCH   6  12
ENDBRANCH   8   6
BRANCH   8  11
ATOM     11  C   UNL     1      -1.118   1.773  25.254  0.00  0.00    +0.085 C 
BRANCH  11  13
ATOM      3  O   UNL     1       0.826  -0.564  23.301  0.00  0.00    -0.357 OA
ATOM      7  N   UNL     1      -0.281  -0.225  24.068  0.00  0.00    -0.083 NA
ATOM     13  C   UNL     1      -0.091   1.054  24.404  0.00  0.00    +0.086 A 
ATOM     15  C   UNL     1       1.109   1.570  23.882  0.00  0.00    +0.073 A 
ATOM     16  C   UNL     1       1.647   0.513  23.197  0.00  0.00    +0.163 A 
BRANCH  16  20
ATOM     20  C   UNL     1       2.874   0.329  22.413  0.00  0.00    +0.236 C 
BRANCH  20   4
ATOM      4  O   UNL     1       3.940   1.104  22.970  0.00  0.00    -0.375 OA
ATOM     22  C   UNL     1       5.026   0.279  23.356  0.00  0.00    +0.194 C 
ENDBRANCH  20   4
ENDBRANCH  16  20
ENDBRANCH  11  13
ENDBRANCH   8  11
TORSDOF 9
ENDMDL
MODEL 10
REMARK VINA RESULT:      -4.3      2.286      6.273
REMARK  Name = 56775545
REMARK  10 active torsions:
REMARK  status: ('A' for Active; 'I' for Inactive)
REMARK    1  A    between atoms: O_4  and  C_20
REMARK    2  A    between atoms: O_4  and  C_22
REMARK    3  A    between atoms: O_5  and  C_21
REMARK    4  A    between atoms: N_6  and  C_8
REMARK    5  A    between atoms: N_6  and  C_12
REMARK    6  A    between atoms: C_8  and  C_11
REMARK    7  A    between atoms: C_11  and  C_13
REMARK    8  A    between atoms: C_12  and  C_14
REMARK    9  A    between atoms: C_16  and  C_20
REMARK   10  A    between atoms: C_18  and  C_21
REMARK                            x       y       z     vdW  Elec       q    Type
REMARK                         _______ _______ _______ _____ _____    ______ ____
ROOT
ATOM      1  O   UNL     1      -0.197   2.384  26.991  0.00  0.00    -0.376 OA
ATOM      8  C   UNL     1      -0.106   2.236  24.863  0.00  0.00    +0.072 C 
ATOM      9  C   UNL     1       0.517   3.098  25.956  0.00  0.00    +0.184 C 
ATOM     10  C   UNL     1      -0.893   1.595  26.000  0.00  0.00    +0.184 C 
ENDROOT
BRANCH   8   6
ATOM      6  N   UNL     1       0.892   1.286  24.390  0.00  0.00    -0.300 NA
ATOM     23  H   UNL     1       1.356   0.744  25.119  0.00  0.00    +0.123 HD
BRANCH   6  12
ATOM     12  C   UNL     1       0.291   0.385  23.410  0.00  0.00    +0.156 C 
BRANCH  12  14
ATOM      2  O   UNL     1      -1.879  -0.638  23.825  0.00  0.00    -0.461 OA
ATOM     14  C   UNL     1      -0.542  -0.683  24.068  0.00  0.00    +0.119 A 
ATOM     17  C   UNL     1      -0.237  -1.738  24.895  0.00  0.00    +0.046 A 
ATOM     18  C   UNL     1      -2.433  -1.676  24.505  0.00  0.00    +0.131 A 
ATOM     19  C   UNL     1      -1.464  -2.383  25.180  0.00  0.00    +0.047 A 
BRANCH  18  21
ATOM     21  C   UNL     1      -3.890  -1.827  24.388  0.00  0.00    +0.230 C 
BRANCH  21   5
ATOM      5  O   UNL     1      -4.506  -0.550  24.208  0.00  0.00    -0.387 OA
ATOM     24  H   UNL     1      -4.683  -0.453  23.258  0.00  0.00    +0.210 HD
ENDBRANCH  21   5
ENDBRANCH  18  21
ENDBRANCH  12  14
ENDBRANCH   6  12
ENDBRANCH   8   6
BRANCH   8  11
ATOM     11  C   UNL     1      -0.850   2.905  23.749  0.00  0.00    +0.085 C 
BRANCH  11  13
ATOM      3  O   UNL     1      -4.431   2.428  23.827  0.00  0.00    -0.357 OA
ATOM      7  N   UNL     1      -3.167   2.172  23.310  0.00  0.00    -0.083 NA
ATOM     13  C   UNL     1      -2.338   2.929  24.034  0.00  0.00    +0.086 A 
ATOM     15  C   UNL     1      -3.016   3.678  25.013  0.00  0.00    +0.073 A 
ATOM     16  C   UNL     1      -4.329   3.326  24.840  0.00  0.00    +0.163 A 
BRANCH  16  20
ATOM     20  C   UNL     1      -5.580   3.712  25.503  0.00  0.00    +0.236 C 
BRANCH  20   4
ATOM      4  O   UNL     1      -5.815   2.880  26.643  0.00  0.00    -0.375 OA
ATOM     22  C   UNL     1      -6.381   1.638  26.263  0.00  0.00    +0.194 C 
ENDBRANCH  20   4
ENDBRANCH  16  20
ENDBRANCH  11  13
ENDBRANCH   8  11
TORSDOF 9
ENDMDL
