MODEL 1
REMARK VINA RESULT:      -5.2      0.000      0.000
REMARK  Name = 75367142
REMARK  5 active torsions:
REMARK  status: ('A' for Active; 'I' for Inactive)
REMARK    1  A    between atoms: O_3  and  C_16
REMARK    2  A    between atoms: N_4  and  C_6
REMARK    3  A    between atoms: C_6  and  C_9
REMARK    4  A    between atoms: C_9  and  C_10
REMARK    5  A    between atoms: C_12  and  C_13
REMARK                            x       y       z     vdW  Elec       q    Type
REMARK                         _______ _______ _______ _____ _____    ______ ____
ROOT
ATOM      2  O   UNL     1      -1.252   0.106  25.138  0.00  0.00    -0.354 OA
ATOM      5  N   UNL     1      -0.181  -0.569  24.566  0.00  0.00    -0.083 NA
ATOM     10  C   UNL     1       0.060   0.072  23.419  0.00  0.00    +0.086 A 
ATOM     11  C   UNL     1      -0.820   1.150  23.216  0.00  0.00    +0.076 A 
ATOM     12  C   UNL     1      -1.624   1.128  24.325  0.00  0.00    +0.168 A 
ENDROOT
BRANCH  12  13
ATOM     13  C   UNL     1      -2.724   1.923  24.788  0.00  0.00    +0.023 A 
ATOM     14  C   UNL     1      -4.032   1.463  24.632  0.00  0.00    +0.057 A 
ATOM     15  C   UNL     1      -2.485   3.157  25.392  0.00  0.00    +0.012 A 
ATOM     16  C   UNL     1      -5.101   2.238  25.081  0.00  0.00    +0.118 A 
ATOM     17  C   UNL     1      -3.556   3.932  25.841  0.00  0.00    +0.004 A 
ATOM     18  C   UNL     1      -4.864   3.472  25.685  0.00  0.00    +0.045 A 
BRANCH  16   3
ATOM      3  O   UNL     1      -6.377   1.790  24.928  0.00  0.00    -0.507 OA
ATOM     21  H   UNL     1      -6.420   0.859  25.207  0.00  0.00    +0.292 HD
ENDBRANCH  16   3
ENDBRANCH  12  13
BRANCH  10   9
ATOM      9  C   UNL     1       1.177  -0.393  22.513  0.00  0.00    +0.085 C 
BRANCH   9   6
ATOM      1  O   UNL     1       4.568   0.014  22.607  0.00  0.00    -0.376 OA
ATOM      6  C   UNL     1       2.467   0.299  22.871  0.00  0.00    +0.069 C 
ATOM      7  C   UNL     1       3.588  -0.500  23.547  0.00  0.00    +0.184 C 
ATOM      8  C   UNL     1       3.508   0.549  21.771  0.00  0.00    +0.184 C 
BRANCH   6   4
ATOM      4  N   UNL     1       2.269   1.547  23.613  0.00  0.00    -0.321 NA
ATOM     19  H   UNL     1       2.785   2.339  23.232  0.00  0.00    +0.119 HD
ATOM     20  H   UNL     1       2.515   1.501  24.601  0.00  0.00    +0.119 HD
ENDBRANCH   6   4
ENDBRANCH   9   6
ENDBRANCH  10   9
TORSDOF 5
ENDMDL
MODEL 2
REMARK VINA RESULT:      -4.7      1.036      1.550
REMARK  Name = 75367142
REMARK  5 active torsions:
REMARK  status: ('A' for Active; 'I' for Inactive)
REMARK    1  A    between atoms: O_3  and  C_16
REMARK    2  A    between atoms: N_4  and  C_6
REMARK    3  A    between atoms: C_6  and  C_9
REMARK    4  A    between atoms: C_9  and  C_10
REMARK    5  A    between atoms: C_12  and  C_13
REMARK                            x       y       z     vdW  Elec       q    Type
REMARK                         _______ _______ _______ _____ _____    ______ ____
ROOT
ATOM      2  O   UNL     1      -1.024  -0.459  24.816  0.00  0.00    -0.354 OA
ATOM      5  N   UNL     1       0.172  -0.880  24.247  0.00  0.00    -0.083 NA
ATOM     10  C   UNL     1       0.295  -0.159  23.129  0.00  0.00    +0.086 A 
ATOM     11  C   UNL     1      -0.783   0.725  22.943  0.00  0.00    +0.076 A 
ATOM     12  C   UNL     1      -1.583   0.496  24.031  0.00  0.00    +0.168 A 
ENDROOT
BRANCH  12  13
ATOM     13  C   UNL     1      -2.830   1.033  24.495  0.00  0.00    +0.023 A 
ATOM     14  C   UNL     1      -2.996   2.412  24.613  0.00  0.00    +0.057 A 
ATOM     15  C   UNL     1      -3.876   0.173  24.829  0.00  0.00    +0.012 A 
ATOM     16  C   UNL     1      -4.208   2.932  25.065  0.00  0.00    +0.118 A 
ATOM     17  C   UNL     1      -5.088   0.694  25.282  0.00  0.00    +0.004 A 
ATOM     18  C   UNL     1      -5.255   2.074  25.400  0.00  0.00    +0.045 A 
BRANCH  16   3
ATOM      3  O   UNL     1      -4.370   4.279  25.181  0.00  0.00    -0.507 OA
ATOM     21  H   UNL     1      -4.392   4.671  24.291  0.00  0.00    +0.292 HD
ENDBRANCH  16   3
ENDBRANCH  12  13
BRANCH  10   9
ATOM      9  C   UNL     1       1.498  -0.351  22.234  0.00  0.00    +0.085 C 
BRANCH   9   6
ATOM      1  O   UNL     1       4.829   0.149  22.811  0.00  0.00    -0.376 OA
ATOM      6  C   UNL     1       2.702   0.348  22.812  0.00  0.00    +0.069 C 
ATOM      7  C   UNL     1       3.756  -0.469  23.571  0.00  0.00    +0.184 C 
ATOM      8  C   UNL     1       3.867   0.717  21.884  0.00  0.00    +0.184 C 
BRANCH   6   4
ATOM      4  N   UNL     1       2.357   1.526  23.614  0.00  0.00    -0.321 NA
ATOM     19  H   UNL     1       2.864   2.369  23.345  0.00  0.00    +0.119 HD
ATOM     20  H   UNL     1       2.504   1.418  24.617  0.00  0.00    +0.119 HD
ENDBRANCH   6   4
ENDBRANCH   9   6
ENDBRANCH  10   9
TORSDOF 5
ENDMDL
MODEL 3
REMARK VINA RESULT:      -4.7     15.384     16.521
REMARK  Name = 75367142
REMARK  5 active torsions:
REMARK  status: ('A' for Active; 'I' for Inactive)
REMARK    1  A    between atoms: O_3  and  C_16
REMARK    2  A    between atoms: N_4  and  C_6
REMARK    3  A    between atoms: C_6  and  C_9
REMARK    4  A    between atoms: C_9  and  C_10
REMARK    5  A    between atoms: C_12  and  C_13
REMARK                            x       y       z     vdW  Elec       q    Type
REMARK                         _______ _______ _______ _____ _____    ______ ____
ROOT
ATOM      2  O   UNL     1      -3.990 -10.372  14.129  0.00  0.00    -0.354 OA
ATOM      5  N   UNL     1      -3.820 -10.490  12.755  0.00  0.00    -0.083 NA
ATOM     10  C   UNL     1      -5.055 -10.625  12.264  0.00  0.00    +0.086 A 
ATOM     11  C   UNL     1      -6.035 -10.601  13.272  0.00  0.00    +0.076 A 
ATOM     12  C   UNL     1      -5.313 -10.439  14.425  0.00  0.00    +0.168 A 
ENDROOT
BRANCH  12  13
ATOM     13  C   UNL     1      -5.646 -10.330  15.815  0.00  0.00    +0.023 A 
ATOM     14  C   UNL     1      -6.866  -9.771  16.199  0.00  0.00    +0.057 A 
ATOM     15  C   UNL     1      -4.750 -10.781  16.784  0.00  0.00    +0.012 A 
ATOM     16  C   UNL     1      -7.188  -9.664  17.552  0.00  0.00    +0.118 A 
ATOM     17  C   UNL     1      -5.073 -10.672  18.137  0.00  0.00    +0.004 A 
ATOM     18  C   UNL     1      -6.292 -10.114  18.521  0.00  0.00    +0.045 A 
BRANCH  16   3
ATOM      3  O   UNL     1      -8.378  -9.118  17.926  0.00  0.00    -0.507 OA
ATOM     21  H   UNL     1      -8.758  -9.652  18.644  0.00  0.00    +0.292 HD
ENDBRANCH  16   3
ENDBRANCH  12  13
BRANCH  10   9
ATOM      9  C   UNL     1      -5.264 -10.781  10.775  0.00  0.00    +0.085 C 
BRANCH   9   6
ATOM      1  O   UNL     1      -6.724  -8.619   8.569  0.00  0.00    -0.376 OA
ATOM      6  C   UNL     1      -5.529  -9.442  10.137  0.00  0.00    +0.069 C 
ATOM      7  C   UNL     1      -5.445  -9.304   8.611  0.00  0.00    +0.184 C 
ATOM      8  C   UNL     1      -6.980  -8.978   9.952  0.00  0.00    +0.184 C 
BRANCH   6   4
ATOM      4  N   UNL     1      -4.768  -8.349  10.748  0.00  0.00    -0.321 NA
ATOM     19  H   UNL     1      -3.799  -8.588  10.956  0.00  0.00    +0.119 HD
ATOM     20  H   UNL     1      -5.160  -7.989  11.618  0.00  0.00    +0.119 HD
ENDBRANCH   6   4
ENDBRANCH   9   6
ENDBRANCH  10   9
TORSDOF 5
ENDMDL
MODEL 4
REMARK VINA RESULT:      -4.4     15.614     16.765
REMARK  Name = 75367142
REMARK  5 active torsions:
REMARK  status: ('A' for Active; 'I' for Inactive)
REMARK    1  A    between atoms: O_3  and  C_16
REMARK    2  A    between atoms: N_4  and  C_6
REMARK    3  A    between atoms: C_6  and  C_9
REMARK    4  A    between atoms: C_9  and  C_10
REMARK    5  A    between atoms: C_12  and  C_13
REMARK                            x       y       z     vdW  Elec       q    Type
REMARK                         _______ _______ _______ _____ _____    ______ ____
ROOT
ATOM      2  O   UNL     1      -7.315  -9.383  13.433  0.00  0.00    -0.354 OA
ATOM      5  N   UNL     1      -7.518  -9.398  12.059  0.00  0.00    -0.083 NA
ATOM     10  C   UNL     1      -6.541 -10.169  11.573  0.00  0.00    +0.086 A 
ATOM     11  C   UNL     1      -5.699 -10.663  12.585  0.00  0.00    +0.076 A 
ATOM     12  C   UNL     1      -6.229 -10.139  13.735  0.00  0.00    +0.168 A 
ENDROOT
BRANCH  12  13
ATOM     13  C   UNL     1      -5.894 -10.221  15.127  0.00  0.00    +0.023 A 
ATOM     14  C   UNL     1      -6.847  -9.903  16.094  0.00  0.00    +0.057 A 
ATOM     15  C   UNL     1      -4.614 -10.617  15.513  0.00  0.00    +0.012 A 
ATOM     16  C   UNL     1      -6.520  -9.981  17.448  0.00  0.00    +0.118 A 
ATOM     17  C   UNL     1      -4.287 -10.695  16.867  0.00  0.00    +0.004 A 
ATOM     18  C   UNL     1      -5.240 -10.377  17.835  0.00  0.00    +0.045 A 
BRANCH  16   3
ATOM      3  O   UNL     1      -7.450  -9.669  18.392  0.00  0.00    -0.507 OA
ATOM     21  H   UNL     1      -8.322  -9.973  18.087  0.00  0.00    +0.292 HD
ENDBRANCH  16   3
ENDBRANCH  12  13
BRANCH  10   9
ATOM      9  C   UNL     1      -6.442 -10.418  10.086  0.00  0.00    +0.085 C 
BRANCH   9   6
ATOM      1  O   UNL     1      -3.409  -8.846   9.996  0.00  0.00    -0.376 OA
ATOM      6  C   UNL     1      -5.352  -9.570   9.481  0.00  0.00    +0.069 C 
ATOM      7  C   UNL     1      -4.762  -8.409  10.292  0.00  0.00    +0.184 C 
ATOM      8  C   UNL     1      -3.913 -10.103   9.471  0.00  0.00    +0.184 C 
BRANCH   6   4
ATOM      4  N   UNL     1      -5.675  -9.086   8.136  0.00  0.00    -0.321 NA
ATOM     19  H   UNL     1      -5.462  -9.753   7.396  0.00  0.00    +0.119 HD
ATOM     20  H   UNL     1      -5.211  -8.217   7.872  0.00  0.00    +0.119 HD
ENDBRANCH   6   4
ENDBRANCH   9   6
ENDBRANCH  10   9
TORSDOF 5
ENDMDL
MODEL 5
REMARK VINA RESULT:      -4.4      3.975      5.988
REMARK  Name = 75367142
REMARK  5 active torsions:
REMARK  status: ('A' for Active; 'I' for Inactive)
REMARK    1  A    between atoms: O_3  and  C_16
REMARK    2  A    between atoms: N_4  and  C_6
REMARK    3  A    between atoms: C_6  and  C_9
REMARK    4  A    between atoms: C_9  and  C_10
REMARK    5  A    between atoms: C_12  and  C_13
REMARK                            x       y       z     vdW  Elec       q    Type
REMARK                         _______ _______ _______ _____ _____    ______ ____
ROOT
ATOM      2  O   UNL     1      -5.079   0.959  24.615  0.00  0.00    -0.354 OA
ATOM      5  N   UNL     1      -5.219   2.341  24.638  0.00  0.00    -0.083 NA
ATOM     10  C   UNL     1      -3.982   2.817  24.464  0.00  0.00    +0.086 A 
ATOM     11  C   UNL     1      -3.031   1.791  24.327  0.00  0.00    +0.076 A 
ATOM     12  C   UNL     1      -3.772   0.644  24.430  0.00  0.00    +0.168 A 
ENDROOT
BRANCH  12  13
ATOM     13  C   UNL     1      -3.470  -0.758  24.382  0.00  0.00    +0.023 A 
ATOM     14  C   UNL     1      -2.211  -1.215  24.771  0.00  0.00    +0.057 A 
ATOM     15  C   UNL     1      -4.437  -1.663  23.945  0.00  0.00    +0.012 A 
ATOM     16  C   UNL     1      -1.918  -2.577  24.722  0.00  0.00    +0.118 A 
ATOM     17  C   UNL     1      -4.143  -3.027  23.897  0.00  0.00    +0.004 A 
ATOM     18  C   UNL     1      -2.884  -3.484  24.285  0.00  0.00    +0.045 A 
BRANCH  16   3
ATOM      3  O   UNL     1      -0.689  -3.023  25.101  0.00  0.00    -0.507 OA
ATOM     21  H   UNL     1      -0.115  -2.257  25.273  0.00  0.00    +0.292 HD
ENDBRANCH  16   3
ENDBRANCH  12  13
BRANCH  10   9
ATOM      9  C   UNL     1      -3.744   4.309  24.433  0.00  0.00    +0.085 C 
BRANCH   9   6
ATOM      1  O   UNL     1      -0.529   5.364  24.909  0.00  0.00    -0.376 OA
ATOM      6  C   UNL     1      -2.520   4.664  25.238  0.00  0.00    +0.069 C 
ATOM      7  C   UNL     1      -1.164   4.059  24.854  0.00  0.00    +0.184 C 
ATOM      8  C   UNL     1      -1.827   6.010  24.987  0.00  0.00    +0.184 C 
BRANCH   6   4
ATOM      4  N   UNL     1      -2.712   4.505  26.682  0.00  0.00    -0.321 NA
ATOM     19  H   UNL     1      -2.159   5.151  27.245  0.00  0.00    +0.119 HD
ATOM     20  H   UNL     1      -2.504   3.573  27.041  0.00  0.00    +0.119 HD
ENDBRANCH   6   4
ENDBRANCH   9   6
ENDBRANCH  10   9
TORSDOF 5
ENDMDL
MODEL 6
REMARK VINA RESULT:      -4.2      2.606      7.135
REMARK  Name = 75367142
REMARK  5 active torsions:
REMARK  status: ('A' for Active; 'I' for Inactive)
REMARK    1  A    between atoms: O_3  and  C_16
REMARK    2  A    between atoms: N_4  and  C_6
REMARK    3  A    between atoms: C_6  and  C_9
REMARK    4  A    between atoms: C_9  and  C_10
REMARK    5  A    between atoms: C_12  and  C_13
REMARK                            x       y       z     vdW  Elec       q    Type
REMARK                         _______ _______ _______ _____ _____    ______ ____
ROOT
ATOM      2  O   UNL     1      -0.735   3.677  24.710  0.00  0.00    -0.354 OA
ATOM      5  N   UNL     1      -1.728   4.434  25.319  0.00  0.00    -0.083 NA
ATOM     10  C   UNL     1      -2.652   3.548  25.701  0.00  0.00    +0.086 A 
ATOM     11  C   UNL     1      -2.299   2.229  25.363  0.00  0.00    +0.076 A 
ATOM     12  C   UNL     1      -1.086   2.367  24.742  0.00  0.00    +0.168 A 
ENDROOT
BRANCH  12  13
ATOM     13  C   UNL     1      -0.150   1.456  24.148  0.00  0.00    +0.023 A 
ATOM     14  C   UNL     1       1.147   1.879  23.856  0.00  0.00    +0.057 A 
ATOM     15  C   UNL     1      -0.538   0.148  23.861  0.00  0.00    +0.012 A 
ATOM     16  C   UNL     1       2.055   0.994  23.277  0.00  0.00    +0.118 A 
ATOM     17  C   UNL     1       0.372  -0.737  23.281  0.00  0.00    +0.004 A 
ATOM     18  C   UNL     1       1.668  -0.314  22.989  0.00  0.00    +0.045 A 
BRANCH  16   3
ATOM      3  O   UNL     1       3.320   1.408  22.992  0.00  0.00    -0.507 OA
ATOM     21  H   UNL     1       3.275   2.253  22.513  0.00  0.00    +0.292 HD
ENDBRANCH  16   3
ENDBRANCH  12  13
BRANCH  10   9
ATOM      9  C   UNL     1      -3.902   4.017  26.411  0.00  0.00    +0.085 C 
BRANCH   9   6
ATOM      1  O   UNL     1      -5.803   1.740  24.715  0.00  0.00    -0.376 OA
ATOM      6  C   UNL     1      -5.132   3.512  25.701  0.00  0.00    +0.069 C 
ATOM      7  C   UNL     1      -4.993   2.876  24.312  0.00  0.00    +0.184 C 
ATOM      8  C   UNL     1      -5.720   2.153  26.105  0.00  0.00    +0.184 C 
BRANCH   6   4
ATOM      4  N   UNL     1      -6.219   4.493  25.660  0.00  0.00    -0.321 NA
ATOM     19  H   UNL     1      -7.086   4.131  25.263  0.00  0.00    +0.119 HD
ATOM     20  H   UNL     1      -6.008   5.345  25.141  0.00  0.00    +0.119 HD
ENDBRANCH   6   4
ENDBRANCH   9   6
ENDBRANCH  10   9
TORSDOF 5
ENDMDL
MODEL 7
REMARK VINA RESULT:      -3.7     17.061     18.877
REMARK  Name = 75367142
REMARK  5 active torsions:
REMARK  status: ('A' for Active; 'I' for Inactive)
REMARK    1  A    between atoms: O_3  and  C_16
REMARK    2  A    between atoms: N_4  and  C_6
REMARK    3  A    between atoms: C_6  and  C_9
REMARK    4  A    between atoms: C_9  and  C_10
REMARK    5  A    between atoms: C_12  and  C_13
REMARK                            x       y       z     vdW  Elec       q    Type
REMARK                         _______ _______ _______ _____ _____    ______ ____
ROOT
ATOM      2  O   UNL     1      -4.278 -10.194   9.619  0.00  0.00    -0.354 OA
ATOM      5  N   UNL     1      -5.165  -9.746   8.647  0.00  0.00    -0.083 NA
ATOM     10  C   UNL     1      -6.036  -8.974   9.303  0.00  0.00    +0.086 A 
ATOM     11  C   UNL     1      -5.751  -8.898  10.678  0.00  0.00    +0.076 A 
ATOM     12  C   UNL     1      -4.637  -9.682  10.824  0.00  0.00    +0.168 A 
ENDROOT
BRANCH  12  13
ATOM     13  C   UNL     1      -3.807 -10.056  11.932  0.00  0.00    +0.023 A 
ATOM     14  C   UNL     1      -4.369 -10.240  13.195  0.00  0.00    +0.057 A 
ATOM     15  C   UNL     1      -2.436 -10.235  11.746  0.00  0.00    +0.012 A 
ATOM     16  C   UNL     1      -3.561 -10.602  14.272  0.00  0.00    +0.118 A 
ATOM     17  C   UNL     1      -1.628 -10.597  12.824  0.00  0.00    +0.004 A 
ATOM     18  C   UNL     1      -2.190 -10.781  14.087  0.00  0.00    +0.045 A 
BRANCH  16   3
ATOM      3  O   UNL     1      -4.110 -10.781  15.505  0.00  0.00    -0.507 OA
ATOM     21  H   UNL     1      -4.612  -9.984  15.745  0.00  0.00    +0.292 HD
ENDBRANCH  16   3
ENDBRANCH  12  13
BRANCH  10   9
ATOM      9  C   UNL     1      -7.165  -8.305   8.555  0.00  0.00    +0.085 C 
BRANCH   9   6
ATOM      1  O   UNL     1     -10.436  -8.894   9.349  0.00  0.00    -0.376 OA
ATOM      6  C   UNL     1      -8.427  -9.123   8.661  0.00  0.00    +0.069 C 
ATOM      7  C   UNL     1      -9.172  -9.188  10.001  0.00  0.00    +0.184 C 
ATOM      8  C   UNL     1      -9.741  -8.541   8.124  0.00  0.00    +0.184 C 
BRANCH   6   4
ATOM      4  N   UNL     1      -8.278 -10.486   8.143  0.00  0.00    -0.321 NA
ATOM     19  H   UNL     1      -7.502 -11.001   8.556  0.00  0.00    +0.119 HD
ATOM     20  H   UNL     1      -8.148 -10.547   7.133  0.00  0.00    +0.119 HD
ENDBRANCH   6   4
ENDBRANCH   9   6
ENDBRANCH  10   9
TORSDOF 5
ENDMDL
MODEL 8
REMARK VINA RESULT:      -3.7      1.573      2.023
REMARK  Name = 75367142
REMARK  5 active torsions:
REMARK  status: ('A' for Active; 'I' for Inactive)
REMARK    1  A    between atoms: O_3  and  C_16
REMARK    2  A    between atoms: N_4  and  C_6
REMARK    3  A    between atoms: C_6  and  C_9
REMARK    4  A    between atoms: C_9  and  C_10
REMARK    5  A    between atoms: C_12  and  C_13
REMARK                            x       y       z     vdW  Elec       q    Type
REMARK                         _______ _______ _______ _____ _____    ______ ____
ROOT
ATOM      2  O   UNL     1      -2.420  -0.840  24.454  0.00  0.00    -0.354 OA
ATOM      5  N   UNL     1      -1.273  -1.567  24.162  0.00  0.00    -0.083 NA
ATOM     10  C   UNL     1      -0.296  -0.659  24.093  0.00  0.00    +0.086 A 
ATOM     11  C   UNL     1      -0.763   0.646  24.330  0.00  0.00    +0.076 A 
ATOM     12  C   UNL     1      -2.104   0.476  24.552  0.00  0.00    +0.168 A 
ENDROOT
BRANCH  12  13
ATOM     13  C   UNL     1      -3.194   1.358  24.854  0.00  0.00    +0.023 A 
ATOM     14  C   UNL     1      -2.941   2.649  25.318  0.00  0.00    +0.057 A 
ATOM     15  C   UNL     1      -4.508   0.923  24.684  0.00  0.00    +0.012 A 
ATOM     16  C   UNL     1      -4.002   3.504  25.612  0.00  0.00    +0.118 A 
ATOM     17  C   UNL     1      -5.570   1.780  24.979  0.00  0.00    +0.004 A 
ATOM     18  C   UNL     1      -5.316   3.071  25.444  0.00  0.00    +0.045 A 
BRANCH  16   3
ATOM      3  O   UNL     1      -3.754   4.764  26.066  0.00  0.00    -0.507 OA
ATOM     21  H   UNL     1      -3.750   4.754  27.038  0.00  0.00    +0.292 HD
ENDBRANCH  16   3
ENDBRANCH  12  13
BRANCH  10   9
ATOM      9  C   UNL     1       1.119  -1.094  23.788  0.00  0.00    +0.085 C 
BRANCH   9   6
ATOM      1  O   UNL     1       3.345   1.357  22.939  0.00  0.00    -0.376 OA
ATOM      6  C   UNL     1       1.787  -0.104  22.868  0.00  0.00    +0.069 C 
ATOM      7  C   UNL     1       1.942   1.355  23.315  0.00  0.00    +0.184 C 
ATOM      8  C   UNL     1       3.319  -0.086  22.778  0.00  0.00    +0.184 C 
BRANCH   6   4
ATOM      4  N   UNL     1       1.244  -0.121  21.507  0.00  0.00    -0.321 NA
ATOM     19  H   UNL     1       1.768   0.453  20.847  0.00  0.00    +0.119 HD
ATOM     20  H   UNL     1       0.272   0.180  21.430  0.00  0.00    +0.119 HD
ENDBRANCH   6   4
ENDBRANCH   9   6
ENDBRANCH  10   9
TORSDOF 5
ENDMDL
MODEL 9
REMARK VINA RESULT:      -3.6     17.224     19.242
REMARK  Name = 75367142
REMARK  5 active torsions:
REMARK  status: ('A' for Active; 'I' for Inactive)
REMARK    1  A    between atoms: O_3  and  C_16
REMARK    2  A    between atoms: N_4  and  C_6
REMARK    3  A    between atoms: C_6  and  C_9
REMARK    4  A    between atoms: C_9  and  C_10
REMARK    5  A    between atoms: C_12  and  C_13
REMARK                            x       y       z     vdW  Elec       q    Type
REMARK                         _______ _______ _______ _____ _____    ______ ____
ROOT
ATOM      2  O   UNL     1      -4.646 -10.781   9.308  0.00  0.00    -0.354 OA
ATOM      5  N   UNL     1      -5.726 -10.577   8.458  0.00  0.00    -0.083 NA
ATOM     10  C   UNL     1      -6.248  -9.407   8.837  0.00  0.00    +0.086 A 
ATOM     11  C   UNL     1      -5.546  -8.833   9.912  0.00  0.00    +0.076 A 
ATOM     12  C   UNL     1      -4.549  -9.736  10.169  0.00  0.00    +0.168 A 
ENDROOT
BRANCH  12  13
ATOM     13  C   UNL     1      -3.471  -9.805  11.113  0.00  0.00    +0.023 A 
ATOM     14  C   UNL     1      -2.221  -9.281  10.785  0.00  0.00    +0.057 A 
ATOM     15  C   UNL     1      -3.674 -10.399  12.358  0.00  0.00    +0.012 A 
ATOM     16  C   UNL     1      -1.174  -9.350  11.704  0.00  0.00    +0.118 A 
ATOM     17  C   UNL     1      -2.625 -10.468  13.277  0.00  0.00    +0.004 A 
ATOM     18  C   UNL     1      -1.375  -9.944  12.949  0.00  0.00    +0.045 A 
BRANCH  16   3
ATOM      3  O   UNL     1       0.047  -8.839  11.383  0.00  0.00    -0.507 OA
ATOM     21  H   UNL     1       0.227  -8.072  11.953  0.00  0.00    +0.292 HD
ENDBRANCH  16   3
ENDBRANCH  12  13
BRANCH  10   9
ATOM      9  C   UNL     1      -7.460  -8.853   8.124  0.00  0.00    +0.085 C 
BRANCH   9   6
ATOM      1  O   UNL     1     -10.370  -8.164   9.776  0.00  0.00    -0.376 OA
ATOM      6  C   UNL     1      -8.717  -9.184   8.886  0.00  0.00    +0.069 C 
ATOM      7  C   UNL     1      -9.014  -8.455  10.203  0.00  0.00    +0.184 C 
ATOM      8  C   UNL     1     -10.050  -8.581   8.423  0.00  0.00    +0.184 C 
BRANCH   6   4
ATOM      4  N   UNL     1      -8.907 -10.622   9.094  0.00  0.00    -0.321 NA
ATOM     19  H   UNL     1      -9.861 -10.940   8.925  0.00  0.00    +0.119 HD
ATOM     20  H   UNL     1      -8.660 -10.956  10.025  0.00  0.00    +0.119 HD
ENDBRANCH   6   4
ENDBRANCH   9   6
ENDBRANCH  10   9
TORSDOF 5
ENDMDL
MODEL 10
REMARK VINA RESULT:      -3.5      3.086      5.645
REMARK  Name = 75367142
REMARK  5 active torsions:
REMARK  status: ('A' for Active; 'I' for Inactive)
REMARK    1  A    between atoms: O_3  and  C_16
REMARK    2  A    between atoms: N_4  and  C_6
REMARK    3  A    between atoms: C_6  and  C_9
REMARK    4  A    between atoms: C_9  and  C_10
REMARK    5  A    between atoms: C_12  and  C_13
REMARK                            x       y       z     vdW  Elec       q    Type
REMARK                         _______ _______ _______ _____ _____    ______ ____
ROOT
ATOM      2  O   UNL     1      -0.311   0.580  23.917  0.00  0.00    -0.354 OA
ATOM      5  N   UNL     1       0.140   1.880  24.109  0.00  0.00    -0.083 NA
ATOM     10  C   UNL     1      -0.759   2.441  24.923  0.00  0.00    +0.086 A 
ATOM     11  C   UNL     1      -1.790   1.552  25.272  0.00  0.00    +0.076 A 
ATOM     12  C   UNL     1      -1.461   0.397  24.614  0.00  0.00    +0.168 A 
ENDROOT
BRANCH  12  13
ATOM     13  C   UNL     1      -2.050  -0.907  24.514  0.00  0.00    +0.023 A 
ATOM     14  C   UNL     1      -3.378  -1.045  24.111  0.00  0.00    +0.057 A 
ATOM     15  C   UNL     1      -1.293  -2.038  24.820  0.00  0.00    +0.012 A 
ATOM     16  C   UNL     1      -3.950  -2.314  24.016  0.00  0.00    +0.118 A 
ATOM     17  C   UNL     1      -1.866  -3.307  24.724  0.00  0.00    +0.004 A 
ATOM     18  C   UNL     1      -3.194  -3.445  24.322  0.00  0.00    +0.045 A 
BRANCH  16   3
ATOM      3  O   UNL     1      -5.247  -2.448  23.624  0.00  0.00    -0.507 OA
ATOM     21  H   UNL     1      -5.619  -1.565  23.460  0.00  0.00    +0.292 HD
ENDBRANCH  16   3
ENDBRANCH  12  13
BRANCH  10   9
ATOM      9  C   UNL     1      -0.591   3.879  25.357  0.00  0.00    +0.085 C 
BRANCH   9   6
ATOM      1  O   UNL     1      -3.995   4.173  25.382  0.00  0.00    -0.376 OA
ATOM      6  C   UNL     1      -1.907   4.610  25.279  0.00  0.00    +0.069 C 
ATOM      7  C   UNL     1      -2.998   4.100  24.329  0.00  0.00    +0.184 C 
ATOM      8  C   UNL     1      -2.955   4.376  26.374  0.00  0.00    +0.184 C 
BRANCH   6   4
ATOM      4  N   UNL     1      -1.755   6.055  25.085  0.00  0.00    -0.321 NA
ATOM     19  H   UNL     1      -2.298   6.425  24.305  0.00  0.00    +0.119 HD
ATOM     20  H   UNL     1      -0.797   6.368  24.931  0.00  0.00    +0.119 HD
ENDBRANCH   6   4
ENDBRANCH   9   6
ENDBRANCH  10   9
TORSDOF 5
ENDMDL
