MODEL 1
REMARK VINA RESULT:      -1.9      0.000      0.000
REMARK  Name = 45783260
REMARK  8 active torsions:
REMARK  status: ('A' for Active; 'I' for Inactive)
REMARK    1  A    between atoms: O_3  and  C_27
REMARK    2  A    between atoms: O_3  and  C_28
REMARK    3  A    between atoms: N_4  and  C_13
REMARK    4  A    between atoms: N_5  and  C_8
REMARK    5  A    between atoms: N_5  and  C_14
REMARK    6  A    between atoms: C_9  and  C_12
REMARK    7  A    between atoms: C_14  and  C_15
REMARK    8  A    between atoms: C_16  and  C_19
REMARK                            x       y       z     vdW  Elec       q    Type
REMARK                         _______ _______ _______ _____ _____    ______ ____
ROOT
ATOM      4  N   UNL     1      -2.535  -1.227  25.037  0.00  0.00    -0.293 NA
ATOM      8  C   UNL     1      -4.523   0.077  24.735  0.00  0.00    +0.070 C 
ATOM      9  C   UNL     1      -2.327  -0.264  23.937  0.00  0.00    +0.147 C 
ATOM     10  C   UNL     1      -3.304   0.863  24.278  0.00  0.00    +0.048 C 
ATOM     11  C   UNL     1      -3.925  -1.099  25.505  0.00  0.00    +0.103 C 
ATOM     13  C   UNL     1      -2.193  -2.596  24.670  0.00  0.00    +0.105 C 
ENDROOT
BRANCH   9  12
ATOM      2  O   UNL     1      -0.707   1.564  23.918  0.00  0.00    -0.336 OA
ATOM      6  N   UNL     1       0.196  -0.461  23.601  0.00  0.00    -0.190 NA
ATOM      7  N   UNL     1       0.670   1.769  23.766  0.00  0.00    -0.056 NA
ATOM     12  C   UNL     1      -0.901   0.223  23.808  0.00  0.00    +0.245 A 
ATOM     16  C   UNL     1       1.132   0.530  23.583  0.00  0.00    +0.202 A 
BRANCH  16  19
ATOM     19  C   UNL     1       2.524   0.247  23.381  0.00  0.00    +0.023 A 
ATOM     22  C   UNL     1       3.035  -1.011  23.699  0.00  0.00    +0.015 A 
ATOM     23  C   UNL     1       3.368   1.233  22.868  0.00  0.00    +0.015 A 
ATOM     25  C   UNL     1       4.389  -1.285  23.505  0.00  0.00    +0.046 A 
ATOM     26  C   UNL     1       4.722   0.959  22.674  0.00  0.00    +0.046 A 
ATOM     27  C   UNL     1       5.232  -0.299  22.992  0.00  0.00    +0.120 A 
BRANCH  27   3
ATOM      3  O   UNL     1       6.553  -0.565  22.801  0.00  0.00    -0.495 OA
ATOM     28  C   UNL     1       7.484   0.155  23.609  0.00  0.00    +0.277 C 
ENDBRANCH  27   3
ENDBRANCH  16  19
ENDBRANCH   9  12
BRANCH   8   5
ATOM      5  N   UNL     1      -5.461   0.872  25.508  0.00  0.00    -0.308 NA
ATOM     29  H   UNL     1      -5.090   1.016  26.447  0.00  0.00    +0.123 HD
BRANCH   5  14
ATOM     14  C   UNL     1      -5.705   2.162  24.872  0.00  0.00    +0.116 C 
BRANCH  14  15
ATOM      1  F   UNL     1      -1.280   5.615  25.367  0.00  0.00    -0.205 F 
ATOM     15  C   UNL     1      -4.522   3.085  25.005  0.00  0.00    -0.033 A 
ATOM     17  C   UNL     1      -4.027   3.406  26.268  0.00  0.00    +0.008 A 
ATOM     18  C   UNL     1      -3.923   3.619  23.864  0.00  0.00    +0.008 A 
ATOM     20  C   UNL     1      -2.931   4.260  26.391  0.00  0.00    +0.038 A 
ATOM     21  C   UNL     1      -2.829   4.475  23.986  0.00  0.00    +0.038 A 
ATOM     24  C   UNL     1      -2.332   4.795  25.250  0.00  0.00    +0.123 A 
ENDBRANCH  14  15
ENDBRANCH   5  14
ENDBRANCH   8   5
TORSDOF 6
ENDMDL
MODEL 2
REMARK VINA RESULT:      -1.3      2.224      3.672
REMARK  Name = 45783260
REMARK  8 active torsions:
REMARK  status: ('A' for Active; 'I' for Inactive)
REMARK    1  A    between atoms: O_3  and  C_27
REMARK    2  A    between atoms: O_3  and  C_28
REMARK    3  A    between atoms: N_4  and  C_13
REMARK    4  A    between atoms: N_5  and  C_8
REMARK    5  A    between atoms: N_5  and  C_14
REMARK    6  A    between atoms: C_9  and  C_12
REMARK    7  A    between atoms: C_14  and  C_15
REMARK    8  A    between atoms: C_16  and  C_19
REMARK                            x       y       z     vdW  Elec       q    Type
REMARK                         _______ _______ _______ _____ _____    ______ ____
ROOT
ATOM      4  N   UNL     1      -2.748   2.014  22.698  0.00  0.00    -0.293 NA
ATOM      8  C   UNL     1      -3.648   2.902  24.735  0.00  0.00    +0.070 C 
ATOM      9  C   UNL     1      -1.645   2.299  23.637  0.00  0.00    +0.147 C 
ATOM     10  C   UNL     1      -2.325   2.202  25.005  0.00  0.00    +0.048 C 
ATOM     11  C   UNL     1      -4.009   2.454  23.319  0.00  0.00    +0.103 C 
ATOM     13  C   UNL     1      -2.541   2.597  21.379  0.00  0.00    +0.105 C 
ENDROOT
BRANCH   9  12
ATOM      2  O   UNL     1      -0.758   0.059  23.239  0.00  0.00    -0.336 OA
ATOM      6  N   UNL     1       0.812   1.611  23.615  0.00  0.00    -0.190 NA
ATOM      7  N   UNL     1       0.472  -0.605  23.165  0.00  0.00    -0.056 NA
ATOM     12  C   UNL     1      -0.468   1.360  23.506  0.00  0.00    +0.245 A 
ATOM     16  C   UNL     1       1.349   0.376  23.398  0.00  0.00    +0.202 A 
BRANCH  16  19
ATOM     19  C   UNL     1       2.766   0.155  23.419  0.00  0.00    +0.023 A 
ATOM     22  C   UNL     1       3.274  -1.078  23.827  0.00  0.00    +0.015 A 
ATOM     23  C   UNL     1       3.636   1.175  23.033  0.00  0.00    +0.015 A 
ATOM     25  C   UNL     1       4.653  -1.292  23.850  0.00  0.00    +0.046 A 
ATOM     26  C   UNL     1       5.015   0.961  23.056  0.00  0.00    +0.046 A 
ATOM     27  C   UNL     1       5.523  -0.272  23.463  0.00  0.00    +0.120 A 
BRANCH  27   3
ATOM      3  O   UNL     1       6.867  -0.480  23.484  0.00  0.00    -0.495 OA
ATOM     28  C   UNL     1       7.447  -1.095  22.334  0.00  0.00    +0.277 C 
ENDBRANCH  27   3
ENDBRANCH  16  19
ENDBRANCH   9  12
BRANCH   8   5
ATOM      5  N   UNL     1      -4.668   2.603  25.725  0.00  0.00    -0.308 NA
ATOM     29  H   UNL     1      -5.242   3.432  25.881  0.00  0.00    +0.123 HD
BRANCH   5  14
ATOM     14  C   UNL     1      -5.510   1.495  25.292  0.00  0.00    +0.116 C 
BRANCH  14  15
ATOM      1  F   UNL     1      -2.577  -3.287  24.761  0.00  0.00    -0.205 F 
ATOM     15  C   UNL     1      -4.727   0.217  25.150  0.00  0.00    -0.033 A 
ATOM     17  C   UNL     1      -4.827  -0.536  23.980  0.00  0.00    +0.008 A 
ATOM     18  C   UNL     1      -3.901  -0.215  26.188  0.00  0.00    +0.008 A 
ATOM     20  C   UNL     1      -4.100  -1.719  23.849  0.00  0.00    +0.038 A 
ATOM     21  C   UNL     1      -3.176  -1.398  26.058  0.00  0.00    +0.038 A 
ATOM     24  C   UNL     1      -3.275  -2.151  24.887  0.00  0.00    +0.123 A 
ENDBRANCH  14  15
ENDBRANCH   5  14
ENDBRANCH   8   5
TORSDOF 6
ENDMDL
MODEL 3
REMARK VINA RESULT:      -1.2      1.399      1.772
REMARK  Name = 45783260
REMARK  8 active torsions:
REMARK  status: ('A' for Active; 'I' for Inactive)
REMARK    1  A    between atoms: O_3  and  C_27
REMARK    2  A    between atoms: O_3  and  C_28
REMARK    3  A    between atoms: N_4  and  C_13
REMARK    4  A    between atoms: N_5  and  C_8
REMARK    5  A    between atoms: N_5  and  C_14
REMARK    6  A    between atoms: C_9  and  C_12
REMARK    7  A    between atoms: C_14  and  C_15
REMARK    8  A    between atoms: C_16  and  C_19
REMARK                            x       y       z     vdW  Elec       q    Type
REMARK                         _______ _______ _______ _____ _____    ______ ____
ROOT
ATOM      4  N   UNL     1      -4.188  -0.424  24.629  0.00  0.00    -0.293 NA
ATOM      8  C   UNL     1      -4.979   1.822  24.349  0.00  0.00    +0.070 C 
ATOM      9  C   UNL     1      -3.252   0.321  23.763  0.00  0.00    +0.147 C 
ATOM     10  C   UNL     1      -3.467   1.773  24.195  0.00  0.00    +0.048 C 
ATOM     11  C   UNL     1      -5.323   0.459  24.948  0.00  0.00    +0.103 C 
ATOM     13  C   UNL     1      -4.612  -1.693  24.053  0.00  0.00    +0.105 C 
ENDROOT
BRANCH   9  12
ATOM      2  O   UNL     1      -1.583  -1.228  24.646  0.00  0.00    -0.336 OA
ATOM      6  N   UNL     1      -0.729   0.420  23.392  0.00  0.00    -0.190 NA
ATOM      7  N   UNL     1      -0.198  -1.433  24.624  0.00  0.00    -0.056 NA
ATOM     12  C   UNL     1      -1.811  -0.117  23.896  0.00  0.00    +0.245 A 
ATOM     16  C   UNL     1       0.235  -0.421  23.866  0.00  0.00    +0.202 A 
BRANCH  16  19
ATOM     19  C   UNL     1       1.623  -0.225  23.561  0.00  0.00    +0.023 A 
ATOM     22  C   UNL     1       2.528  -1.274  23.720  0.00  0.00    +0.015 A 
ATOM     23  C   UNL     1       2.068   1.017  23.108  0.00  0.00    +0.015 A 
ATOM     25  C   UNL     1       3.878  -1.083  23.427  0.00  0.00    +0.046 A 
ATOM     26  C   UNL     1       3.419   1.209  22.814  0.00  0.00    +0.046 A 
ATOM     27  C   UNL     1       4.323   0.160  22.973  0.00  0.00    +0.120 A 
BRANCH  27   3
ATOM      3  O   UNL     1       5.640   0.348  22.685  0.00  0.00    -0.495 OA
ATOM     28  C   UNL     1       6.587  -0.354  23.490  0.00  0.00    +0.277 C 
ENDBRANCH  27   3
ENDBRANCH  16  19
ENDBRANCH   9  12
BRANCH   8   5
ATOM      5  N   UNL     1      -5.438   2.948  25.143  0.00  0.00    -0.308 NA
ATOM     29  H   UNL     1      -6.376   2.754  25.494  0.00  0.00    +0.123 HD
BRANCH   5  14
ATOM     14  C   UNL     1      -4.537   3.204  26.260  0.00  0.00    +0.116 C 
BRANCH  14  15
ATOM      1  F   UNL     1       0.284   5.578  24.566  0.00  0.00    -0.205 F 
ATOM     15  C   UNL     1      -3.249   3.839  25.808  0.00  0.00    -0.033 A 
ATOM     17  C   UNL     1      -2.032   3.206  26.064  0.00  0.00    +0.008 A 
ATOM     18  C   UNL     1      -3.271   5.059  25.133  0.00  0.00    +0.008 A 
ATOM     20  C   UNL     1      -0.839   3.794  25.644  0.00  0.00    +0.038 A 
ATOM     21  C   UNL     1      -2.079   5.648  24.714  0.00  0.00    +0.038 A 
ATOM     24  C   UNL     1      -0.862   5.014  24.969  0.00  0.00    +0.123 A 
ENDBRANCH  14  15
ENDBRANCH   5  14
ENDBRANCH   8   5
TORSDOF 6
ENDMDL
