MODEL 1
REMARK VINA RESULT:      -6.3      0.000      0.000
REMARK  Name = 75536810
REMARK  6 active torsions:
REMARK  status: ('A' for Active; 'I' for Inactive)
REMARK    1  A    between atoms: O_3  and  C_8
REMARK    2  A    between atoms: N_5  and  C_7
REMARK    3  A    between atoms: N_5  and  C_14
REMARK    4  A    between atoms: N_6  and  C_15
REMARK    5  A    between atoms: C_9  and  C_15
REMARK    6  A    between atoms: C_10  and  C_16
REMARK                            x       y       z     vdW  Elec       q    Type
REMARK                         _______ _______ _______ _____ _____    ______ ____
ROOT
ATOM      1  O   UNL     1      -0.692   1.181  26.092  0.00  0.00    -0.371 OA
ATOM      7  C   UNL     1      -0.631  -0.836  24.840  0.00  0.00    +0.111 C 
ATOM      8  C   UNL     1      -0.505   0.341  23.890  0.00  0.00    +0.164 C 
ATOM      9  C   UNL     1      -0.037   1.435  24.839  0.00  0.00    +0.165 C 
ATOM     13  C   UNL     1      -1.202  -0.164  26.077  0.00  0.00    +0.181 C 
ENDROOT
BRANCH   8   3
ATOM      3  O   UNL     1       0.428   0.108  22.852  0.00  0.00    -0.388 OA
ATOM     21  H   UNL     1       0.692  -0.826  22.883  0.00  0.00    +0.210 HD
ENDBRANCH   8   3
BRANCH   7   5
ATOM      5  N   UNL     1      -1.476  -1.906  24.335  0.00  0.00    -0.302 NA
ATOM     19  H   UNL     1      -1.515  -1.868  23.316  0.00  0.00    +0.123 HD
BRANCH   5  14
ATOM      2  O   UNL     1      -4.302  -2.485  23.628  0.00  0.00    -0.377 OA
ATOM     14  C   UNL     1      -2.788  -1.845  24.990  0.00  0.00    +0.106 C 
ATOM     17  C   UNL     1      -3.790  -1.191  24.036  0.00  0.00    +0.180 C 
ATOM     18  C   UNL     1      -3.558  -3.132  24.693  0.00  0.00    +0.180 C 
ENDBRANCH   5  14
ENDBRANCH   7   5
BRANCH   9  15
ATOM     15  C   UNL     1      -0.376   2.834  24.357  0.00  0.00    +0.138 C 
BRANCH  15   6
ATOM      4  O   UNL     1      -2.309   4.276  25.982  0.00  0.00    -0.276 OA
ATOM      6  N   UNL     1      -1.784   2.978  24.120  0.00  0.00    -0.313 N 
ATOM     16  C   UNL     1      -2.632   3.689  24.957  0.00  0.00    +0.216 C 
ATOM     20  H   UNL     1      -2.168   2.544  23.286  0.00  0.00    +0.149 HD
BRANCH  16  10
ATOM     10  C   UNL     1      -4.059   3.708  24.516  0.00  0.00    +0.075 C 
ATOM     11  C   UNL     1      -4.796   2.413  24.433  0.00  0.00    +0.013 C 
ATOM     12  C   UNL     1      -5.118   3.395  25.519  0.00  0.00    +0.013 C 
ENDBRANCH  16  10
ENDBRANCH  15   6
ENDBRANCH   9  15
TORSDOF 6
ENDMDL
MODEL 2
REMARK VINA RESULT:      -6.0      1.596      4.720
REMARK  Name = 75536810
REMARK  6 active torsions:
REMARK  status: ('A' for Active; 'I' for Inactive)
REMARK    1  A    between atoms: O_3  and  C_8
REMARK    2  A    between atoms: N_5  and  C_7
REMARK    3  A    between atoms: N_5  and  C_14
REMARK    4  A    between atoms: N_6  and  C_15
REMARK    5  A    between atoms: C_9  and  C_15
REMARK    6  A    between atoms: C_10  and  C_16
REMARK                            x       y       z     vdW  Elec       q    Type
REMARK                         _______ _______ _______ _____ _____    ______ ____
ROOT
ATOM      1  O   UNL     1      -1.184   1.294  23.000  0.00  0.00    -0.371 OA
ATOM      7  C   UNL     1      -1.665   2.940  24.643  0.00  0.00    +0.111 C 
ATOM      8  C   UNL     1      -1.071   1.720  25.323  0.00  0.00    +0.164 C 
ATOM      9  C   UNL     1      -0.364   1.048  24.155  0.00  0.00    +0.165 C 
ATOM     13  C   UNL     1      -2.102   2.358  23.309  0.00  0.00    +0.181 C 
ENDROOT
BRANCH   8   3
ATOM      3  O   UNL     1      -0.170   2.058  26.361  0.00  0.00    -0.388 OA
ATOM     21  H   UNL     1       0.732   2.037  26.001  0.00  0.00    +0.210 HD
ENDBRANCH   8   3
BRANCH   7   5
ATOM      5  N   UNL     1      -2.761   3.545  25.383  0.00  0.00    -0.302 NA
ATOM     19  H   UNL     1      -2.736   3.238  26.356  0.00  0.00    +0.123 HD
BRANCH   5  14
ATOM      2  O   UNL     1      -5.515   2.720  26.128  0.00  0.00    -0.377 OA
ATOM     14  C   UNL     1      -4.028   3.267  24.697  0.00  0.00    +0.106 C 
ATOM     17  C   UNL     1      -4.624   1.975  25.259  0.00  0.00    +0.180 C 
ATOM     18  C   UNL     1      -5.168   3.955  25.449  0.00  0.00    +0.180 C 
ENDBRANCH   5  14
ENDBRANCH   7   5
BRANCH   9  15
ATOM     15  C   UNL     1      -0.180  -0.447  24.343  0.00  0.00    +0.138 C 
BRANCH  15   6
ATOM      4  O   UNL     1      -1.964  -0.976  26.577  0.00  0.00    -0.276 OA
ATOM      6  N   UNL     1      -1.438  -1.137  24.313  0.00  0.00    -0.313 N 
ATOM     16  C   UNL     1      -2.225  -1.342  25.438  0.00  0.00    +0.216 C 
ATOM     20  H   UNL     1      -1.769  -1.476  23.415  0.00  0.00    +0.149 HD
BRANCH  16  10
ATOM     10  C   UNL     1      -3.495  -2.083  25.174  0.00  0.00    +0.075 C 
ATOM     11  C   UNL     1      -4.308  -1.701  23.982  0.00  0.00    +0.013 C 
ATOM     12  C   UNL     1      -3.554  -2.996  23.995  0.00  0.00    +0.013 C 
ENDBRANCH  16  10
ENDBRANCH  15   6
ENDBRANCH   9  15
TORSDOF 6
ENDMDL
MODEL 3
REMARK VINA RESULT:      -5.9      1.455      1.776
REMARK  Name = 75536810
REMARK  6 active torsions:
REMARK  status: ('A' for Active; 'I' for Inactive)
REMARK    1  A    between atoms: O_3  and  C_8
REMARK    2  A    between atoms: N_5  and  C_7
REMARK    3  A    between atoms: N_5  and  C_14
REMARK    4  A    between atoms: N_6  and  C_15
REMARK    5  A    between atoms: C_9  and  C_15
REMARK    6  A    between atoms: C_10  and  C_16
REMARK                            x       y       z     vdW  Elec       q    Type
REMARK                         _______ _______ _______ _____ _____    ______ ____
ROOT
ATOM      1  O   UNL     1      -0.487   2.707  25.685  0.00  0.00    -0.371 OA
ATOM      7  C   UNL     1      -0.861   0.747  24.398  0.00  0.00    +0.111 C 
ATOM      8  C   UNL     1      -1.763   1.855  23.887  0.00  0.00    +0.164 C 
ATOM      9  C   UNL     1      -1.043   3.087  24.416  0.00  0.00    +0.165 C 
ATOM     13  C   UNL     1      -0.491   1.272  25.775  0.00  0.00    +0.181 C 
ENDROOT
BRANCH   8   3
ATOM      3  O   UNL     1      -1.864   1.869  22.475  0.00  0.00    -0.388 OA
ATOM     21  H   UNL     1      -0.968   1.820  22.104  0.00  0.00    +0.210 HD
ENDBRANCH   8   3
BRANCH   7   5
ATOM      5  N   UNL     1      -1.505  -0.556  24.442  0.00  0.00    -0.302 NA
ATOM     19  H   UNL     1      -1.336  -1.057  23.570  0.00  0.00    +0.123 HD
BRANCH   5  14
ATOM      2  O   UNL     1      -3.827  -2.305  25.051  0.00  0.00    -0.377 OA
ATOM     14  C   UNL     1      -2.925  -0.389  24.775  0.00  0.00    +0.106 C 
ATOM     17  C   UNL     1      -3.749  -1.372  23.942  0.00  0.00    +0.180 C 
ATOM     18  C   UNL     1      -3.276  -1.306  25.948  0.00  0.00    +0.180 C 
ENDBRANCH   5  14
ENDBRANCH   7   5
BRANCH   9  15
ATOM     15  C   UNL     1      -1.957   4.287  24.595  0.00  0.00    +0.138 C 
BRANCH  15   6
ATOM      4  O   UNL     1      -3.672   3.833  26.897  0.00  0.00    -0.276 OA
ATOM      6  N   UNL     1      -3.338   3.897  24.593  0.00  0.00    -0.313 N 
ATOM     16  C   UNL     1      -4.079   3.702  25.749  0.00  0.00    +0.216 C 
ATOM     20  H   UNL     1      -3.791   3.772  23.693  0.00  0.00    +0.149 HD
BRANCH  16  10
ATOM     10  C   UNL     1      -5.497   3.300  25.511  0.00  0.00    +0.075 C 
ATOM     11  C   UNL     1      -5.763   2.029  24.775  0.00  0.00    +0.013 C 
ATOM     12  C   UNL     1      -6.035   2.119  26.247  0.00  0.00    +0.013 C 
ENDBRANCH  16  10
ENDBRANCH  15   6
ENDBRANCH   9  15
TORSDOF 6
ENDMDL
MODEL 4
REMARK VINA RESULT:      -5.8      1.929      4.746
REMARK  Name = 75536810
REMARK  6 active torsions:
REMARK  status: ('A' for Active; 'I' for Inactive)
REMARK    1  A    between atoms: O_3  and  C_8
REMARK    2  A    between atoms: N_5  and  C_7
REMARK    3  A    between atoms: N_5  and  C_14
REMARK    4  A    between atoms: N_6  and  C_15
REMARK    5  A    between atoms: C_9  and  C_15
REMARK    6  A    between atoms: C_10  and  C_16
REMARK                            x       y       z     vdW  Elec       q    Type
REMARK                         _______ _______ _______ _____ _____    ______ ____
ROOT
ATOM      1  O   UNL     1      -1.295   2.006  23.057  0.00  0.00    -0.371 OA
ATOM      7  C   UNL     1      -2.976   3.482  23.854  0.00  0.00    +0.111 C 
ATOM      8  C   UNL     1      -1.981   3.215  24.969  0.00  0.00    +0.164 C 
ATOM      9  C   UNL     1      -0.772   2.739  24.177  0.00  0.00    +0.165 C 
ATOM     13  C   UNL     1      -2.691   2.323  22.913  0.00  0.00    +0.181 C 
ENDROOT
BRANCH   8   3
ATOM      3  O   UNL     1      -1.691   4.372  25.731  0.00  0.00    -0.388 OA
ATOM     21  H   UNL     1      -0.945   4.833  25.313  0.00  0.00    +0.210 HD
ENDBRANCH   8   3
BRANCH   7   5
ATOM      5  N   UNL     1      -4.358   3.521  24.303  0.00  0.00    -0.302 NA
ATOM     19  H   UNL     1      -4.620   4.477  24.544  0.00  0.00    +0.123 HD
BRANCH   5  14
ATOM      2  O   UNL     1      -6.479   1.658  25.226  0.00  0.00    -0.377 OA
ATOM     14  C   UNL     1      -4.548   2.553  25.390  0.00  0.00    +0.106 C 
ATOM     17  C   UNL     1      -5.936   2.758  26.000  0.00  0.00    +0.180 C 
ATOM     18  C   UNL     1      -5.143   1.266  24.818  0.00  0.00    +0.180 C 
ENDBRANCH   5  14
ENDBRANCH   7   5
BRANCH   9  15
ATOM     15  C   UNL     1       0.162   1.852  24.980  0.00  0.00    +0.138 C 
BRANCH  15   6
ATOM      4  O   UNL     1       0.245  -0.734  23.655  0.00  0.00    -0.276 OA
ATOM      6  N   UNL     1      -0.489   0.640  25.387  0.00  0.00    -0.313 N 
ATOM     16  C   UNL     1      -0.391  -0.553  24.686  0.00  0.00    +0.216 C 
ATOM     20  H   UNL     1      -1.037   0.663  26.241  0.00  0.00    +0.149 HD
BRANCH  16  10
ATOM     10  C   UNL     1      -1.151  -1.687  25.291  0.00  0.00    +0.075 C 
ATOM     11  C   UNL     1      -2.632  -1.564  25.422  0.00  0.00    +0.013 C 
ATOM     12  C   UNL     1      -2.040  -2.499  24.411  0.00  0.00    +0.013 C 
ENDBRANCH  16  10
ENDBRANCH  15   6
ENDBRANCH   9  15
TORSDOF 6
ENDMDL
MODEL 5
REMARK VINA RESULT:      -5.8      1.839      3.920
REMARK  Name = 75536810
REMARK  6 active torsions:
REMARK  status: ('A' for Active; 'I' for Inactive)
REMARK    1  A    between atoms: O_3  and  C_8
REMARK    2  A    between atoms: N_5  and  C_7
REMARK    3  A    between atoms: N_5  and  C_14
REMARK    4  A    between atoms: N_6  and  C_15
REMARK    5  A    between atoms: C_9  and  C_15
REMARK    6  A    between atoms: C_10  and  C_16
REMARK                            x       y       z     vdW  Elec       q    Type
REMARK                         _______ _______ _______ _____ _____    ______ ____
ROOT
ATOM      1  O   UNL     1      -3.043  -2.172  24.509  0.00  0.00    -0.371 OA
ATOM      7  C   UNL     1      -0.914  -1.299  25.094  0.00  0.00    +0.111 C 
ATOM      8  C   UNL     1      -1.900  -0.152  24.956  0.00  0.00    +0.164 C 
ATOM      9  C   UNL     1      -3.224  -0.883  25.118  0.00  0.00    +0.165 C 
ATOM     13  C   UNL     1      -1.634  -2.405  24.342  0.00  0.00    +0.181 C 
ENDROOT
BRANCH   8   3
ATOM      3  O   UNL     1      -1.722   0.843  25.947  0.00  0.00    -0.388 OA
ATOM     21  H   UNL     1      -2.178   1.650  25.655  0.00  0.00    +0.210 HD
ENDBRANCH   8   3
BRANCH   7   5
ATOM      5  N   UNL     1       0.401  -1.005  24.549  0.00  0.00    -0.302 NA
ATOM     19  H   UNL     1       1.030  -0.708  25.295  0.00  0.00    +0.123 HD
BRANCH   5  14
ATOM      2  O   UNL     1       2.168   0.862  23.060  0.00  0.00    -0.377 OA
ATOM     14  C   UNL     1       0.272  -0.039  23.450  0.00  0.00    +0.106 C 
ATOM     17  C   UNL     1       1.003   1.249  23.833  0.00  0.00    +0.180 C 
ATOM     18  C   UNL     1       1.428  -0.238  22.469  0.00  0.00    +0.180 C 
ENDBRANCH   5  14
ENDBRANCH   7   5
BRANCH   9  15
ATOM     15  C   UNL     1      -4.391  -0.166  24.462  0.00  0.00    +0.138 C 
BRANCH  15   6
ATOM      4  O   UNL     1      -6.080   1.687  25.934  0.00  0.00    -0.276 OA
ATOM      6  N   UNL     1      -4.249   1.259  24.559  0.00  0.00    -0.313 N 
ATOM     16  C   UNL     1      -5.110   2.066  25.289  0.00  0.00    +0.216 C 
ATOM     20  H   UNL     1      -3.466   1.689  24.075  0.00  0.00    +0.149 HD
BRANCH  16  10
ATOM     10  C   UNL     1      -4.772   3.520  25.251  0.00  0.00    +0.075 C 
ATOM     11  C   UNL     1      -3.482   3.968  25.852  0.00  0.00    +0.013 C 
ATOM     12  C   UNL     1      -3.660   3.969  24.363  0.00  0.00    +0.013 C 
ENDBRANCH  16  10
ENDBRANCH  15   6
ENDBRANCH   9  15
TORSDOF 6
ENDMDL
MODEL 6
REMARK VINA RESULT:      -5.2      3.198      5.992
REMARK  Name = 75536810
REMARK  6 active torsions:
REMARK  status: ('A' for Active; 'I' for Inactive)
REMARK    1  A    between atoms: O_3  and  C_8
REMARK    2  A    between atoms: N_5  and  C_7
REMARK    3  A    between atoms: N_5  and  C_14
REMARK    4  A    between atoms: N_6  and  C_15
REMARK    5  A    between atoms: C_9  and  C_15
REMARK    6  A    between atoms: C_10  and  C_16
REMARK                            x       y       z     vdW  Elec       q    Type
REMARK                         _______ _______ _______ _____ _____    ______ ____
ROOT
ATOM      1  O   UNL     1       0.671   1.910  24.276  0.00  0.00    -0.371 OA
ATOM      7  C   UNL     1      -1.406   1.223  25.199  0.00  0.00    +0.111 C 
ATOM      8  C   UNL     1      -0.985   0.229  24.132  0.00  0.00    +0.164 C 
ATOM      9  C   UNL     1       0.511   0.500  24.053  0.00  0.00    +0.165 C 
ATOM     13  C   UNL     1      -0.545   2.425  24.847  0.00  0.00    +0.181 C 
ENDROOT
BRANCH   8   3
ATOM      3  O   UNL     1      -1.260  -1.111  24.495  0.00  0.00    -0.388 OA
ATOM     21  H   UNL     1      -1.536  -1.593  23.698  0.00  0.00    +0.210 HD
ENDBRANCH   8   3
BRANCH   7   5
ATOM      5  N   UNL     1      -2.828   1.523  25.188  0.00  0.00    -0.302 NA
ATOM     19  H   UNL     1      -3.318   0.867  24.580  0.00  0.00    +0.123 HD
BRANCH   5  14
ATOM      2  O   UNL     1      -5.109   3.408  24.927  0.00  0.00    -0.377 OA
ATOM     14  C   UNL     1      -3.030   2.934  24.836  0.00  0.00    +0.106 C 
ATOM     17  C   UNL     1      -4.200   3.040  23.857  0.00  0.00    +0.180 C 
ATOM     18  C   UNL     1      -3.993   3.569  25.840  0.00  0.00    +0.180 C 
ENDBRANCH   5  14
ENDBRANCH   7   5
BRANCH   9  15
ATOM     15  C   UNL     1       1.120   0.119  22.716  0.00  0.00    +0.138 C 
BRANCH  15   6
ATOM      4  O   UNL     1       3.441   1.870  22.738  0.00  0.00    -0.276 OA
ATOM      6  N   UNL     1       2.498  -0.257  22.858  0.00  0.00    -0.313 N 
ATOM     16  C   UNL     1       3.544   0.655  22.856  0.00  0.00    +0.216 C 
ATOM     20  H   UNL     1       2.707  -1.243  22.979  0.00  0.00    +0.149 HD
BRANCH  16  10
ATOM     10  C   UNL     1       4.895   0.042  23.019  0.00  0.00    +0.075 C 
ATOM     11  C   UNL     1       5.664   0.329  24.266  0.00  0.00    +0.013 C 
ATOM     12  C   UNL     1       5.072  -1.030  24.042  0.00  0.00    +0.013 C 
ENDBRANCH  16  10
ENDBRANCH  15   6
ENDBRANCH   9  15
TORSDOF 6
ENDMDL
MODEL 7
REMARK VINA RESULT:      -5.0      2.451      4.200
REMARK  Name = 75536810
REMARK  6 active torsions:
REMARK  status: ('A' for Active; 'I' for Inactive)
REMARK    1  A    between atoms: O_3  and  C_8
REMARK    2  A    between atoms: N_5  and  C_7
REMARK    3  A    between atoms: N_5  and  C_14
REMARK    4  A    between atoms: N_6  and  C_15
REMARK    5  A    between atoms: C_9  and  C_15
REMARK    6  A    between atoms: C_10  and  C_16
REMARK                            x       y       z     vdW  Elec       q    Type
REMARK                         _______ _______ _______ _____ _____    ______ ____
ROOT
ATOM      1  O   UNL     1      -3.817   3.474  23.924  0.00  0.00    -0.371 OA
ATOM      7  C   UNL     1      -5.262   1.676  24.490  0.00  0.00    +0.111 C 
ATOM      8  C   UNL     1      -4.877   2.420  25.756  0.00  0.00    +0.164 C 
ATOM      9  C   UNL     1      -4.440   3.762  25.186  0.00  0.00    +0.165 C 
ATOM     13  C   UNL     1      -4.180   2.139  23.529  0.00  0.00    +0.181 C 
ENDROOT
BRANCH   8   3
ATOM      3  O   UNL     1      -5.957   2.557  26.659  0.00  0.00    -0.388 OA
ATOM     21  H   UNL     1      -5.868   3.411  27.114  0.00  0.00    +0.210 HD
ENDBRANCH   8   3
BRANCH   7   5
ATOM      5  N   UNL     1      -5.298   0.232  24.651  0.00  0.00    -0.302 NA
ATOM     19  H   UNL     1      -5.612  -0.007  25.591  0.00  0.00    +0.123 HD
BRANCH   5  14
ATOM      2  O   UNL     1      -3.749  -2.236  25.228  0.00  0.00    -0.377 OA
ATOM     14  C   UNL     1      -3.992  -0.334  24.290  0.00  0.00    +0.106 C 
ATOM     17  C   UNL     1      -3.325  -0.887  25.551  0.00  0.00    +0.180 C 
ATOM     18  C   UNL     1      -4.169  -1.803  23.908  0.00  0.00    +0.180 C 
ENDBRANCH   5  14
ENDBRANCH   7   5
BRANCH   9  15
ATOM     15  C   UNL     1      -3.465   4.506  26.081  0.00  0.00    +0.138 C 
BRANCH  15   6
ATOM      4  O   UNL     1      -1.048   5.275  24.661  0.00  0.00    -0.276 OA
ATOM      6  N   UNL     1      -2.186   3.856  26.116  0.00  0.00    -0.313 N 
ATOM     16  C   UNL     1      -1.084   4.298  25.399  0.00  0.00    +0.216 C 
ATOM     20  H   UNL     1      -2.089   3.038  26.709  0.00  0.00    +0.149 HD
BRANCH  16  10
ATOM     10  C   UNL     1       0.144   3.470  25.585  0.00  0.00    +0.075 C 
ATOM     11  C   UNL     1       0.086   2.309  26.521  0.00  0.00    +0.013 C 
ATOM     12  C   UNL     1       0.154   2.080  25.041  0.00  0.00    +0.013 C 
ENDBRANCH  16  10
ENDBRANCH  15   6
ENDBRANCH   9  15
TORSDOF 6
ENDMDL
MODEL 8
REMARK VINA RESULT:      -5.0      1.672      4.403
REMARK  Name = 75536810
REMARK  6 active torsions:
REMARK  status: ('A' for Active; 'I' for Inactive)
REMARK    1  A    between atoms: O_3  and  C_8
REMARK    2  A    between atoms: N_5  and  C_7
REMARK    3  A    between atoms: N_5  and  C_14
REMARK    4  A    between atoms: N_6  and  C_15
REMARK    5  A    between atoms: C_9  and  C_15
REMARK    6  A    between atoms: C_10  and  C_16
REMARK                            x       y       z     vdW  Elec       q    Type
REMARK                         _______ _______ _______ _____ _____    ______ ____
ROOT
ATOM      1  O   UNL     1      -1.011  -1.380  23.447  0.00  0.00    -0.371 OA
ATOM      7  C   UNL     1       0.057   0.172  24.892  0.00  0.00    +0.111 C 
ATOM      8  C   UNL     1      -1.200  -0.347  25.565  0.00  0.00    +0.164 C 
ATOM      9  C   UNL     1      -1.432  -1.640  24.796  0.00  0.00    +0.165 C 
ATOM     13  C   UNL     1      -0.210  -0.185  23.440  0.00  0.00    +0.181 C 
ENDROOT
BRANCH   8   3
ATOM      3  O   UNL     1      -1.022  -0.582  26.949  0.00  0.00    -0.388 OA
ATOM     21  H   UNL     1      -0.131  -0.944  27.085  0.00  0.00    +0.210 HD
ENDBRANCH   8   3
BRANCH   7   5
ATOM      5  N   UNL     1       0.281   1.594  25.094  0.00  0.00    -0.302 NA
ATOM     19  H   UNL     1       0.613   1.764  26.043  0.00  0.00    +0.123 HD
BRANCH   5  14
ATOM      2  O   UNL     1      -0.695   4.395  25.256  0.00  0.00    -0.377 OA
ATOM     14  C   UNL     1      -0.934   2.337  24.739  0.00  0.00    +0.106 C 
ATOM     17  C   UNL     1      -1.314   3.254  25.904  0.00  0.00    +0.180 C 
ATOM     18  C   UNL     1      -0.541   3.633  24.030  0.00  0.00    +0.180 C 
ENDBRANCH   5  14
ENDBRANCH   7   5
BRANCH   9  15
ATOM     15  C   UNL     1      -2.882  -2.092  24.802  0.00  0.00    +0.138 C 
BRANCH  15   6
ATOM      4  O   UNL     1      -3.845   0.347  23.547  0.00  0.00    -0.276 OA
ATOM      6  N   UNL     1      -3.738  -1.092  25.375  0.00  0.00    -0.313 N 
ATOM     16  C   UNL     1      -4.147   0.046  24.695  0.00  0.00    +0.216 C 
ATOM     20  H   UNL     1      -4.068  -1.242  26.324  0.00  0.00    +0.149 HD
BRANCH  16  10
ATOM     10  C   UNL     1      -5.037   0.948  25.484  0.00  0.00    +0.075 C 
ATOM     11  C   UNL     1      -4.886   2.423  25.317  0.00  0.00    +0.013 C 
ATOM     12  C   UNL     1      -6.088   1.721  24.761  0.00  0.00    +0.013 C 
ENDBRANCH  16  10
ENDBRANCH  15   6
ENDBRANCH   9  15
TORSDOF 6
ENDMDL
MODEL 9
REMARK VINA RESULT:      -4.6      2.685      4.615
REMARK  Name = 75536810
REMARK  6 active torsions:
REMARK  status: ('A' for Active; 'I' for Inactive)
REMARK    1  A    between atoms: O_3  and  C_8
REMARK    2  A    between atoms: N_5  and  C_7
REMARK    3  A    between atoms: N_5  and  C_14
REMARK    4  A    between atoms: N_6  and  C_15
REMARK    5  A    between atoms: C_9  and  C_15
REMARK    6  A    between atoms: C_10  and  C_16
REMARK                            x       y       z     vdW  Elec       q    Type
REMARK                         _______ _______ _______ _____ _____    ______ ____
ROOT
ATOM      1  O   UNL     1      -0.943  -1.022  23.716  0.00  0.00    -0.371 OA
ATOM      7  C   UNL     1       1.013   0.274  24.077  0.00  0.00    +0.111 C 
ATOM      8  C   UNL     1      -0.182   1.009  24.657  0.00  0.00    +0.164 C 
ATOM      9  C   UNL     1      -1.177  -0.132  24.819  0.00  0.00    +0.165 C 
ATOM     13  C   UNL     1       0.335  -0.708  23.136  0.00  0.00    +0.181 C 
ENDROOT
BRANCH   8   3
ATOM      3  O   UNL     1       0.108   1.635  25.892  0.00  0.00    -0.388 OA
ATOM     21  H   UNL     1       0.769   1.098  26.359  0.00  0.00    +0.210 HD
ENDBRANCH   8   3
BRANCH   7   5
ATOM      5  N   UNL     1       1.961   1.145  23.401  0.00  0.00    -0.302 NA
ATOM     19  H   UNL     1       1.462   1.881  22.900  0.00  0.00    +0.123 HD
BRANCH   5  14
ATOM      2  O   UNL     1       4.810   0.308  23.404  0.00  0.00    -0.377 OA
ATOM     14  C   UNL     1       2.851   0.339  22.557  0.00  0.00    +0.106 C 
ATOM     17  C   UNL     1       4.169   1.092  22.365  0.00  0.00    +0.180 C 
ATOM     18  C   UNL     1       3.674  -0.595  23.444  0.00  0.00    +0.180 C 
ENDBRANCH   5  14
ENDBRANCH   7   5
BRANCH   9  15
ATOM     15  C   UNL     1      -2.624   0.327  24.811  0.00  0.00    +0.138 C 
BRANCH  15   6
ATOM      4  O   UNL     1      -3.330   2.505  23.019  0.00  0.00    -0.276 OA
ATOM      6  N   UNL     1      -2.732   1.722  25.130  0.00  0.00    -0.313 N 
ATOM     16  C   UNL     1      -3.077   2.695  24.202  0.00  0.00    +0.216 C 
ATOM     20  H   UNL     1      -2.558   2.001  26.091  0.00  0.00    +0.149 HD
BRANCH  16  10
ATOM     10  C   UNL     1      -3.130   4.081  24.755  0.00  0.00    +0.075 C 
ATOM     11  C   UNL     1      -2.909   4.274  26.217  0.00  0.00    +0.013 C 
ATOM     12  C   UNL     1      -1.863   4.705  25.234  0.00  0.00    +0.013 C 
ENDBRANCH  16  10
ENDBRANCH  15   6
ENDBRANCH   9  15
TORSDOF 6
ENDMDL
MODEL 10
REMARK VINA RESULT:      -4.6      2.729      5.559
REMARK  Name = 75536810
REMARK  6 active torsions:
REMARK  status: ('A' for Active; 'I' for Inactive)
REMARK    1  A    between atoms: O_3  and  C_8
REMARK    2  A    between atoms: N_5  and  C_7
REMARK    3  A    between atoms: N_5  and  C_14
REMARK    4  A    between atoms: N_6  and  C_15
REMARK    5  A    between atoms: C_9  and  C_15
REMARK    6  A    between atoms: C_10  and  C_16
REMARK                            x       y       z     vdW  Elec       q    Type
REMARK                         _______ _______ _______ _____ _____    ______ ____
ROOT
ATOM      1  O   UNL     1      -1.384   1.898  22.932  0.00  0.00    -0.371 OA
ATOM      7  C   UNL     1      -2.995   3.431  23.767  0.00  0.00    +0.111 C 
ATOM      8  C   UNL     1      -1.907   3.238  24.808  0.00  0.00    +0.164 C 
ATOM      9  C   UNL     1      -0.770   2.705  23.950  0.00  0.00    +0.165 C 
ATOM     13  C   UNL     1      -2.788   2.209  22.887  0.00  0.00    +0.181 C 
ENDROOT
BRANCH   8   3
ATOM      3  O   UNL     1      -1.556   4.443  25.461  0.00  0.00    -0.388 OA
ATOM     21  H   UNL     1      -0.850   4.873  24.949  0.00  0.00    +0.210 HD
ENDBRANCH   8   3
BRANCH   7   5
ATOM      5  N   UNL     1      -4.333   3.505  24.328  0.00  0.00    -0.302 NA
ATOM     19  H   UNL     1      -4.539   4.462  24.616  0.00  0.00    +0.123 HD
BRANCH   5  14
ATOM      2  O   UNL     1      -6.424   1.652  25.338  0.00  0.00    -0.377 OA
ATOM     14  C   UNL     1      -4.471   2.512  25.401  0.00  0.00    +0.106 C 
ATOM     17  C   UNL     1      -5.813   2.723  26.104  0.00  0.00    +0.180 C 
ATOM     18  C   UNL     1      -5.123   1.250  24.836  0.00  0.00    +0.180 C 
ENDBRANCH   5  14
ENDBRANCH   7   5
BRANCH   9  15
ATOM     15  C   UNL     1       0.233   1.873  24.729  0.00  0.00    +0.138 C 
BRANCH  15   6
ATOM      4  O   UNL     1       0.639  -0.605  23.263  0.00  0.00    -0.276 OA
ATOM      6  N   UNL     1       1.359   1.513  23.914  0.00  0.00    -0.313 N 
ATOM     16  C   UNL     1       1.465   0.300  23.249  0.00  0.00    +0.216 C 
ATOM     20  H   UNL     1       2.105   2.194  23.815  0.00  0.00    +0.149 HD
BRANCH  16  10
ATOM     10  C   UNL     1       2.722   0.140  22.459  0.00  0.00    +0.075 C 
ATOM     11  C   UNL     1       3.857   1.070  22.728  0.00  0.00    +0.013 C 
ATOM     12  C   UNL     1       3.941  -0.364  23.156  0.00  0.00    +0.013 C 
ENDBRANCH  16  10
ENDBRANCH  15   6
ENDBRANCH   9  15
TORSDOF 6
ENDMDL
