MODEL 1
REMARK VINA RESULT:      -0.3      0.000      0.000
REMARK  Name = 45784171
REMARK  5 active torsions:
REMARK  status: ('A' for Active; 'I' for Inactive)
REMARK    1  A    between atoms: O_3  and  C_25
REMARK    2  A    between atoms: N_5  and  C_11
REMARK    3  A    between atoms: C_7  and  C_12
REMARK    4  A    between atoms: C_11  and  C_13
REMARK    5  A    between atoms: C_22  and  C_25
REMARK                            x       y       z     vdW  Elec       q    Type
REMARK                         _______ _______ _______ _____ _____    ______ ____
ROOT
ATOM      5  N   UNL     1      -3.470  -0.705  24.670  0.00  0.00    -0.297 NA
ATOM      7  C   UNL     1      -1.388  -1.489  23.929  0.00  0.00    +0.090 C 
ATOM      8  C   UNL     1      -1.718  -2.116  25.295  0.00  0.00    +0.029 C 
ATOM      9  C   UNL     1      -2.363  -0.311  23.797  0.00  0.00    +0.097 C 
ATOM     10  C   UNL     1      -2.831  -1.249  25.868  0.00  0.00    +0.085 C 
ENDROOT
BRANCH   7  12
ATOM      1 CL   UNL     1       6.059  -0.149  23.297  0.00  0.00    -0.083 Cl
ATOM      2  O   UNL     1       0.264   0.175  23.265  0.00  0.00    -0.439 OA
ATOM      6  N   UNL     1       1.141  -1.783  23.999  0.00  0.00    -0.213 NA
ATOM     12  C   UNL     1       0.056  -1.082  23.749  0.00  0.00    +0.201 A 
ATOM     14  C   UNL     1       2.158  -0.924  23.654  0.00  0.00    +0.111 A 
ATOM     15  C   UNL     1       1.624   0.275  23.206  0.00  0.00    +0.155 A 
ATOM     18  C   UNL     1       3.551  -1.077  23.690  0.00  0.00    +0.051 A 
ATOM     19  C   UNL     1       2.375   1.363  22.778  0.00  0.00    +0.050 A 
ATOM     23  C   UNL     1       4.342   0.001  23.266  0.00  0.00    +0.043 A 
ATOM     24  C   UNL     1       3.763   1.196  22.820  0.00  0.00    +0.024 A 
ENDBRANCH   7  12
BRANCH   5  11
ATOM     11  C   UNL     1      -4.361   0.405  24.973  0.00  0.00    +0.119 C 
BRANCH  11  13
ATOM     13  C   UNL     1      -3.633   1.722  24.987  0.00  0.00    -0.033 A 
ATOM     16  C   UNL     1      -2.320   1.787  25.455  0.00  0.00    +0.006 A 
ATOM     17  C   UNL     1      -4.268   2.877  24.531  0.00  0.00    +0.006 A 
ATOM     20  C   UNL     1      -1.644   3.007  25.468  0.00  0.00    +0.015 A 
ATOM     21  C   UNL     1      -3.593   4.096  24.544  0.00  0.00    +0.015 A 
ATOM     22  C   UNL     1      -2.280   4.162  25.013  0.00  0.00    +0.059 A 
BRANCH  22  25
ATOM      4  O   UNL     1      -2.090   6.536  25.249  0.00  0.00    -0.245 OA
ATOM     25  C   UNL     1      -1.576   5.434  25.024  0.00  0.00    +0.337 C 
BRANCH  25   3
ATOM      3  O   UNL     1      -0.249   5.297  24.752  0.00  0.00    -0.477 OA
ATOM     26  H   UNL     1       0.154   6.145  24.466  0.00  0.00    +0.295 HD
ENDBRANCH  25   3
ENDBRANCH  22  25
ENDBRANCH  11  13
ENDBRANCH   5  11
TORSDOF 5
ENDMDL
MODEL 2
REMARK VINA RESULT:       0.9      3.865      7.824
REMARK  Name = 45784171
REMARK  5 active torsions:
REMARK  status: ('A' for Active; 'I' for Inactive)
REMARK    1  A    between atoms: O_3  and  C_25
REMARK    2  A    between atoms: N_5  and  C_11
REMARK    3  A    between atoms: C_7  and  C_12
REMARK    4  A    between atoms: C_11  and  C_13
REMARK    5  A    between atoms: C_22  and  C_25
REMARK                            x       y       z     vdW  Elec       q    Type
REMARK                         _______ _______ _______ _____ _____    ______ ____
ROOT
ATOM      5  N   UNL     1       0.352  -0.692  23.866  0.00  0.00    -0.297 NA
ATOM      7  C   UNL     1      -1.230   0.271  25.306  0.00  0.00    +0.090 C 
ATOM      8  C   UNL     1      -1.602  -1.199  25.040  0.00  0.00    +0.029 C 
ATOM      9  C   UNL     1      -0.209   0.616  24.214  0.00  0.00    +0.097 C 
ATOM     10  C   UNL     1      -0.801  -1.591  23.807  0.00  0.00    +0.085 C 
ENDROOT
BRANCH   7  12
ATOM      1 CL   UNL     1      -6.586   5.650  25.492  0.00  0.00    -0.083 Cl
ATOM      2  O   UNL     1      -3.636   0.653  25.349  0.00  0.00    -0.439 OA
ATOM      6  N   UNL     1      -2.382   2.541  25.366  0.00  0.00    -0.213 NA
ATOM     12  C   UNL     1      -2.400   1.226  25.341  0.00  0.00    +0.201 A 
ATOM     14  C   UNL     1      -3.715   2.875  25.393  0.00  0.00    +0.111 A 
ATOM     15  C   UNL     1      -4.485   1.721  25.383  0.00  0.00    +0.155 A 
ATOM     18  C   UNL     1      -4.358   4.120  25.427  0.00  0.00    +0.051 A 
ATOM     19  C   UNL     1      -5.874   1.698  25.404  0.00  0.00    +0.050 A 
ATOM     23  C   UNL     1      -5.760   4.137  25.449  0.00  0.00    +0.043 A 
ATOM     24  C   UNL     1      -6.501   2.948  25.438  0.00  0.00    +0.024 A 
ENDBRANCH   7  12
BRANCH   5  11
ATOM     11  C   UNL     1       1.097  -0.663  22.617  0.00  0.00    +0.119 C 
BRANCH  11  13
ATOM     13  C   UNL     1       2.568  -0.433  22.846  0.00  0.00    -0.033 A 
ATOM     16  C   UNL     1       3.334  -1.411  23.483  0.00  0.00    +0.006 A 
ATOM     17  C   UNL     1       3.164   0.754  22.422  0.00  0.00    +0.006 A 
ATOM     20  C   UNL     1       4.696  -1.198  23.696  0.00  0.00    +0.015 A 
ATOM     21  C   UNL     1       4.525   0.966  22.635  0.00  0.00    +0.015 A 
ATOM     22  C   UNL     1       5.292  -0.010  23.272  0.00  0.00    +0.059 A 
BRANCH  22  25
ATOM      4  O   UNL     1       7.196   1.029  24.283  0.00  0.00    -0.245 OA
ATOM     25  C   UNL     1       6.712   0.210  23.493  0.00  0.00    +0.337 C 
BRANCH  25   3
ATOM      3  O   UNL     1       7.491  -0.595  22.719  0.00  0.00    -0.477 OA
ATOM     26  H   UNL     1       7.063  -1.461  22.549  0.00  0.00    +0.295 HD
ENDBRANCH  25   3
ENDBRANCH  22  25
ENDBRANCH  11  13
ENDBRANCH   5  11
TORSDOF 5
ENDMDL
MODEL 3
REMARK VINA RESULT:       1.0      1.655      2.153
REMARK  Name = 45784171
REMARK  5 active torsions:
REMARK  status: ('A' for Active; 'I' for Inactive)
REMARK    1  A    between atoms: O_3  and  C_25
REMARK    2  A    between atoms: N_5  and  C_11
REMARK    3  A    between atoms: C_7  and  C_12
REMARK    4  A    between atoms: C_11  and  C_13
REMARK    5  A    between atoms: C_22  and  C_25
REMARK                            x       y       z     vdW  Elec       q    Type
REMARK                         _______ _______ _______ _____ _____    ______ ____
ROOT
ATOM      5  N   UNL     1      -3.115  -1.786  24.687  0.00  0.00    -0.297 NA
ATOM      7  C   UNL     1      -0.803  -2.138  24.852  0.00  0.00    +0.090 C 
ATOM      8  C   UNL     1      -1.327  -1.536  26.167  0.00  0.00    +0.029 C 
ATOM      9  C   UNL     1      -1.927  -1.892  23.837  0.00  0.00    +0.097 C 
ATOM     10  C   UNL     1      -2.694  -0.963  25.821  0.00  0.00    +0.085 C 
ENDROOT
BRANCH   7  12
ATOM      1 CL   UNL     1       6.232  -0.029  22.919  0.00  0.00    -0.083 Cl
ATOM      2  O   UNL     1       0.490  -0.449  23.663  0.00  0.00    -0.439 OA
ATOM      6  N   UNL     1       1.732  -2.092  24.610  0.00  0.00    -0.213 NA
ATOM     12  C   UNL     1       0.532  -1.598  24.394  0.00  0.00    +0.201 A 
ATOM     14  C   UNL     1       2.561  -1.200  23.971  0.00  0.00    +0.111 A 
ATOM     15  C   UNL     1       1.803  -0.193  23.392  0.00  0.00    +0.155 A 
ATOM     18  C   UNL     1       3.955  -1.166  23.833  0.00  0.00    +0.051 A 
ATOM     19  C   UNL     1       2.326   0.872  22.668  0.00  0.00    +0.050 A 
ATOM     23  C   UNL     1       4.520  -0.106  23.109  0.00  0.00    +0.043 A 
ATOM     24  C   UNL     1       3.718   0.892  22.539  0.00  0.00    +0.024 A 
ENDBRANCH   7  12
BRANCH   5  11
ATOM     11  C   UNL     1      -4.254  -1.217  23.981  0.00  0.00    +0.119 C 
BRANCH  11  13
ATOM     13  C   UNL     1      -4.483   0.224  24.355  0.00  0.00    -0.033 A 
ATOM     16  C   UNL     1      -3.644   1.217  23.848  0.00  0.00    +0.006 A 
ATOM     17  C   UNL     1      -5.533   0.566  25.207  0.00  0.00    +0.006 A 
ATOM     20  C   UNL     1      -3.856   2.551  24.194  0.00  0.00    +0.015 A 
ATOM     21  C   UNL     1      -5.744   1.900  25.553  0.00  0.00    +0.015 A 
ATOM     22  C   UNL     1      -4.905   2.893  25.047  0.00  0.00    +0.059 A 
BRANCH  22  25
ATOM      4  O   UNL     1      -4.274   5.178  25.372  0.00  0.00    -0.245 OA
ATOM     25  C   UNL     1      -5.127   4.284  25.406  0.00  0.00    +0.337 C 
BRANCH  25   3
ATOM      3  O   UNL     1      -6.409   4.522  25.801  0.00  0.00    -0.477 OA
ATOM     26  H   UNL     1      -6.938   3.698  25.837  0.00  0.00    +0.295 HD
ENDBRANCH  25   3
ENDBRANCH  22  25
ENDBRANCH  11  13
ENDBRANCH   5  11
TORSDOF 5
ENDMDL
MODEL 4
REMARK VINA RESULT:       1.2      2.355      4.913
REMARK  Name = 45784171
REMARK  5 active torsions:
REMARK  status: ('A' for Active; 'I' for Inactive)
REMARK    1  A    between atoms: O_3  and  C_25
REMARK    2  A    between atoms: N_5  and  C_11
REMARK    3  A    between atoms: C_7  and  C_12
REMARK    4  A    between atoms: C_11  and  C_13
REMARK    5  A    between atoms: C_22  and  C_25
REMARK                            x       y       z     vdW  Elec       q    Type
REMARK                         _______ _______ _______ _____ _____    ______ ____
ROOT
ATOM      5  N   UNL     1      -3.683   2.932  25.364  0.00  0.00    -0.297 NA
ATOM      7  C   UNL     1      -1.389   3.191  24.952  0.00  0.00    +0.090 C 
ATOM      8  C   UNL     1      -2.191   4.045  23.954  0.00  0.00    +0.029 C 
ATOM      9  C   UNL     1      -2.417   2.219  25.544  0.00  0.00    +0.097 C 
ATOM     10  C   UNL     1      -3.609   3.495  24.015  0.00  0.00    +0.085 C 
ENDROOT
BRANCH   7  12
ATOM      1 CL   UNL     1       5.081   0.284  22.240  0.00  0.00    -0.083 Cl
ATOM      2  O   UNL     1      -0.426   1.287  23.775  0.00  0.00    -0.439 OA
ATOM      6  N   UNL     1       1.068   2.893  24.347  0.00  0.00    -0.213 NA
ATOM     12  C   UNL     1      -0.185   2.491  24.365  0.00  0.00    +0.201 A 
ATOM     14  C   UNL     1       1.717   1.874  23.693  0.00  0.00    +0.111 A 
ATOM     15  C   UNL     1       0.805   0.890  23.340  0.00  0.00    +0.155 A 
ATOM     18  C   UNL     1       3.067   1.701  23.355  0.00  0.00    +0.051 A 
ATOM     19  C   UNL     1       1.127  -0.281  22.665  0.00  0.00    +0.050 A 
ATOM     23  C   UNL     1       3.430   0.531  22.673  0.00  0.00    +0.043 A 
ATOM     24  C   UNL     1       2.477  -0.438  22.335  0.00  0.00    +0.024 A 
ENDBRANCH   7  12
BRANCH   5  11
ATOM     11  C   UNL     1      -4.839   2.066  25.541  0.00  0.00    +0.119 C 
BRANCH  11  13
ATOM     13  C   UNL     1      -4.529   0.637  25.186  0.00  0.00    -0.033 A 
ATOM     16  C   UNL     1      -4.731   0.184  23.881  0.00  0.00    +0.006 A 
ATOM     17  C   UNL     1      -4.040  -0.235  26.159  0.00  0.00    +0.006 A 
ATOM     20  C   UNL     1      -4.444  -1.141  23.552  0.00  0.00    +0.015 A 
ATOM     21  C   UNL     1      -3.753  -1.559  25.829  0.00  0.00    +0.015 A 
ATOM     22  C   UNL     1      -3.956  -2.013  24.525  0.00  0.00    +0.059 A 
BRANCH  22  25
ATOM      4  O   UNL     1      -4.490  -4.295  24.042  0.00  0.00    -0.245 OA
ATOM     25  C   UNL     1      -3.655  -3.393  24.182  0.00  0.00    +0.337 C 
BRANCH  25   3
ATOM      3  O   UNL     1      -2.321  -3.612  24.024  0.00  0.00    -0.477 OA
ATOM     26  H   UNL     1      -2.134  -4.531  23.738  0.00  0.00    +0.295 HD
ENDBRANCH  25   3
ENDBRANCH  22  25
ENDBRANCH  11  13
ENDBRANCH   5  11
TORSDOF 5
ENDMDL
MODEL 5
REMARK VINA RESULT:       1.6      3.374      5.302
REMARK  Name = 45784171
REMARK  5 active torsions:
REMARK  status: ('A' for Active; 'I' for Inactive)
REMARK    1  A    between atoms: O_3  and  C_25
REMARK    2  A    between atoms: N_5  and  C_11
REMARK    3  A    between atoms: C_7  and  C_12
REMARK    4  A    between atoms: C_11  and  C_13
REMARK    5  A    between atoms: C_22  and  C_25
REMARK                            x       y       z     vdW  Elec       q    Type
REMARK                         _______ _______ _______ _____ _____    ______ ____
ROOT
ATOM      5  N   UNL     1       0.241   3.388  25.130  0.00  0.00    -0.297 NA
ATOM      7  C   UNL     1       0.165   1.047  25.018  0.00  0.00    +0.090 C 
ATOM      8  C   UNL     1       0.892   1.598  23.779  0.00  0.00    +0.029 C 
ATOM      9  C   UNL     1      -0.558   2.261  25.616  0.00  0.00    +0.097 C 
ATOM     10  C   UNL     1       0.521   3.074  23.729  0.00  0.00    +0.085 C 
ENDROOT
BRANCH   7  12
ATOM      1 CL   UNL     1      -3.860  -5.247  23.658  0.00  0.00    -0.083 Cl
ATOM      2  O   UNL     1      -2.084   0.193  24.627  0.00  0.00    -0.439 OA
ATOM      6  N   UNL     1      -0.460  -1.388  24.607  0.00  0.00    -0.213 NA
ATOM     12  C   UNL     1      -0.762  -0.115  24.746  0.00  0.00    +0.201 A 
ATOM     14  C   UNL     1      -1.679  -1.979  24.377  0.00  0.00    +0.111 A 
ATOM     15  C   UNL     1      -2.675  -1.014  24.387  0.00  0.00    +0.155 A 
ATOM     18  C   UNL     1      -2.032  -3.317  24.149  0.00  0.00    +0.051 A 
ATOM     19  C   UNL     1      -4.026  -1.270  24.187  0.00  0.00    +0.050 A 
ATOM     23  C   UNL     1      -3.387  -3.614  23.942  0.00  0.00    +0.043 A 
ATOM     24  C   UNL     1      -4.362  -2.608  23.961  0.00  0.00    +0.024 A 
ENDBRANCH   7  12
BRANCH   5  11
ATOM     11  C   UNL     1      -0.443   4.663  25.286  0.00  0.00    +0.119 C 
BRANCH  11  13
ATOM     13  C   UNL     1      -1.937   4.492  25.364  0.00  0.00    -0.033 A 
ATOM     16  C   UNL     1      -2.571   4.466  26.607  0.00  0.00    +0.006 A 
ATOM     17  C   UNL     1      -2.687   4.360  24.196  0.00  0.00    +0.006 A 
ATOM     20  C   UNL     1      -3.955   4.308  26.680  0.00  0.00    +0.015 A 
ATOM     21  C   UNL     1      -4.070   4.201  24.269  0.00  0.00    +0.015 A 
ATOM     22  C   UNL     1      -4.705   4.175  25.511  0.00  0.00    +0.059 A 
BRANCH  22  25
ATOM      4  O   UNL     1      -6.753   2.937  25.499  0.00  0.00    -0.245 OA
ATOM     25  C   UNL     1      -6.148   4.012  25.587  0.00  0.00    +0.337 C 
BRANCH  25   3
ATOM      3  O   UNL     1      -6.797   5.195  25.768  0.00  0.00    -0.477 OA
ATOM     26  H   UNL     1      -6.224   5.962  25.556  0.00  0.00    +0.295 HD
ENDBRANCH  25   3
ENDBRANCH  22  25
ENDBRANCH  11  13
ENDBRANCH   5  11
TORSDOF 5
ENDMDL
MODEL 6
REMARK VINA RESULT:       2.8      2.827      3.946
REMARK  Name = 45784171
REMARK  5 active torsions:
REMARK  status: ('A' for Active; 'I' for Inactive)
REMARK    1  A    between atoms: O_3  and  C_25
REMARK    2  A    between atoms: N_5  and  C_11
REMARK    3  A    between atoms: C_7  and  C_12
REMARK    4  A    between atoms: C_11  and  C_13
REMARK    5  A    between atoms: C_22  and  C_25
REMARK                            x       y       z     vdW  Elec       q    Type
REMARK                         _______ _______ _______ _____ _____    ______ ____
ROOT
ATOM      5  N   UNL     1      -0.672   1.585  23.832  0.00  0.00    -0.297 NA
ATOM      7  C   UNL     1       1.160   0.476  22.877  0.00  0.00    +0.090 C 
ATOM      8  C   UNL     1       0.265  -0.541  23.606  0.00  0.00    +0.029 C 
ATOM      9  C   UNL     1       0.706   1.843  23.406  0.00  0.00    +0.097 C 
ATOM     10  C   UNL     1      -0.619   0.295  24.520  0.00  0.00    +0.085 C 
ENDROOT
BRANCH   7  12
ATOM      1 CL   UNL     1       8.722   0.045  23.415  0.00  0.00    -0.083 Cl
ATOM      2  O   UNL     1       3.009  -0.976  23.518  0.00  0.00    -0.439 OA
ATOM      6  N   UNL     1       3.634   1.073  22.776  0.00  0.00    -0.213 NA
ATOM     12  C   UNL     1       2.645   0.246  23.038  0.00  0.00    +0.201 A 
ATOM     14  C   UNL     1       4.751   0.344  23.107  0.00  0.00    +0.111 A 
ATOM     15  C   UNL     1       4.372  -0.911  23.560  0.00  0.00    +0.155 A 
ATOM     18  C   UNL     1       6.116   0.663  23.054  0.00  0.00    +0.051 A 
ATOM     19  C   UNL     1       5.254  -1.901  23.977  0.00  0.00    +0.050 A 
ATOM     23  C   UNL     1       7.036  -0.311  23.467  0.00  0.00    +0.043 A 
ATOM     24  C   UNL     1       6.611  -1.567  23.919  0.00  0.00    +0.024 A 
ENDBRANCH   7  12
BRANCH   5  11
ATOM     11  C   UNL     1      -1.199   2.645  24.679  0.00  0.00    +0.119 C 
BRANCH  11  13
ATOM     13  C   UNL     1      -2.657   2.440  24.992  0.00  0.00    -0.033 A 
ATOM     16  C   UNL     1      -3.431   3.512  25.439  0.00  0.00    +0.006 A 
ATOM     17  C   UNL     1      -3.235   1.180  24.834  0.00  0.00    +0.006 A 
ATOM     20  C   UNL     1      -4.782   3.322  25.728  0.00  0.00    +0.015 A 
ATOM     21  C   UNL     1      -4.586   0.991  25.124  0.00  0.00    +0.015 A 
ATOM     22  C   UNL     1      -5.360   2.062  25.572  0.00  0.00    +0.059 A 
BRANCH  22  25
ATOM      4  O   UNL     1      -7.260   1.819  27.006  0.00  0.00    -0.245 OA
ATOM     25  C   UNL     1      -6.769   1.865  25.872  0.00  0.00    +0.337 C 
BRANCH  25   3
ATOM      3  O   UNL     1      -7.527   1.729  24.749  0.00  0.00    -0.477 OA
ATOM     26  H   UNL     1      -7.040   1.267  24.035  0.00  0.00    +0.295 HD
ENDBRANCH  25   3
ENDBRANCH  22  25
ENDBRANCH  11  13
ENDBRANCH   5  11
TORSDOF 5
ENDMDL
