MODEL 1
REMARK VINA RESULT:      -3.0      0.000      0.000
REMARK  Name = 56775103
REMARK  5 active torsions:
REMARK  status: ('A' for Active; 'I' for Inactive)
REMARK    1  A    between atoms: N_4  and  C_11
REMARK    2  A    between atoms: N_5  and  C_14
REMARK    3  A    between atoms: N_6  and  C_20
REMARK    4  A    between atoms: C_11  and  C_15
REMARK    5  A    between atoms: C_21  and  C_22
REMARK                            x       y       z     vdW  Elec       q    Type
REMARK                         _______ _______ _______ _____ _____    ______ ____
ROOT
ATOM     11  C   UNL     1      -2.561  -1.262  25.219  0.00  0.00    +0.119 C 
ENDROOT
BRANCH  11   4
ATOM      1  O   UNL     1      -3.610   2.662  23.993  0.00  0.00    -0.364 OA
ATOM      2  O   UNL     1      -5.667   4.632  26.068  0.00  0.00    -0.273 OA
ATOM      4  N   UNL     1      -3.734  -0.542  24.750  0.00  0.00    -0.294 NA
ATOM      5  N   UNL     1      -5.776   2.343  25.667  0.00  0.00    -0.296 N 
ATOM      7  C   UNL     1      -5.261   1.181  24.946  0.00  0.00    +0.120 C 
ATOM      8  C   UNL     1      -4.402   1.507  23.728  0.00  0.00    +0.154 C 
ATOM      9  C   UNL     1      -4.319   0.317  25.779  0.00  0.00    +0.110 C 
ATOM     10  C   UNL     1      -3.454   0.312  23.588  0.00  0.00    +0.118 C 
ATOM     12  C   UNL     1      -4.424   3.789  24.220  0.00  0.00    +0.256 C 
ATOM     13  C   UNL     1      -5.329   3.639  25.425  0.00  0.00    +0.241 C 
ATOM     14  C   UNL     1      -6.727   2.088  26.741  0.00  0.00    +0.132 C 
ENDBRANCH  11   4
BRANCH  11  15
ATOM     15  C   UNL     1      -1.284  -0.651  24.704  0.00  0.00    -0.033 A 
ATOM     16  C   UNL     1      -0.517  -1.332  23.759  0.00  0.00    +0.007 A 
ATOM     17  C   UNL     1      -0.869   0.596  25.171  0.00  0.00    +0.007 A 
ATOM     18  C   UNL     1       0.665  -0.767  23.282  0.00  0.00    +0.023 A 
ATOM     19  C   UNL     1       0.313   1.161  24.694  0.00  0.00    +0.023 A 
ATOM     20  C   UNL     1       1.080   0.480  23.749  0.00  0.00    +0.033 A 
BRANCH  20   6
ATOM      3  O   UNL     1       3.780  -0.759  23.255  0.00  0.00    -0.276 OA
ATOM      6  N   UNL     1       2.263   1.046  23.272  0.00  0.00    -0.286 N 
ATOM     21  C   UNL     1       3.498   0.419  23.062  0.00  0.00    +0.214 C 
ATOM     22  C   UNL     1       4.532   1.383  22.536  0.00  0.00    +0.109 C 
ATOM     23  H   UNL     1       2.212   2.039  23.053  0.00  0.00    +0.155 HD
ENDBRANCH  20   6
ENDBRANCH  11  15
TORSDOF 3
ENDMDL
MODEL 2
REMARK VINA RESULT:      -2.9      1.636      2.161
REMARK  Name = 56775103
REMARK  5 active torsions:
REMARK  status: ('A' for Active; 'I' for Inactive)
REMARK    1  A    between atoms: N_4  and  C_11
REMARK    2  A    between atoms: N_5  and  C_14
REMARK    3  A    between atoms: N_6  and  C_20
REMARK    4  A    between atoms: C_11  and  C_15
REMARK    5  A    between atoms: C_21  and  C_22
REMARK                            x       y       z     vdW  Elec       q    Type
REMARK                         _______ _______ _______ _____ _____    ______ ____
ROOT
ATOM     11  C   UNL     1      -1.606   0.474  22.906  0.00  0.00    +0.119 C 
ENDROOT
BRANCH  11   4
ATOM      1  O   UNL     1      -5.446   1.287  24.520  0.00  0.00    -0.364 OA
ATOM      2  O   UNL     1      -6.170   4.520  25.719  0.00  0.00    -0.273 OA
ATOM      4  N   UNL     1      -2.212   0.742  24.200  0.00  0.00    -0.294 NA
ATOM      5  N   UNL     1      -4.177   3.328  25.869  0.00  0.00    -0.296 N 
ATOM      7  C   UNL     1      -3.449   2.087  25.615  0.00  0.00    +0.120 C 
ATOM      8  C   UNL     1      -4.324   0.878  25.300  0.00  0.00    +0.154 C 
ATOM      9  C   UNL     1      -2.543   2.154  24.389  0.00  0.00    +0.110 C 
ATOM     10  C   UNL     1      -3.448  -0.020  24.423  0.00  0.00    +0.118 C 
ATOM     12  C   UNL     1      -6.255   2.190  25.236  0.00  0.00    +0.256 C 
ATOM     13  C   UNL     1      -5.537   3.470  25.607  0.00  0.00    +0.241 C 
ATOM     14  C   UNL     1      -3.399   4.471  26.327  0.00  0.00    +0.132 C 
ENDBRANCH  11   4
BRANCH  11  15
ATOM     15  C   UNL     1      -0.102   0.519  22.971  0.00  0.00    -0.033 A 
ATOM     16  C   UNL     1       0.656  -0.379  22.219  0.00  0.00    +0.007 A 
ATOM     17  C   UNL     1       0.534   1.460  23.782  0.00  0.00    +0.007 A 
ATOM     18  C   UNL     1       2.048  -0.337  22.279  0.00  0.00    +0.023 A 
ATOM     19  C   UNL     1       1.926   1.502  23.842  0.00  0.00    +0.023 A 
ATOM     20  C   UNL     1       2.684   0.603  23.090  0.00  0.00    +0.033 A 
BRANCH  20   6
ATOM      3  O   UNL     1       4.664  -1.476  23.996  0.00  0.00    -0.276 OA
ATOM      6  N   UNL     1       4.077   0.645  23.151  0.00  0.00    -0.286 N 
ATOM     21  C   UNL     1       4.954  -0.358  23.586  0.00  0.00    +0.214 C 
ATOM     22  C   UNL     1       6.394   0.082  23.497  0.00  0.00    +0.109 C 
ATOM     23  H   UNL     1       4.500   1.518  22.840  0.00  0.00    +0.155 HD
ENDBRANCH  20   6
ENDBRANCH  11  15
TORSDOF 3
ENDMDL
MODEL 3
REMARK VINA RESULT:      -1.5      2.308      3.954
REMARK  Name = 56775103
REMARK  5 active torsions:
REMARK  status: ('A' for Active; 'I' for Inactive)
REMARK    1  A    between atoms: N_4  and  C_11
REMARK    2  A    between atoms: N_5  and  C_14
REMARK    3  A    between atoms: N_6  and  C_20
REMARK    4  A    between atoms: C_11  and  C_15
REMARK    5  A    between atoms: C_21  and  C_22
REMARK                            x       y       z     vdW  Elec       q    Type
REMARK                         _______ _______ _______ _____ _____    ______ ____
ROOT
ATOM     11  C   UNL     1      -3.202   2.835  23.521  0.00  0.00    +0.119 C 
ENDROOT
BRANCH  11   4
ATOM      1  O   UNL     1      -2.997  -0.421  26.235  0.00  0.00    -0.364 OA
ATOM      2  O   UNL     1      -3.055  -3.717  24.991  0.00  0.00    -0.273 OA
ATOM      4  N   UNL     1      -4.069   1.789  24.038  0.00  0.00    -0.294 NA
ATOM      5  N   UNL     1      -4.222  -1.855  24.226  0.00  0.00    -0.296 N 
ATOM      7  C   UNL     1      -4.556  -0.442  24.393  0.00  0.00    +0.120 C 
ATOM      8  C   UNL     1      -4.217   0.144  25.759  0.00  0.00    +0.154 C 
ATOM      9  C   UNL     1      -3.788   0.480  23.450  0.00  0.00    +0.110 C 
ATOM     10  C   UNL     1      -3.972   1.632  25.495  0.00  0.00    +0.118 C 
ATOM     12  C   UNL     1      -3.123  -1.811  26.418  0.00  0.00    +0.256 C 
ATOM     13  C   UNL     1      -3.436  -2.555  25.137  0.00  0.00    +0.241 C 
ATOM     14  C   UNL     1      -4.667  -2.501  22.998  0.00  0.00    +0.132 C 
ENDBRANCH  11   4
BRANCH  11  15
ATOM     15  C   UNL     1      -1.751   2.438  23.573  0.00  0.00    -0.033 A 
ATOM     16  C   UNL     1      -0.811   3.299  24.139  0.00  0.00    +0.007 A 
ATOM     17  C   UNL     1      -1.345   1.207  23.055  0.00  0.00    +0.007 A 
ATOM     18  C   UNL     1       0.533   2.931  24.186  0.00  0.00    +0.023 A 
ATOM     19  C   UNL     1      -0.001   0.839  23.102  0.00  0.00    +0.023 A 
ATOM     20  C   UNL     1       0.938   1.702  23.668  0.00  0.00    +0.033 A 
BRANCH  20   6
ATOM      3  O   UNL     1       2.579   0.050  21.759  0.00  0.00    -0.276 OA
ATOM      6  N   UNL     1       2.283   1.332  23.715  0.00  0.00    -0.286 N 
ATOM     21  C   UNL     1       2.999   0.556  22.793  0.00  0.00    +0.214 C 
ATOM     22  C   UNL     1       4.439   0.383  23.208  0.00  0.00    +0.109 C 
ATOM     23  H   UNL     1       2.800   1.674  24.523  0.00  0.00    +0.155 HD
ENDBRANCH  20   6
ENDBRANCH  11  15
TORSDOF 3
ENDMDL
MODEL 4
REMARK VINA RESULT:      -1.3      1.733      2.124
REMARK  Name = 56775103
REMARK  5 active torsions:
REMARK  status: ('A' for Active; 'I' for Inactive)
REMARK    1  A    between atoms: N_4  and  C_11
REMARK    2  A    between atoms: N_5  and  C_14
REMARK    3  A    between atoms: N_6  and  C_20
REMARK    4  A    between atoms: C_11  and  C_15
REMARK    5  A    between atoms: C_21  and  C_22
REMARK                            x       y       z     vdW  Elec       q    Type
REMARK                         _______ _______ _______ _____ _____    ______ ____
ROOT
ATOM     11  C   UNL     1      -3.678  -1.053  25.076  0.00  0.00    +0.119 C 
ENDROOT
BRANCH  11   4
ATOM      1  O   UNL     1      -4.123   2.776  23.301  0.00  0.00    -0.364 OA
ATOM      2  O   UNL     1      -2.384   5.524  24.656  0.00  0.00    -0.273 OA
ATOM      4  N   UNL     1      -4.296   0.227  25.382  0.00  0.00    -0.294 NA
ATOM      5  N   UNL     1      -3.373   3.738  25.772  0.00  0.00    -0.296 N 
ATOM      7  C   UNL     1      -4.164   2.512  25.700  0.00  0.00    +0.120 C 
ATOM      8  C   UNL     1      -4.916   2.305  24.388  0.00  0.00    +0.154 C 
ATOM      9  C   UNL     1      -3.326   1.241  25.791  0.00  0.00    +0.110 C 
ATOM     10  C   UNL     1      -5.046   0.786  24.249  0.00  0.00    +0.118 C 
ATOM     12  C   UNL     1      -3.887   4.160  23.411  0.00  0.00    +0.256 C 
ATOM     13  C   UNL     1      -3.118   4.536  24.660  0.00  0.00    +0.241 C 
ATOM     14  C   UNL     1      -2.765   4.059  27.056  0.00  0.00    +0.132 C 
ENDBRANCH  11   4
BRANCH  11  15
ATOM     15  C   UNL     1      -2.262  -0.890  24.592  0.00  0.00    -0.033 A 
ATOM     16  C   UNL     1      -1.950   0.109  23.670  0.00  0.00    +0.007 A 
ATOM     17  C   UNL     1      -1.260  -1.738  25.065  0.00  0.00    +0.007 A 
ATOM     18  C   UNL     1      -0.639   0.260  23.221  0.00  0.00    +0.023 A 
ATOM     19  C   UNL     1       0.051  -1.588  24.617  0.00  0.00    +0.023 A 
ATOM     20  C   UNL     1       0.362  -0.588  23.694  0.00  0.00    +0.033 A 
BRANCH  20   6
ATOM      3  O   UNL     1       2.113   1.858  23.557  0.00  0.00    -0.276 OA
ATOM      6  N   UNL     1       1.675  -0.438  23.246  0.00  0.00    -0.286 N 
ATOM     21  C   UNL     1       2.446   0.732  23.203  0.00  0.00    +0.214 C 
ATOM     22  C   UNL     1       3.824   0.474  22.647  0.00  0.00    +0.109 C 
ATOM     23  H   UNL     1       2.120  -1.289  22.909  0.00  0.00    +0.155 HD
ENDBRANCH  20   6
ENDBRANCH  11  15
TORSDOF 3
ENDMDL
MODEL 5
REMARK VINA RESULT:      -1.2      2.895      4.710
REMARK  Name = 56775103
REMARK  5 active torsions:
REMARK  status: ('A' for Active; 'I' for Inactive)
REMARK    1  A    between atoms: N_4  and  C_11
REMARK    2  A    between atoms: N_5  and  C_14
REMARK    3  A    between atoms: N_6  and  C_20
REMARK    4  A    between atoms: C_11  and  C_15
REMARK    5  A    between atoms: C_21  and  C_22
REMARK                            x       y       z     vdW  Elec       q    Type
REMARK                         _______ _______ _______ _____ _____    ______ ____
ROOT
ATOM     11  C   UNL     1       0.675   2.079  24.405  0.00  0.00    +0.119 C 
ENDROOT
BRANCH  11   4
ATOM      1  O   UNL     1      -2.470   3.848  26.638  0.00  0.00    -0.364 OA
ATOM      2  O   UNL     1      -5.764   3.713  25.395  0.00  0.00    -0.273 OA
ATOM      4  N   UNL     1      -0.209   3.231  24.323  0.00  0.00    -0.294 NA
ATOM      5  N   UNL     1      -3.778   3.995  24.217  0.00  0.00    -0.296 N 
ATOM      7  C   UNL     1      -2.326   4.155  24.249  0.00  0.00    +0.120 C 
ATOM      8  C   UNL     1      -1.746   4.522  25.611  0.00  0.00    +0.154 C 
ATOM      9  C   UNL     1      -1.566   2.874  23.913  0.00  0.00    +0.110 C 
ATOM     10  C   UNL     1      -0.323   3.957  25.595  0.00  0.00    +0.118 C 
ATOM     12  C   UNL     1      -3.818   4.256  26.655  0.00  0.00    +0.256 C 
ATOM     13  C   UNL     1      -4.554   3.937  25.371  0.00  0.00    +0.241 C 
ATOM     14  C   UNL     1      -4.394   3.800  22.912  0.00  0.00    +0.132 C 
ENDBRANCH  11   4
BRANCH  11  15
ATOM     15  C   UNL     1      -0.094   0.785  24.450  0.00  0.00    -0.033 A 
ATOM     16  C   UNL     1       0.081  -0.165  23.443  0.00  0.00    +0.007 A 
ATOM     17  C   UNL     1      -0.981   0.535  25.497  0.00  0.00    +0.007 A 
ATOM     18  C   UNL     1      -0.631  -1.363  23.484  0.00  0.00    +0.023 A 
ATOM     19  C   UNL     1      -1.692  -0.663  25.538  0.00  0.00    +0.023 A 
ATOM     20  C   UNL     1      -1.517  -1.613  24.530  0.00  0.00    +0.033 A 
BRANCH  20   6
ATOM      3  O   UNL     1      -4.385  -2.206  23.832  0.00  0.00    -0.276 OA
ATOM      6  N   UNL     1      -2.230  -2.812  24.572  0.00  0.00    -0.286 N 
ATOM     21  C   UNL     1      -3.573  -3.031  24.234  0.00  0.00    +0.214 C 
ATOM     22  C   UNL     1      -3.966  -4.476  24.418  0.00  0.00    +0.109 C 
ATOM     23  H   UNL     1      -1.701  -3.622  24.888  0.00  0.00    +0.155 HD
ENDBRANCH  20   6
ENDBRANCH  11  15
TORSDOF 3
ENDMDL
MODEL 6
REMARK VINA RESULT:      -0.7      3.206      4.777
REMARK  Name = 56775103
REMARK  5 active torsions:
REMARK  status: ('A' for Active; 'I' for Inactive)
REMARK    1  A    between atoms: N_4  and  C_11
REMARK    2  A    between atoms: N_5  and  C_14
REMARK    3  A    between atoms: N_6  and  C_20
REMARK    4  A    between atoms: C_11  and  C_15
REMARK    5  A    between atoms: C_21  and  C_22
REMARK                            x       y       z     vdW  Elec       q    Type
REMARK                         _______ _______ _______ _____ _____    ______ ____
ROOT
ATOM     11  C   UNL     1      -2.873   2.653  23.225  0.00  0.00    +0.119 C 
ENDROOT
BRANCH  11   4
ATOM      1  O   UNL     1      -3.462  -0.344  26.170  0.00  0.00    -0.364 OA
ATOM      2  O   UNL     1      -3.247  -3.739  25.252  0.00  0.00    -0.273 OA
ATOM      4  N   UNL     1      -3.866   1.653  23.580  0.00  0.00    -0.294 NA
ATOM      5  N   UNL     1      -4.131  -1.960  24.041  0.00  0.00    -0.296 N 
ATOM      7  C   UNL     1      -4.472  -0.540  23.987  0.00  0.00    +0.120 C 
ATOM      8  C   UNL     1      -4.500   0.169  25.337  0.00  0.00    +0.154 C 
ATOM      9  C   UNL     1      -3.463   0.297  23.207  0.00  0.00    +0.110 C 
ATOM     10  C   UNL     1      -4.165   1.628  25.019  0.00  0.00    +0.118 C 
ATOM     12  C   UNL     1      -3.658  -1.713  26.435  0.00  0.00    +0.256 C 
ATOM     13  C   UNL     1      -3.631  -2.571  25.187  0.00  0.00    +0.241 C 
ATOM     14  C   UNL     1      -4.245  -2.716  22.801  0.00  0.00    +0.132 C 
ENDBRANCH  11   4
BRANCH  11  15
ATOM     15  C   UNL     1      -1.741   2.698  24.217  0.00  0.00    -0.033 A 
ATOM     16  C   UNL     1      -0.748   1.720  24.186  0.00  0.00    +0.007 A 
ATOM     17  C   UNL     1      -1.686   3.718  25.168  0.00  0.00    +0.007 A 
ATOM     18  C   UNL     1       0.300   1.761  25.105  0.00  0.00    +0.023 A 
ATOM     19  C   UNL     1      -0.639   3.759  26.087  0.00  0.00    +0.023 A 
ATOM     20  C   UNL     1       0.355   2.780  26.055  0.00  0.00    +0.033 A 
BRANCH  20   6
ATOM      3  O   UNL     1       0.351   2.385  29.040  0.00  0.00    -0.276 OA
ATOM      6  N   UNL     1       1.403   2.822  26.976  0.00  0.00    -0.286 N 
ATOM     21  C   UNL     1       1.343   2.631  28.363  0.00  0.00    +0.214 C 
ATOM     22  C   UNL     1       2.703   2.758  29.004  0.00  0.00    +0.109 C 
ATOM     23  H   UNL     1       2.321   3.016  26.581  0.00  0.00    +0.155 HD
ENDBRANCH  20   6
ENDBRANCH  11  15
TORSDOF 3
ENDMDL
MODEL 7
REMARK VINA RESULT:      -0.3      1.340      1.838
REMARK  Name = 56775103
REMARK  5 active torsions:
REMARK  status: ('A' for Active; 'I' for Inactive)
REMARK    1  A    between atoms: N_4  and  C_11
REMARK    2  A    between atoms: N_5  and  C_14
REMARK    3  A    between atoms: N_6  and  C_20
REMARK    4  A    between atoms: C_11  and  C_15
REMARK    5  A    between atoms: C_21  and  C_22
REMARK                            x       y       z     vdW  Elec       q    Type
REMARK                         _______ _______ _______ _____ _____    ______ ____
ROOT
ATOM     11  C   UNL     1      -1.984  -0.528  23.470  0.00  0.00    +0.119 C 
ENDROOT
BRANCH  11   4
ATOM      1  O   UNL     1      -2.606   3.457  24.790  0.00  0.00    -0.364 OA
ATOM      2  O   UNL     1      -5.536   4.251  26.578  0.00  0.00    -0.273 OA
ATOM      4  N   UNL     1      -2.843   0.604  23.159  0.00  0.00    -0.294 NA
ATOM      5  N   UNL     1      -5.277   2.779  24.795  0.00  0.00    -0.296 N 
ATOM      7  C   UNL     1      -4.399   2.193  23.784  0.00  0.00    +0.120 C 
ATOM      8  C   UNL     1      -3.092   2.943  23.551  0.00  0.00    +0.154 C 
ATOM      9  C   UNL     1      -3.906   0.795  24.145  0.00  0.00    +0.110 C 
ATOM     10  C   UNL     1      -2.108   1.873  23.071  0.00  0.00    +0.118 C 
ATOM     12  C   UNL     1      -3.508   4.389  25.337  0.00  0.00    +0.256 C 
ATOM     13  C   UNL     1      -4.863   3.792  25.655  0.00  0.00    +0.241 C 
ATOM     14  C   UNL     1      -6.602   2.193  24.942  0.00  0.00    +0.132 C 
ENDBRANCH  11   4
BRANCH  11  15
ATOM     15  C   UNL     1      -0.525  -0.159  23.407  0.00  0.00    -0.033 A 
ATOM     16  C   UNL     1       0.008   0.737  24.333  0.00  0.00    +0.007 A 
ATOM     17  C   UNL     1       0.293  -0.714  22.423  0.00  0.00    +0.007 A 
ATOM     18  C   UNL     1       1.358   1.079  24.275  0.00  0.00    +0.023 A 
ATOM     19  C   UNL     1       1.643  -0.372  22.364  0.00  0.00    +0.023 A 
ATOM     20  C   UNL     1       2.176   0.525  23.291  0.00  0.00    +0.033 A 
BRANCH  20   6
ATOM      3  O   UNL     1       4.632  -1.099  23.919  0.00  0.00    -0.276 OA
ATOM      6  N   UNL     1       3.528   0.867  23.232  0.00  0.00    -0.286 N 
ATOM     21  C   UNL     1       4.636   0.066  23.539  0.00  0.00    +0.214 C 
ATOM     22  C   UNL     1       5.934   0.810  23.345  0.00  0.00    +0.109 C 
ATOM     23  H   UNL     1       3.723   1.818  22.926  0.00  0.00    +0.155 HD
ENDBRANCH  20   6
ENDBRANCH  11  15
TORSDOF 3
ENDMDL
MODEL 8
REMARK VINA RESULT:      -0.2      2.362      4.085
REMARK  Name = 56775103
REMARK  5 active torsions:
REMARK  status: ('A' for Active; 'I' for Inactive)
REMARK    1  A    between atoms: N_4  and  C_11
REMARK    2  A    between atoms: N_5  and  C_14
REMARK    3  A    between atoms: N_6  and  C_20
REMARK    4  A    between atoms: C_11  and  C_15
REMARK    5  A    between atoms: C_21  and  C_22
REMARK                            x       y       z     vdW  Elec       q    Type
REMARK                         _______ _______ _______ _____ _____    ______ ____
ROOT
ATOM     11  C   UNL     1       1.001  -0.324  22.833  0.00  0.00    +0.119 C 
ENDROOT
BRANCH  11   4
ATOM      1  O   UNL     1      -2.882  -0.861  24.459  0.00  0.00    -0.364 OA
ATOM      2  O   UNL     1      -5.098   1.875  24.588  0.00  0.00    -0.273 OA
ATOM      4  N   UNL     1       0.252   0.058  24.019  0.00  0.00    -0.294 NA
ATOM      5  N   UNL     1      -2.796   1.854  24.924  0.00  0.00    -0.296 N 
ATOM      7  C   UNL     1      -1.561   1.079  25.024  0.00  0.00    +0.120 C 
ATOM      8  C   UNL     1      -1.755  -0.422  25.216  0.00  0.00    +0.154 C 
ATOM      9  C   UNL     1      -0.707   1.132  23.762  0.00  0.00    +0.110 C 
ATOM     10  C   UNL     1      -0.505  -1.058  24.603  0.00  0.00    +0.118 C 
ATOM     12  C   UNL     1      -4.064  -0.245  24.913  0.00  0.00    +0.256 C 
ATOM     13  C   UNL     1      -4.046   1.262  24.767  0.00  0.00    +0.241 C 
ATOM     14  C   UNL     1      -2.667   3.305  24.899  0.00  0.00    +0.132 C 
ENDBRANCH  11   4
BRANCH  11  15
ATOM     15  C   UNL     1       2.486  -0.175  23.035  0.00  0.00    -0.033 A 
ATOM     16  C   UNL     1       3.125   1.007  22.662  0.00  0.00    +0.007 A 
ATOM     17  C   UNL     1       3.222  -1.219  23.596  0.00  0.00    +0.007 A 
ATOM     18  C   UNL     1       4.500   1.144  22.850  0.00  0.00    +0.023 A 
ATOM     19  C   UNL     1       4.597  -1.082  23.783  0.00  0.00    +0.023 A 
ATOM     20  C   UNL     1       5.236   0.101  23.410  0.00  0.00    +0.033 A 
BRANCH  20   6
ATOM      3  O   UNL     1       7.540  -1.292  22.062  0.00  0.00    -0.276 OA
ATOM      6  N   UNL     1       6.612   0.238  23.597  0.00  0.00    -0.286 N 
ATOM     21  C   UNL     1       7.646  -0.441  22.939  0.00  0.00    +0.214 C 
ATOM     22  C   UNL     1       9.003  -0.006  23.432  0.00  0.00    +0.109 C 
ATOM     23  H   UNL     1       6.889   0.918  24.302  0.00  0.00    +0.155 HD
ENDBRANCH  20   6
ENDBRANCH  11  15
TORSDOF 3
ENDMDL
MODEL 9
REMARK VINA RESULT:      -0.2      2.423      6.483
REMARK  Name = 56775103
REMARK  5 active torsions:
REMARK  status: ('A' for Active; 'I' for Inactive)
REMARK    1  A    between atoms: N_4  and  C_11
REMARK    2  A    between atoms: N_5  and  C_14
REMARK    3  A    between atoms: N_6  and  C_20
REMARK    4  A    between atoms: C_11  and  C_15
REMARK    5  A    between atoms: C_21  and  C_22
REMARK                            x       y       z     vdW  Elec       q    Type
REMARK                         _______ _______ _______ _____ _____    ______ ____
ROOT
ATOM     11  C   UNL     1       0.455   2.034  24.096  0.00  0.00    +0.119 C 
ENDROOT
BRANCH  11   4
ATOM      1  O   UNL     1      -1.070  -1.823  23.201  0.00  0.00    -0.364 OA
ATOM      2  O   UNL     1      -3.810  -3.069  25.034  0.00  0.00    -0.273 OA
ATOM      4  N   UNL     1       0.415   0.710  24.695  0.00  0.00    -0.294 NA
ATOM      5  N   UNL     1      -2.027  -1.776  25.785  0.00  0.00    -0.296 N 
ATOM      7  C   UNL     1      -0.758  -1.117  25.488  0.00  0.00    +0.120 C 
ATOM      8  C   UNL     1      -0.082  -1.569  24.197  0.00  0.00    +0.154 C 
ATOM      9  C   UNL     1      -0.891   0.387  25.268  0.00  0.00    +0.110 C 
ATOM     10  C   UNL     1       0.740  -0.360  23.742  0.00  0.00    +0.118 C 
ATOM     12  C   UNL     1      -1.923  -2.873  23.594  0.00  0.00    +0.256 C 
ATOM     13  C   UNL     1      -2.698  -2.570  24.859  0.00  0.00    +0.241 C 
ATOM     14  C   UNL     1      -2.632  -1.495  27.080  0.00  0.00    +0.132 C 
ENDBRANCH  11   4
BRANCH  11  15
ATOM     15  C   UNL     1      -0.846   2.771  24.277  0.00  0.00    -0.033 A 
ATOM     16  C   UNL     1      -1.987   2.348  23.597  0.00  0.00    +0.007 A 
ATOM     17  C   UNL     1      -0.909   3.877  25.125  0.00  0.00    +0.007 A 
ATOM     18  C   UNL     1      -3.191   3.030  23.764  0.00  0.00    +0.023 A 
ATOM     19  C   UNL     1      -2.113   4.560  25.292  0.00  0.00    +0.023 A 
ATOM     20  C   UNL     1      -3.255   4.136  24.611  0.00  0.00    +0.033 A 
BRANCH  20   6
ATOM      3  O   UNL     1      -5.766   3.342  26.071  0.00  0.00    -0.276 OA
ATOM      6  N   UNL     1      -4.460   4.819  24.779  0.00  0.00    -0.286 N 
ATOM     21  C   UNL     1      -5.603   4.399  25.472  0.00  0.00    +0.214 C 
ATOM     22  C   UNL     1      -6.701   5.433  25.419  0.00  0.00    +0.109 C 
ATOM     23  H   UNL     1      -4.504   5.737  24.340  0.00  0.00    +0.155 HD
ENDBRANCH  20   6
ENDBRANCH  11  15
TORSDOF 3
ENDMDL
MODEL 10
REMARK VINA RESULT:       0.3      1.723      6.677
REMARK  Name = 56775103
REMARK  5 active torsions:
REMARK  status: ('A' for Active; 'I' for Inactive)
REMARK    1  A    between atoms: N_4  and  C_11
REMARK    2  A    between atoms: N_5  and  C_14
REMARK    3  A    between atoms: N_6  and  C_20
REMARK    4  A    between atoms: C_11  and  C_15
REMARK    5  A    between atoms: C_21  and  C_22
REMARK                            x       y       z     vdW  Elec       q    Type
REMARK                         _______ _______ _______ _____ _____    ______ ____
ROOT
ATOM     11  C   UNL     1      -3.454  -1.854  24.259  0.00  0.00    +0.119 C 
ENDROOT
BRANCH  11   4
ATOM      1  O   UNL     1      -0.567   0.967  25.570  0.00  0.00    -0.364 OA
ATOM      2  O   UNL     1       1.823   2.187  23.286  0.00  0.00    -0.273 OA
ATOM      4  N   UNL     1      -2.026  -1.799  24.531  0.00  0.00    -0.294 NA
ATOM      5  N   UNL     1       0.939   0.041  23.457  0.00  0.00    -0.296 N 
ATOM      7  C   UNL     1       0.068  -0.892  24.167  0.00  0.00    +0.120 C 
ATOM      8  C   UNL     1      -0.356  -0.444  25.562  0.00  0.00    +0.154 C 
ATOM      9  C   UNL     1      -1.276  -1.112  23.480  0.00  0.00    +0.110 C 
ATOM     10  C   UNL     1      -1.710  -1.120  25.795  0.00  0.00    +0.118 C 
ATOM     12  C   UNL     1       0.625   1.656  25.275  0.00  0.00    +0.256 C 
ATOM     13  C   UNL     1       1.171   1.340  23.898  0.00  0.00    +0.241 C 
ATOM     14  C   UNL     1       1.498  -0.410  22.189  0.00  0.00    +0.132 C 
ENDBRANCH  11   4
BRANCH  11  15
ATOM     15  C   UNL     1      -4.116  -0.518  24.466  0.00  0.00    -0.033 A 
ATOM     16  C   UNL     1      -3.787   0.559  23.643  0.00  0.00    +0.007 A 
ATOM     17  C   UNL     1      -5.060  -0.356  25.481  0.00  0.00    +0.007 A 
ATOM     18  C   UNL     1      -4.400   1.796  23.834  0.00  0.00    +0.023 A 
ATOM     19  C   UNL     1      -5.673   0.881  25.673  0.00  0.00    +0.023 A 
ATOM     20  C   UNL     1      -5.342   1.958  24.849  0.00  0.00    +0.033 A 
BRANCH  20   6
ATOM      3  O   UNL     1      -4.220   4.557  25.875  0.00  0.00    -0.276 OA
ATOM      6  N   UNL     1      -5.956   3.196  25.041  0.00  0.00    -0.286 N 
ATOM     21  C   UNL     1      -5.382   4.380  25.526  0.00  0.00    +0.214 C 
ATOM     22  C   UNL     1      -6.386   5.504  25.586  0.00  0.00    +0.109 C 
ATOM     23  H   UNL     1      -6.944   3.235  24.797  0.00  0.00    +0.155 HD
ENDBRANCH  20   6
ENDBRANCH  11  15
TORSDOF 3
ENDMDL
