MODEL 1
REMARK VINA RESULT:      -3.5      0.000      0.000
REMARK  Name = 51138082
REMARK  10 active torsions:
REMARK  status: ('A' for Active; 'I' for Inactive)
REMARK    1  A    between atoms: N_3  and  C_21
REMARK    2  A    between atoms: N_4  and  C_22
REMARK    3  A    between atoms: C_5  and  C_9
REMARK    4  A    between atoms: C_8  and  C_16
REMARK    5  A    between atoms: C_9  and  C_12
REMARK    6  A    between atoms: C_12  and  C_19
REMARK    7  A    between atoms: C_12  and  C_20
REMARK    8  A    between atoms: C_21  and  C_23
REMARK    9  A    between atoms: C_22  and  C_25
REMARK   10  A    between atoms: C_24  and  C_26
REMARK                            x       y       z     vdW  Elec       q    Type
REMARK                         _______ _______ _______ _____ _____    ______ ____
ROOT
ATOM      2  N   UNL     1       0.203  -0.620  23.812  0.00  0.00    -0.299 NA
ATOM      3  N   UNL     1      -1.975   3.635  25.442  0.00  0.00    -0.335 N 
ATOM      5  C   UNL     1      -1.240  -0.814  23.622  0.00  0.00    +0.085 C 
ATOM      6  C   UNL     1      -2.145   0.272  24.213  0.00  0.00    -0.021 A 
ATOM      7  C   UNL     1      -1.715   1.571  24.611  0.00  0.00    +0.008 A 
ATOM      8  C   UNL     1       0.751   0.557  23.152  0.00  0.00    +0.145 C 
ATOM     10  C   UNL     1       0.864   1.737  24.113  0.00  0.00    +0.065 C 
ATOM     11  C   UNL     1      -0.450   2.255  24.594  0.00  0.00    -0.020 A 
ATOM     13  C   UNL     1      -2.649   2.478  25.125  0.00  0.00    +0.050 A 
ATOM     14  C   UNL     1      -0.655   3.513  25.121  0.00  0.00    +0.091 A 
ATOM     15  C   UNL     1      -3.537   0.016  24.312  0.00  0.00    +0.006 A 
ATOM     17  C   UNL     1      -4.008   2.191  25.258  0.00  0.00    +0.026 A 
ATOM     18  C   UNL     1      -4.440   0.943  24.827  0.00  0.00    +0.002 A 
ATOM     28  H   UNL     1       0.446  -0.633  24.802  0.00  0.00    +0.123 HD
ENDROOT
BRANCH   8  16
ATOM      1  O   UNL     1       2.330  -0.913  22.132  0.00  0.00    -0.274 OA
ATOM      4  N   UNL     1       3.081   1.096  23.038  0.00  0.00    -0.303 N 
ATOM     16  C   UNL     1       2.123   0.153  22.706  0.00  0.00    +0.231 C 
ATOM     29  H   UNL     1       2.796   1.959  23.493  0.00  0.00    +0.150 HD
BRANCH   4  22
ATOM     22  C   UNL     1       4.486   0.935  22.739  0.00  0.00    +0.193 C 
BRANCH  22  25
ATOM     25  C   UNL     1       5.104  -0.051  23.626  0.00  0.00    -0.087 C 
ATOM     27  C   UNL     1       5.607  -0.862  24.354  0.00  0.00    +0.005 C 
ENDBRANCH  22  25
ENDBRANCH   4  22
ENDBRANCH   8  16
BRANCH   5   9
ATOM      9  C   UNL     1      -1.527  -2.206  24.212  0.00  0.00    +0.026 C 
BRANCH   9  12
ATOM     12  C   UNL     1      -2.986  -2.386  24.643  0.00  0.00    -0.015 C 
ATOM     19  C   UNL     1      -3.034  -2.719  26.136  0.00  0.00    +0.007 C 
ATOM     20  C   UNL     1      -3.705  -3.476  23.847  0.00  0.00    +0.007 C 
ENDBRANCH   9  12
ENDBRANCH   5   9
BRANCH   3  21
ATOM     21  C   UNL     1      -2.568   4.825  26.012  0.00  0.00    +0.210 C 
BRANCH  21  23
ATOM     23  C   UNL     1      -4.018   4.883  25.786  0.00  0.00    -0.081 C 
ATOM     24  C   UNL     1      -5.203   4.929  25.603  0.00  0.00    -0.104 C 
ATOM     26  C   UNL     1      -6.647   4.986  25.377  0.00  0.00    +0.106 C 
ENDBRANCH  21  23
ENDBRANCH   3  21
TORSDOF 7
ENDMDL
MODEL 2
REMARK VINA RESULT:       0.0      2.047      7.012
REMARK  Name = 51138082
REMARK  10 active torsions:
REMARK  status: ('A' for Active; 'I' for Inactive)
REMARK    1  A    between atoms: N_3  and  C_21
REMARK    2  A    between atoms: N_4  and  C_22
REMARK    3  A    between atoms: C_5  and  C_9
REMARK    4  A    between atoms: C_8  and  C_16
REMARK    5  A    between atoms: C_9  and  C_12
REMARK    6  A    between atoms: C_12  and  C_19
REMARK    7  A    between atoms: C_12  and  C_20
REMARK    8  A    between atoms: C_21  and  C_23
REMARK    9  A    between atoms: C_22  and  C_25
REMARK   10  A    between atoms: C_24  and  C_26
REMARK                            x       y       z     vdW  Elec       q    Type
REMARK                         _______ _______ _______ _____ _____    ______ ____
ROOT
ATOM      2  N   UNL     1      -2.559   1.839  25.292  0.00  0.00    -0.299 NA
ATOM      3  N   UNL     1       1.626   0.179  23.004  0.00  0.00    -0.335 N 
ATOM      5  C   UNL     1      -2.288   0.515  25.869  0.00  0.00    +0.085 C 
ATOM      6  C   UNL     1      -1.163  -0.286  25.206  0.00  0.00    -0.021 A 
ATOM      7  C   UNL     1      -0.170   0.256  24.340  0.00  0.00    +0.008 A 
ATOM      8  C   UNL     1      -1.463   2.790  25.412  0.00  0.00    +0.145 C 
ATOM     10  C   UNL     1      -0.624   2.841  24.138  0.00  0.00    +0.065 C 
ATOM     11  C   UNL     1       0.114   1.577  23.847  0.00  0.00    -0.020 A 
ATOM     13  C   UNL     1       0.814  -0.585  23.809  0.00  0.00    +0.050 A 
ATOM     14  C   UNL     1       1.217   1.481  23.024  0.00  0.00    +0.091 A 
ATOM     15  C   UNL     1      -1.033  -1.663  25.523  0.00  0.00    +0.006 A 
ATOM     17  C   UNL     1       0.899  -1.948  24.097  0.00  0.00    +0.026 A 
ATOM     18  C   UNL     1      -0.038  -2.472  24.978  0.00  0.00    +0.002 A 
ATOM     28  H   UNL     1      -2.874   1.758  24.326  0.00  0.00    +0.123 HD
ENDROOT
BRANCH   8  16
ATOM      1  O   UNL     1      -1.547   5.174  25.355  0.00  0.00    -0.274 OA
ATOM      4  N   UNL     1      -3.391   3.999  26.157  0.00  0.00    -0.303 N 
ATOM     16  C   UNL     1      -2.119   4.121  25.622  0.00  0.00    +0.231 C 
ATOM     29  H   UNL     1      -3.778   3.074  26.317  0.00  0.00    +0.150 HD
BRANCH   4  22
ATOM     22  C   UNL     1      -4.226   5.135  26.475  0.00  0.00    +0.193 C 
BRANCH  22  25
ATOM     25  C   UNL     1      -5.517   5.046  25.793  0.00  0.00    -0.087 C 
ATOM     27  C   UNL     1      -6.575   4.974  25.230  0.00  0.00    +0.005 C 
ENDBRANCH  22  25
ENDBRANCH   4  22
ENDBRANCH   8  16
BRANCH   5   9
ATOM      9  C   UNL     1      -3.642  -0.215  25.818  0.00  0.00    +0.026 C 
BRANCH   9  12
ATOM     12  C   UNL     1      -4.272  -0.213  24.422  0.00  0.00    -0.015 C 
ATOM     19  C   UNL     1      -5.641   0.469  24.486  0.00  0.00    +0.007 C 
ATOM     20  C   UNL     1      -4.424  -1.621  23.843  0.00  0.00    +0.007 C 
ENDBRANCH   9  12
ENDBRANCH   5   9
BRANCH   3  21
ATOM     21  C   UNL     1       2.765  -0.304  22.254  0.00  0.00    +0.210 C 
BRANCH  21  23
ATOM     23  C   UNL     1       4.037   0.012  22.917  0.00  0.00    -0.081 C 
ATOM     24  C   UNL     1       5.077   0.270  23.457  0.00  0.00    -0.104 C 
ATOM     26  C   UNL     1       6.344   0.584  24.118  0.00  0.00    +0.106 C 
ENDBRANCH  21  23
ENDBRANCH   3  21
TORSDOF 7
ENDMDL
MODEL 3
REMARK VINA RESULT:       0.4      2.339      6.721
REMARK  Name = 51138082
REMARK  10 active torsions:
REMARK  status: ('A' for Active; 'I' for Inactive)
REMARK    1  A    between atoms: N_3  and  C_21
REMARK    2  A    between atoms: N_4  and  C_22
REMARK    3  A    between atoms: C_5  and  C_9
REMARK    4  A    between atoms: C_8  and  C_16
REMARK    5  A    between atoms: C_9  and  C_12
REMARK    6  A    between atoms: C_12  and  C_19
REMARK    7  A    between atoms: C_12  and  C_20
REMARK    8  A    between atoms: C_21  and  C_23
REMARK    9  A    between atoms: C_22  and  C_25
REMARK   10  A    between atoms: C_24  and  C_26
REMARK                            x       y       z     vdW  Elec       q    Type
REMARK                         _______ _______ _______ _____ _____    ______ ____
ROOT
ATOM      2  N   UNL     1      -3.191   2.194  25.033  0.00  0.00    -0.299 NA
ATOM      3  N   UNL     1       0.800  -0.397  23.340  0.00  0.00    -0.335 N 
ATOM      5  C   UNL     1      -3.404   0.806  25.467  0.00  0.00    +0.085 C 
ATOM      6  C   UNL     1      -2.414  -0.225  24.918  0.00  0.00    -0.021 A 
ATOM      7  C   UNL     1      -1.154   0.080  24.327  0.00  0.00    +0.008 A 
ATOM      8  C   UNL     1      -1.935   2.784  25.476  0.00  0.00    +0.145 C 
ATOM     10  C   UNL     1      -0.862   2.695  24.394  0.00  0.00    +0.065 C 
ATOM     11  C   UNL     1      -0.437   1.301  24.075  0.00  0.00    -0.020 A 
ATOM     13  C   UNL     1      -0.334  -0.961  23.876  0.00  0.00    +0.050 A 
ATOM     14  C   UNL     1       0.751   0.961  23.460  0.00  0.00    +0.091 A 
ATOM     15  C   UNL     1      -2.718  -1.603  25.066  0.00  0.00    +0.006 A 
ATOM     17  C   UNL     1      -0.672  -2.310  23.988  0.00  0.00    +0.026 A 
ATOM     18  C   UNL     1      -1.878  -2.615  24.607  0.00  0.00    +0.002 A 
ATOM     28  H   UNL     1      -3.304   2.282  24.024  0.00  0.00    +0.123 HD
ENDROOT
BRANCH   8  16
ATOM      1  O   UNL     1      -3.090   4.563  26.569  0.00  0.00    -0.274 OA
ATOM      4  N   UNL     1      -1.511   5.078  24.937  0.00  0.00    -0.303 N 
ATOM     16  C   UNL     1      -2.249   4.225  25.740  0.00  0.00    +0.231 C 
ATOM     29  H   UNL     1      -0.822   4.690  24.299  0.00  0.00    +0.150 HD
BRANCH   4  22
ATOM     22  C   UNL     1      -1.643   6.516  24.980  0.00  0.00    +0.193 C 
BRANCH  22  25
ATOM     25  C   UNL     1      -2.408   7.009  23.835  0.00  0.00    -0.087 C 
ATOM     27  C   UNL     1      -3.037   7.411  22.895  0.00  0.00    +0.005 C 
ENDBRANCH  22  25
ENDBRANCH   4  22
ENDBRANCH   8  16
BRANCH   5   9
ATOM      9  C   UNL     1      -4.859   0.496  25.074  0.00  0.00    +0.026 C 
BRANCH   9  12
ATOM     12  C   UNL     1      -5.785   1.710  25.197  0.00  0.00    -0.015 C 
ATOM     19  C   UNL     1      -6.265   1.835  26.644  0.00  0.00    +0.007 C 
ATOM     20  C   UNL     1      -6.990   1.628  24.258  0.00  0.00    +0.007 C 
ENDBRANCH   9  12
ENDBRANCH   5   9
BRANCH   3  21
ATOM     21  C   UNL     1       1.905  -1.122  22.752  0.00  0.00    +0.210 C 
BRANCH  21  23
ATOM     23  C   UNL     1       3.202  -0.525  23.095  0.00  0.00    -0.081 C 
ATOM     24  C   UNL     1       4.263  -0.037  23.373  0.00  0.00    -0.104 C 
ATOM     26  C   UNL     1       5.555   0.556  23.714  0.00  0.00    +0.106 C 
ENDBRANCH  21  23
ENDBRANCH   3  21
TORSDOF 7
ENDMDL
