MODEL 1
REMARK VINA RESULT:      -1.6      0.000      0.000
REMARK  Name = 45784144
REMARK  10 active torsions:
REMARK  status: ('A' for Active; 'I' for Inactive)
REMARK    1  A    between atoms: N_3  and  C_16
REMARK    2  A    between atoms: C_9  and  C_13
REMARK    3  A    between atoms: C_10  and  C_16
REMARK    4  A    between atoms: C_12  and  C_17
REMARK    5  A    between atoms: C_13  and  C_18
REMARK    6  A    between atoms: C_13  and  C_19
REMARK    7  A    between atoms: C_14  and  C_20
REMARK    8  A    between atoms: C_17  and  C_21
REMARK    9  A    between atoms: C_22  and  C_24
REMARK   10  A    between atoms: C_23  and  C_25
REMARK                            x       y       z     vdW  Elec       q    Type
REMARK                         _______ _______ _______ _____ _____    ______ ____
ROOT
ATOM      9  C   UNL     1      -2.517   2.478  23.371  0.00  0.00    +0.000 C 
ATOM     10  C   UNL     1      -0.990   2.228  23.289  0.00  0.00    +0.032 C 
ATOM     11  C   UNL     1      -2.804   3.966  23.628  0.00  0.00    +0.012 C 
ATOM     12  C   UNL     1      -2.157   4.466  24.933  0.00  0.00    +0.024 C 
ATOM     14  C   UNL     1      -0.712   4.026  25.051  0.00  0.00    -0.073 C 
ATOM     15  C   UNL     1      -0.204   3.033  24.299  0.00  0.00    -0.022 C 
ATOM     20  C   UNL     1       0.151   4.784  26.021  0.00  0.00    +0.039 C 
ENDROOT
BRANCH   9  13
ATOM     13  C   UNL     1      -3.235   2.024  22.097  0.00  0.00    -0.013 C 
ATOM     18  C   UNL     1      -2.223   1.622  21.030  0.00  0.00    +0.007 C 
ATOM     19  C   UNL     1      -4.154   3.129  21.582  0.00  0.00    +0.007 C 
ENDBRANCH   9  13
BRANCH  10  16
ATOM     16  C   UNL     1      -0.663   0.740  23.457  0.00  0.00    +0.112 C 
BRANCH  16   3
ATOM      2  O   UNL     1       1.232  -0.339  21.590  0.00  0.00    -0.268 OA
ATOM      3  N   UNL     1       0.738   0.551  23.675  0.00  0.00    -0.309 N 
ATOM     22  C   UNL     1       1.590   0.018  22.709  0.00  0.00    +0.264 C 
ATOM     33  H   UNL     1       1.137   0.855  24.559  0.00  0.00    +0.149 HD
BRANCH  22  24
ATOM      6  N   UNL     1       3.801   0.948  22.964  0.00  0.00    -0.247 NA
ATOM      7  N   UNL     1       4.793  -1.491  23.931  0.00  0.00    -0.259 NA
ATOM     24  C   UNL     1       3.015  -0.138  23.100  0.00  0.00    +0.143 A 
ATOM     26  C   UNL     1       3.502  -1.335  23.575  0.00  0.00    +0.143 A 
ATOM     29  C   UNL     1       5.092   0.794  23.320  0.00  0.00    +0.131 A 
ATOM     30  C   UNL     1       5.579  -0.404  23.795  0.00  0.00    +0.130 A 
ENDBRANCH  22  24
ENDBRANCH  16   3
ENDBRANCH  10  16
BRANCH  12  17
ATOM     17  C   UNL     1      -2.966   4.023  26.157  0.00  0.00    +0.105 C 
BRANCH  17  21
ATOM      1  O   UNL     1      -3.284   1.667  25.602  0.00  0.00    -0.420 OA
ATOM      4  N   UNL     1      -5.182   2.846  25.715  0.00  0.00    -0.112 NA
ATOM      5  N   UNL     1      -5.508   1.541  25.396  0.00  0.00    -0.107 NA
ATOM     21  C   UNL     1      -3.875   2.873  25.827  0.00  0.00    +0.218 A 
ATOM     23  C   UNL     1      -4.369   0.890  25.341  0.00  0.00    +0.248 A 
BRANCH  23  25
ATOM      8  N   UNL     1      -3.572  -3.177  24.493  0.00  0.00    -0.263 NA
ATOM     25  C   UNL     1      -4.098  -0.489  25.053  0.00  0.00    +0.041 A 
ATOM     27  C   UNL     1      -3.435  -1.279  25.985  0.00  0.00    +0.033 A 
ATOM     28  C   UNL     1      -4.500  -1.041  23.841  0.00  0.00    +0.033 A 
ATOM     31  C   UNL     1      -3.197  -2.605  25.659  0.00  0.00    +0.111 A 
ATOM     32  C   UNL     1      -4.216  -2.378  23.612  0.00  0.00    +0.111 A 
ENDBRANCH  23  25
ENDBRANCH  17  21
ENDBRANCH  12  17
TORSDOF 7
ENDMDL
MODEL 2
REMARK VINA RESULT:      -1.4      1.790      4.847
REMARK  Name = 45784144
REMARK  10 active torsions:
REMARK  status: ('A' for Active; 'I' for Inactive)
REMARK    1  A    between atoms: N_3  and  C_16
REMARK    2  A    between atoms: C_9  and  C_13
REMARK    3  A    between atoms: C_10  and  C_16
REMARK    4  A    between atoms: C_12  and  C_17
REMARK    5  A    between atoms: C_13  and  C_18
REMARK    6  A    between atoms: C_13  and  C_19
REMARK    7  A    between atoms: C_14  and  C_20
REMARK    8  A    between atoms: C_17  and  C_21
REMARK    9  A    between atoms: C_22  and  C_24
REMARK   10  A    between atoms: C_23  and  C_25
REMARK                            x       y       z     vdW  Elec       q    Type
REMARK                         _______ _______ _______ _____ _____    ______ ____
ROOT
ATOM      9  C   UNL     1      -1.628  -0.202  24.951  0.00  0.00    +0.000 C 
ATOM     10  C   UNL     1      -1.035  -1.502  24.354  0.00  0.00    +0.032 C 
ATOM     11  C   UNL     1      -2.779  -0.530  25.916  0.00  0.00    +0.012 C 
ATOM     12  C   UNL     1      -3.912  -1.311  25.226  0.00  0.00    +0.024 C 
ATOM     14  C   UNL     1      -3.380  -2.459  24.392  0.00  0.00    -0.073 C 
ATOM     15  C   UNL     1      -2.089  -2.535  24.023  0.00  0.00    -0.022 C 
ATOM     20  C   UNL     1      -4.356  -3.544  24.030  0.00  0.00    +0.039 C 
ENDROOT
BRANCH   9  13
ATOM     13  C   UNL     1      -0.564   0.627  25.677  0.00  0.00    -0.013 C 
ATOM     18  C   UNL     1      -1.191   1.415  26.822  0.00  0.00    +0.007 C 
ATOM     19  C   UNL     1       0.140   1.562  24.698  0.00  0.00    +0.007 C 
ENDBRANCH   9  13
BRANCH  10  16
ATOM     16  C   UNL     1      -0.200  -1.207  23.103  0.00  0.00    +0.112 C 
BRANCH  16   3
ATOM      2  O   UNL     1       1.861  -0.236  21.356  0.00  0.00    -0.268 OA
ATOM      3  N   UNL     1       1.160  -0.938  23.454  0.00  0.00    -0.309 N 
ATOM     22  C   UNL     1       2.099  -0.466  22.538  0.00  0.00    +0.264 C 
ATOM     33  H   UNL     1       1.444  -1.059  24.422  0.00  0.00    +0.149 HD
BRANCH  22  24
ATOM      6  N   UNL     1       4.065  -1.319  23.646  0.00  0.00    -0.247 NA
ATOM      7  N   UNL     1       5.365   1.154  23.396  0.00  0.00    -0.259 NA
ATOM     24  C   UNL     1       3.478  -0.260  23.054  0.00  0.00    +0.143 A 
ATOM     26  C   UNL     1       4.116   0.954  22.931  0.00  0.00    +0.143 A 
ATOM     29  C   UNL     1       5.314  -1.120  24.111  0.00  0.00    +0.131 A 
ATOM     30  C   UNL     1       5.953   0.095  23.989  0.00  0.00    +0.130 A 
ENDBRANCH  22  24
ENDBRANCH  16   3
ENDBRANCH  10  16
BRANCH  12  17
ATOM     17  C   UNL     1      -4.789  -0.380  24.380  0.00  0.00    +0.105 C 
BRANCH  17  21
ATOM      1  O   UNL     1      -3.541   1.713  24.508  0.00  0.00    -0.420 OA
ATOM      4  N   UNL     1      -5.528   1.767  25.534  0.00  0.00    -0.112 NA
ATOM      5  N   UNL     1      -4.937   3.008  25.683  0.00  0.00    -0.107 NA
ATOM     21  C   UNL     1      -4.679   1.046  24.841  0.00  0.00    +0.218 A 
ATOM     23  C   UNL     1      -3.779   2.929  25.069  0.00  0.00    +0.248 A 
BRANCH  23  25
ATOM      8  N   UNL     1      -0.733   5.822  24.573  0.00  0.00    -0.263 NA
ATOM     25  C   UNL     1      -2.745   3.911  24.901  0.00  0.00    +0.041 A 
ATOM     27  C   UNL     1      -1.671   3.655  24.056  0.00  0.00    +0.033 A 
ATOM     28  C   UNL     1      -2.815   5.121  25.582  0.00  0.00    +0.033 A 
ATOM     31  C   UNL     1      -0.700   4.635  23.928  0.00  0.00    +0.111 A 
ATOM     32  C   UNL     1      -1.793   6.035  25.385  0.00  0.00    +0.111 A 
ENDBRANCH  23  25
ENDBRANCH  17  21
ENDBRANCH  12  17
TORSDOF 7
ENDMDL
MODEL 3
REMARK VINA RESULT:      -0.8      1.849      5.866
REMARK  Name = 45784144
REMARK  10 active torsions:
REMARK  status: ('A' for Active; 'I' for Inactive)
REMARK    1  A    between atoms: N_3  and  C_16
REMARK    2  A    between atoms: C_9  and  C_13
REMARK    3  A    between atoms: C_10  and  C_16
REMARK    4  A    between atoms: C_12  and  C_17
REMARK    5  A    between atoms: C_13  and  C_18
REMARK    6  A    between atoms: C_13  and  C_19
REMARK    7  A    between atoms: C_14  and  C_20
REMARK    8  A    between atoms: C_17  and  C_21
REMARK    9  A    between atoms: C_22  and  C_24
REMARK   10  A    between atoms: C_23  and  C_25
REMARK                            x       y       z     vdW  Elec       q    Type
REMARK                         _______ _______ _______ _____ _____    ______ ____
ROOT
ATOM      9  C   UNL     1      -3.996   3.250  25.365  0.00  0.00    +0.000 C 
ATOM     10  C   UNL     1      -3.708   3.718  23.917  0.00  0.00    +0.032 C 
ATOM     11  C   UNL     1      -3.289   4.167  26.376  0.00  0.00    +0.012 C 
ATOM     12  C   UNL     1      -1.763   4.196  26.167  0.00  0.00    +0.024 C 
ATOM     14  C   UNL     1      -1.397   4.387  24.709  0.00  0.00    -0.073 C 
ATOM     15  C   UNL     1      -2.283   4.182  23.718  0.00  0.00    -0.022 C 
ATOM     20  C   UNL     1      -0.002   4.864  24.417  0.00  0.00    +0.039 C 
ENDROOT
BRANCH   9  13
ATOM     13  C   UNL     1      -5.498   3.213  25.662  0.00  0.00    -0.013 C 
ATOM     18  C   UNL     1      -6.049   4.629  25.800  0.00  0.00    +0.007 C 
ATOM     19  C   UNL     1      -5.772   2.401  26.925  0.00  0.00    +0.007 C 
ENDBRANCH   9  13
BRANCH  10  16
ATOM     16  C   UNL     1      -4.031   2.614  22.904  0.00  0.00    +0.112 C 
BRANCH  16   3
ATOM      2  O   UNL     1      -5.842   0.723  24.083  0.00  0.00    -0.268 OA
ATOM      3  N   UNL     1      -3.698   1.328  23.432  0.00  0.00    -0.309 N 
ATOM     22  C   UNL     1      -4.645   0.469  23.989  0.00  0.00    +0.264 C 
ATOM     33  H   UNL     1      -2.736   1.009  23.362  0.00  0.00    +0.149 HD
BRANCH  22  24
ATOM      6  N   UNL     1      -3.708  -0.827  25.796  0.00  0.00    -0.247 NA
ATOM      7  N   UNL     1      -3.635  -3.132  24.199  0.00  0.00    -0.259 NA
ATOM     24  C   UNL     1      -4.133  -0.823  24.517  0.00  0.00    +0.143 A 
ATOM     26  C   UNL     1      -4.098  -1.955  23.734  0.00  0.00    +0.143 A 
ATOM     29  C   UNL     1      -3.245  -2.003  26.263  0.00  0.00    +0.131 A 
ATOM     30  C   UNL     1      -3.209  -3.136  25.479  0.00  0.00    +0.130 A 
ENDBRANCH  22  24
ENDBRANCH  16   3
ENDBRANCH  10  16
BRANCH  12  17
ATOM     17  C   UNL     1      -1.104   2.935  26.738  0.00  0.00    +0.105 C 
BRANCH  17  21
ATOM      1  O   UNL     1       0.374   1.974  25.049  0.00  0.00    -0.420 OA
ATOM      4  N   UNL     1      -1.616   0.963  25.208  0.00  0.00    -0.112 NA
ATOM      5  N   UNL     1      -0.889   0.321  24.223  0.00  0.00    -0.107 NA
ATOM     21  C   UNL     1      -0.840   1.919  25.663  0.00  0.00    +0.218 A 
ATOM     23  C   UNL     1       0.265   0.945  24.165  0.00  0.00    +0.248 A 
BRANCH  23  25
ATOM      8  N   UNL     1       3.634   0.259  21.702  0.00  0.00    -0.263 NA
ATOM     25  C   UNL     1       1.407   0.713  23.329  0.00  0.00    +0.041 A 
ATOM     27  C   UNL     1       2.605   1.371  23.586  0.00  0.00    +0.033 A 
ATOM     28  C   UNL     1       1.322  -0.172  22.260  0.00  0.00    +0.033 A 
ATOM     31  C   UNL     1       3.680   1.112  22.750  0.00  0.00    +0.111 A 
ATOM     32  C   UNL     1       2.454  -0.362  21.484  0.00  0.00    +0.111 A 
ENDBRANCH  23  25
ENDBRANCH  17  21
ENDBRANCH  12  17
TORSDOF 7
ENDMDL
MODEL 4
REMARK VINA RESULT:      -0.4      1.126      1.668
REMARK  Name = 45784144
REMARK  10 active torsions:
REMARK  status: ('A' for Active; 'I' for Inactive)
REMARK    1  A    between atoms: N_3  and  C_16
REMARK    2  A    between atoms: C_9  and  C_13
REMARK    3  A    between atoms: C_10  and  C_16
REMARK    4  A    between atoms: C_12  and  C_17
REMARK    5  A    between atoms: C_13  and  C_18
REMARK    6  A    between atoms: C_13  and  C_19
REMARK    7  A    between atoms: C_14  and  C_20
REMARK    8  A    between atoms: C_17  and  C_21
REMARK    9  A    between atoms: C_22  and  C_24
REMARK   10  A    between atoms: C_23  and  C_25
REMARK                            x       y       z     vdW  Elec       q    Type
REMARK                         _______ _______ _______ _____ _____    ______ ____
ROOT
ATOM      9  C   UNL     1      -2.877   2.750  23.820  0.00  0.00    +0.000 C 
ATOM     10  C   UNL     1      -1.508   2.586  24.525  0.00  0.00    +0.032 C 
ATOM     11  C   UNL     1      -3.519   4.093  24.201  0.00  0.00    +0.012 C 
ATOM     12  C   UNL     1      -3.734   4.225  25.720  0.00  0.00    +0.024 C 
ATOM     14  C   UNL     1      -2.501   3.820  26.501  0.00  0.00    -0.073 C 
ATOM     15  C   UNL     1      -1.510   3.098  25.948  0.00  0.00    -0.022 C 
ATOM     20  C   UNL     1      -2.410   4.301  27.923  0.00  0.00    +0.039 C 
ENDROOT
BRANCH   9  13
ATOM     13  C   UNL     1      -2.746   2.651  22.297  0.00  0.00    -0.013 C 
ATOM     18  C   UNL     1      -3.961   3.272  21.616  0.00  0.00    +0.007 C 
ATOM     19  C   UNL     1      -2.574   1.195  21.871  0.00  0.00    +0.007 C 
ENDBRANCH   9  13
BRANCH  10  16
ATOM     16  C   UNL     1      -1.049   1.123  24.511  0.00  0.00    +0.112 C 
BRANCH  16   3
ATOM      2  O   UNL     1       0.292  -0.701  22.746  0.00  0.00    -0.268 OA
ATOM      3  N   UNL     1       0.360   1.036  24.282  0.00  0.00    -0.309 N 
ATOM     22  C   UNL     1       0.929   0.116  23.403  0.00  0.00    +0.264 C 
ATOM     33  H   UNL     1       0.969   1.701  24.751  0.00  0.00    +0.149 HD
BRANCH  22  24
ATOM      6  N   UNL     1       2.972   1.292  22.890  0.00  0.00    -0.247 NA
ATOM      7  N   UNL     1       4.513  -0.970  23.502  0.00  0.00    -0.259 NA
ATOM     24  C   UNL     1       2.412   0.136  23.296  0.00  0.00    +0.143 A 
ATOM     26  C   UNL     1       3.168  -0.974  23.597  0.00  0.00    +0.143 A 
ATOM     29  C   UNL     1       4.316   1.298  22.795  0.00  0.00    +0.131 A 
ATOM     30  C   UNL     1       5.074   0.187  23.096  0.00  0.00    +0.130 A 
ENDBRANCH  22  24
ENDBRANCH  16   3
ENDBRANCH  10  16
BRANCH  12  17
ATOM     17  C   UNL     1      -4.960   3.426  26.176  0.00  0.00    +0.105 C 
BRANCH  17  21
ATOM      1  O   UNL     1      -4.184   1.195  25.562  0.00  0.00    -0.420 OA
ATOM      4  N   UNL     1      -6.046   1.842  24.503  0.00  0.00    -0.112 NA
ATOM      5  N   UNL     1      -5.725   0.572  24.063  0.00  0.00    -0.107 NA
ATOM     21  C   UNL     1      -5.122   2.165  25.376  0.00  0.00    +0.218 A 
ATOM     23  C   UNL     1      -4.632   0.235  24.707  0.00  0.00    +0.248 A 
BRANCH  23  25
ATOM      8  N   UNL     1      -2.329  -3.309  24.540  0.00  0.00    -0.263 NA
ATOM     25  C   UNL     1      -3.851  -0.968  24.651  0.00  0.00    +0.041 A 
ATOM     27  C   UNL     1      -4.258  -2.027  23.848  0.00  0.00    +0.033 A 
ATOM     28  C   UNL     1      -2.684  -1.077  25.398  0.00  0.00    +0.033 A 
ATOM     31  C   UNL     1      -3.469  -3.166  23.828  0.00  0.00    +0.111 A 
ATOM     32  C   UNL     1      -1.964  -2.258  25.309  0.00  0.00    +0.111 A 
ENDBRANCH  23  25
ENDBRANCH  17  21
ENDBRANCH  12  17
TORSDOF 7
ENDMDL
MODEL 5
REMARK VINA RESULT:       0.6      2.048      3.229
REMARK  Name = 45784144
REMARK  10 active torsions:
REMARK  status: ('A' for Active; 'I' for Inactive)
REMARK    1  A    between atoms: N_3  and  C_16
REMARK    2  A    between atoms: C_9  and  C_13
REMARK    3  A    between atoms: C_10  and  C_16
REMARK    4  A    between atoms: C_12  and  C_17
REMARK    5  A    between atoms: C_13  and  C_18
REMARK    6  A    between atoms: C_13  and  C_19
REMARK    7  A    between atoms: C_14  and  C_20
REMARK    8  A    between atoms: C_17  and  C_21
REMARK    9  A    between atoms: C_22  and  C_24
REMARK   10  A    between atoms: C_23  and  C_25
REMARK                            x       y       z     vdW  Elec       q    Type
REMARK                         _______ _______ _______ _____ _____    ______ ____
ROOT
ATOM      9  C   UNL     1      -1.574   3.861  24.649  0.00  0.00    +0.000 C 
ATOM     10  C   UNL     1      -1.822   3.220  26.037  0.00  0.00    +0.032 C 
ATOM     11  C   UNL     1      -2.583   4.992  24.392  0.00  0.00    +0.012 C 
ATOM     12  C   UNL     1      -4.040   4.495  24.447  0.00  0.00    +0.024 C 
ATOM     14  C   UNL     1      -4.294   3.625  25.661  0.00  0.00    -0.073 C 
ATOM     15  C   UNL     1      -3.290   3.075  26.368  0.00  0.00    -0.022 C 
ATOM     20  C   UNL     1      -5.727   3.439  26.074  0.00  0.00    +0.039 C 
ENDROOT
BRANCH   9  13
ATOM     13  C   UNL     1      -0.147   4.401  24.520  0.00  0.00    -0.013 C 
ATOM     18  C   UNL     1      -0.103   5.883  24.876  0.00  0.00    +0.007 C 
ATOM     19  C   UNL     1       0.384   4.169  23.108  0.00  0.00    +0.007 C 
ENDBRANCH   9  13
BRANCH  10  16
ATOM     16  C   UNL     1      -1.137   1.853  26.147  0.00  0.00    +0.112 C 
BRANCH  16   3
ATOM      2  O   UNL     1      -0.257  -0.635  25.016  0.00  0.00    -0.268 OA
ATOM      3  N   UNL     1      -0.177   1.683  25.101  0.00  0.00    -0.309 N 
ATOM     22  C   UNL     1       0.194   0.432  24.610  0.00  0.00    +0.264 C 
ATOM     33  H   UNL     1       0.224   2.512  24.671  0.00  0.00    +0.149 HD
BRANCH  22  24
ATOM      6  N   UNL     1       2.325   1.170  23.754  0.00  0.00    -0.247 NA
ATOM      7  N   UNL     1       1.982  -0.328  21.408  0.00  0.00    -0.259 NA
ATOM     24  C   UNL     1       1.225   0.423  23.539  0.00  0.00    +0.143 A 
ATOM     26  C   UNL     1       1.057  -0.313  22.387  0.00  0.00    +0.143 A 
ATOM     29  C   UNL     1       3.252   1.156  22.775  0.00  0.00    +0.131 A 
ATOM     30  C   UNL     1       3.084   0.420  21.622  0.00  0.00    +0.130 A 
ENDBRANCH  22  24
ENDBRANCH  16   3
ENDBRANCH  10  16
BRANCH  12  17
ATOM     17  C   UNL     1      -4.422   3.761  23.157  0.00  0.00    +0.105 C 
BRANCH  17  21
ATOM      1  O   UNL     1      -4.090   1.439  23.833  0.00  0.00    -0.420 OA
ATOM      4  N   UNL     1      -2.683   2.141  22.240  0.00  0.00    -0.112 NA
ATOM      5  N   UNL     1      -2.385   0.821  22.523  0.00  0.00    -0.107 NA
ATOM     21  C   UNL     1      -3.684   2.459  23.027  0.00  0.00    +0.218 A 
ATOM     23  C   UNL     1      -3.230   0.454  23.457  0.00  0.00    +0.248 A 
BRANCH  23  25
ATOM      8  N   UNL     1      -3.685  -3.253  25.444  0.00  0.00    -0.263 NA
ATOM     25  C   UNL     1      -3.385  -0.804  24.132  0.00  0.00    +0.041 A 
ATOM     27  C   UNL     1      -3.789  -1.930  23.423  0.00  0.00    +0.033 A 
ATOM     28  C   UNL     1      -3.131  -0.900  25.495  0.00  0.00    +0.033 A 
ATOM     31  C   UNL     1      -3.923  -3.121  24.120  0.00  0.00    +0.111 A 
ATOM     32  C   UNL     1      -3.294  -2.137  26.099  0.00  0.00    +0.111 A 
ENDBRANCH  23  25
ENDBRANCH  17  21
ENDBRANCH  12  17
TORSDOF 7
ENDMDL
MODEL 6
REMARK VINA RESULT:       1.5      2.049      3.004
REMARK  Name = 45784144
REMARK  10 active torsions:
REMARK  status: ('A' for Active; 'I' for Inactive)
REMARK    1  A    between atoms: N_3  and  C_16
REMARK    2  A    between atoms: C_9  and  C_13
REMARK    3  A    between atoms: C_10  and  C_16
REMARK    4  A    between atoms: C_12  and  C_17
REMARK    5  A    between atoms: C_13  and  C_18
REMARK    6  A    between atoms: C_13  and  C_19
REMARK    7  A    between atoms: C_14  and  C_20
REMARK    8  A    between atoms: C_17  and  C_21
REMARK    9  A    between atoms: C_22  and  C_24
REMARK   10  A    between atoms: C_23  and  C_25
REMARK                            x       y       z     vdW  Elec       q    Type
REMARK                         _______ _______ _______ _____ _____    ______ ____
ROOT
ATOM      9  C   UNL     1      -4.055   2.601  24.768  0.00  0.00    +0.000 C 
ATOM     10  C   UNL     1      -3.288   2.772  23.433  0.00  0.00    +0.032 C 
ATOM     11  C   UNL     1      -4.205   3.956  25.478  0.00  0.00    +0.012 C 
ATOM     12  C   UNL     1      -2.843   4.610  25.778  0.00  0.00    +0.024 C 
ATOM     14  C   UNL     1      -1.924   4.576  24.574  0.00  0.00    -0.073 C 
ATOM     15  C   UNL     1      -2.145   3.758  23.529  0.00  0.00    -0.022 C 
ATOM     20  C   UNL     1      -0.768   5.537  24.576  0.00  0.00    +0.039 C 
ENDROOT
BRANCH   9  13
ATOM     13  C   UNL     1      -5.434   1.972  24.554  0.00  0.00    -0.013 C 
ATOM     18  C   UNL     1      -6.394   2.405  25.657  0.00  0.00    +0.007 C 
ATOM     19  C   UNL     1      -5.323   0.451  24.500  0.00  0.00    +0.007 C 
ENDBRANCH   9  13
BRANCH  10  16
ATOM     16  C   UNL     1      -2.759   1.428  22.921  0.00  0.00    +0.112 C 
BRANCH  16   3
ATOM      2  O   UNL     1      -1.043  -0.852  22.604  0.00  0.00    -0.268 OA
ATOM      3  N   UNL     1      -1.331   1.437  22.854  0.00  0.00    -0.309 N 
ATOM     22  C   UNL     1      -0.572   0.277  22.699  0.00  0.00    +0.264 C 
ATOM     33  H   UNL     1      -0.850   2.332  22.882  0.00  0.00    +0.149 HD
BRANCH  22  24
ATOM      6  N   UNL     1       1.597  -0.381  21.874  0.00  0.00    -0.247 NA
ATOM      7  N   UNL     1       2.861   1.590  23.417  0.00  0.00    -0.259 NA
ATOM     24  C   UNL     1       0.903   0.453  22.673  0.00  0.00    +0.143 A 
ATOM     26  C   UNL     1       1.524   1.421  23.430  0.00  0.00    +0.143 A 
ATOM     29  C   UNL     1       2.934  -0.213  21.860  0.00  0.00    +0.131 A 
ATOM     30  C   UNL     1       3.555   0.755  22.618  0.00  0.00    +0.130 A 
ENDBRANCH  22  24
ENDBRANCH  16   3
ENDBRANCH  10  16
BRANCH  12  17
ATOM     17  C   UNL     1      -2.175   3.963  26.996  0.00  0.00    +0.105 C 
BRANCH  17  21
ATOM      1  O   UNL     1      -2.112   1.611  26.343  0.00  0.00    -0.420 OA
ATOM      4  N   UNL     1      -0.099   2.577  26.485  0.00  0.00    -0.112 NA
ATOM      5  N   UNL     1       0.085   1.260  26.109  0.00  0.00    -0.107 NA
ATOM     21  C   UNL     1      -1.396   2.738  26.609  0.00  0.00    +0.218 A 
ATOM     23  C   UNL     1      -1.117   0.735  26.039  0.00  0.00    +0.248 A 
BRANCH  23  25
ATOM      8  N   UNL     1      -2.348  -3.184  25.030  0.00  0.00    -0.263 NA
ATOM     25  C   UNL     1      -1.534  -0.594  25.697  0.00  0.00    +0.041 A 
ATOM     27  C   UNL     1      -2.888  -0.903  25.621  0.00  0.00    +0.033 A 
ATOM     28  C   UNL     1      -0.587  -1.579  25.440  0.00  0.00    +0.033 A 
ATOM     31  C   UNL     1      -3.239  -2.201  25.286  0.00  0.00    +0.111 A 
ATOM     32  C   UNL     1      -1.041  -2.846  25.113  0.00  0.00    +0.111 A 
ENDBRANCH  23  25
ENDBRANCH  17  21
ENDBRANCH  12  17
TORSDOF 7
ENDMDL
