MODEL 1
REMARK VINA RESULT:      -1.2      0.000      0.000
REMARK  Name = 11882057
REMARK  10 active torsions:
REMARK  status: ('A' for Active; 'I' for Inactive)
REMARK    1  A    between atoms: N_7  and  C_13
REMARK    2  A    between atoms: N_8  and  C_19
REMARK    3  A    between atoms: N_9  and  C_23
REMARK    4  A    between atoms: C_14  and  C_17
REMARK    5  A    between atoms: C_18  and  C_21
REMARK    6  A    between atoms: C_19  and  C_22
REMARK    7  A    between atoms: C_19  and  C_24
REMARK    8  A    between atoms: C_22  and  C_25
REMARK    9  A    between atoms: C_23  and  C_27
REMARK   10  A    between atoms: C_23  and  C_28
REMARK                            x       y       z     vdW  Elec       q    Type
REMARK                         _______ _______ _______ _____ _____    ______ ____
ROOT
ATOM      3  O   UNL     1       0.200   3.682  25.292  0.00  0.00    -0.268 OA
ATOM      6  N   UNL     1      -0.199   1.388  25.369  0.00  0.00    -0.283 N 
ATOM     13  C   UNL     1      -0.318  -0.307  23.716  0.00  0.00    +0.105 C 
ATOM     14  C   UNL     1      -0.416   1.202  23.938  0.00  0.00    +0.182 C 
ATOM     15  C   UNL     1      -0.751  -0.894  25.061  0.00  0.00    +0.043 C 
ATOM     16  C   UNL     1      -0.231   0.111  26.081  0.00  0.00    +0.111 C 
ATOM     18  C   UNL     1       0.178   2.615  25.901  0.00  0.00    +0.267 C 
ENDROOT
BRANCH  13   7
ATOM      4  O   UNL     1       1.966   1.427  23.388  0.00  0.00    -0.253 OA
ATOM      7  N   UNL     1       1.032  -0.699  23.390  0.00  0.00    -0.294 N 
ATOM      9  N   UNL     1       3.271  -0.438  22.935  0.00  0.00    -0.297 N 
ATOM     20  C   UNL     1       2.079   0.209  23.250  0.00  0.00    +0.300 C 
ATOM     34  H   UNL     1       1.246  -1.690  23.320  0.00  0.00    +0.151 HD
ATOM     36  H   UNL     1       3.280  -1.453  22.917  0.00  0.00    +0.150 HD
BRANCH   9  23
ATOM     23  C   UNL     1       4.515   0.268  22.734  0.00  0.00    +0.068 C 
ATOM     27  C   UNL     1       5.441   0.059  23.926  0.00  0.00    +0.027 C 
ATOM     28  C   UNL     1       4.255   1.750  22.492  0.00  0.00    +0.027 C 
ENDBRANCH   9  23
ENDBRANCH  13   7
BRANCH  18  21
ATOM     10  N   UNL     1       1.915   2.725  27.549  0.00  0.00    -0.247 NA
ATOM     12  N   UNL     1       0.037   2.584  29.627  0.00  0.00    -0.259 NA
ATOM     21  C   UNL     1       0.592   2.635  27.310  0.00  0.00    +0.144 A 
ATOM     26  C   UNL     1      -0.331   2.566  28.330  0.00  0.00    +0.143 A 
ATOM     30  C   UNL     1       2.283   2.744  28.845  0.00  0.00    +0.131 A 
ATOM     31  C   UNL     1       1.361   2.674  29.867  0.00  0.00    +0.130 A 
ENDBRANCH  18  21
BRANCH  14  17
ATOM      2  O   UNL     1      -2.137   2.056  22.520  0.00  0.00    -0.274 OA
ATOM      8  N   UNL     1      -2.582   1.775  24.787  0.00  0.00    -0.302 N 
ATOM     17  C   UNL     1      -1.796   1.717  23.650  0.00  0.00    +0.236 C 
ATOM     35  H   UNL     1      -2.164   1.543  25.684  0.00  0.00    +0.150 HD
BRANCH   8  19
ATOM     19  C   UNL     1      -3.944   2.256  24.783  0.00  0.00    +0.163 C 
BRANCH  19  24
ATOM      5  O   UNL     1      -3.002   4.022  26.162  0.00  0.00    -0.274 OA
ATOM     11  N   UNL     1      -5.287   3.862  25.992  0.00  0.00    -0.328 N 
ATOM     24  C   UNL     1      -3.998   3.452  25.723  0.00  0.00    +0.231 C 
ATOM     37  H   UNL     1      -5.464   4.659  26.593  0.00  0.00    +0.145 HD
ATOM     38  H   UNL     1      -6.101   3.384  25.620  0.00  0.00    +0.145 HD
ENDBRANCH  19  24
BRANCH  19  22
ATOM     22  C   UNL     1      -4.942   1.180  25.228  0.00  0.00    +0.074 C 
BRANCH  22  25
ATOM      1  S   UNL     1      -3.734  -1.143  26.177  0.00  0.00    -0.102 S 
ATOM     25  C   UNL     1      -4.452  -0.217  24.929  0.00  0.00    -0.008 A 
ATOM     29  C   UNL     1      -4.496  -0.903  23.735  0.00  0.00    +0.011 A 
ATOM     32  C   UNL     1      -3.931  -2.206  23.847  0.00  0.00    +0.008 A 
ATOM     33  C   UNL     1      -3.478  -2.467  25.122  0.00  0.00    +0.045 A 
ENDBRANCH  22  25
ENDBRANCH  19  22
ENDBRANCH   8  19
ENDBRANCH  14  17
TORSDOF 8
ENDMDL
MODEL 2
REMARK VINA RESULT:      -0.2      1.604      4.687
REMARK  Name = 11882057
REMARK  10 active torsions:
REMARK  status: ('A' for Active; 'I' for Inactive)
REMARK    1  A    between atoms: N_7  and  C_13
REMARK    2  A    between atoms: N_8  and  C_19
REMARK    3  A    between atoms: N_9  and  C_23
REMARK    4  A    between atoms: C_14  and  C_17
REMARK    5  A    between atoms: C_18  and  C_21
REMARK    6  A    between atoms: C_19  and  C_22
REMARK    7  A    between atoms: C_19  and  C_24
REMARK    8  A    between atoms: C_22  and  C_25
REMARK    9  A    between atoms: C_23  and  C_27
REMARK   10  A    between atoms: C_23  and  C_28
REMARK                            x       y       z     vdW  Elec       q    Type
REMARK                         _______ _______ _______ _____ _____    ______ ____
ROOT
ATOM      3  O   UNL     1      -0.283  -0.504  24.189  0.00  0.00    -0.268 OA
ATOM      6  N   UNL     1      -0.203   1.821  24.082  0.00  0.00    -0.283 N 
ATOM     13  C   UNL     1      -1.095   3.552  25.435  0.00  0.00    +0.105 C 
ATOM     14  C   UNL     1      -1.248   2.076  25.067  0.00  0.00    +0.182 C 
ATOM     15  C   UNL     1      -0.485   4.170  24.175  0.00  0.00    +0.043 C 
ATOM     16  C   UNL     1       0.410   3.068  23.624  0.00  0.00    +0.111 C 
ATOM     18  C   UNL     1       0.242   0.536  23.799  0.00  0.00    +0.267 C 
ENDROOT
BRANCH  13   7
ATOM      4  O   UNL     1       0.035   1.468  27.081  0.00  0.00    -0.253 OA
ATOM      7  N   UNL     1      -0.218   3.719  26.569  0.00  0.00    -0.294 N 
ATOM      9  N   UNL     1       1.100   3.095  28.347  0.00  0.00    -0.297 N 
ATOM     20  C   UNL     1       0.282   2.651  27.311  0.00  0.00    +0.300 C 
ATOM     34  H   UNL     1       0.100   4.655  26.803  0.00  0.00    +0.151 HD
ATOM     36  H   UNL     1       1.304   4.088  28.410  0.00  0.00    +0.150 HD
BRANCH   9  23
ATOM     23  C   UNL     1       1.750   2.195  29.270  0.00  0.00    +0.068 C 
ATOM     27  C   UNL     1       1.126   2.316  30.655  0.00  0.00    +0.027 C 
ATOM     28  C   UNL     1       3.249   2.465  29.315  0.00  0.00    +0.027 C 
ENDBRANCH   9  23
ENDBRANCH  13   7
BRANCH  18  21
ATOM     10  N   UNL     1       2.569   0.984  23.444  0.00  0.00    -0.247 NA
ATOM     12  N   UNL     1       2.521  -0.380  20.994  0.00  0.00    -0.259 NA
ATOM     21  C   UNL     1       1.446   0.411  22.969  0.00  0.00    +0.144 A 
ATOM     26  C   UNL     1       1.423  -0.259  21.765  0.00  0.00    +0.143 A 
ATOM     30  C   UNL     1       3.668   0.862  22.674  0.00  0.00    +0.131 A 
ATOM     31  C   UNL     1       3.645   0.193  21.470  0.00  0.00    +0.130 A 
ENDBRANCH  18  21
BRANCH  14  17
ATOM      2  O   UNL     1      -2.619   1.620  23.167  0.00  0.00    -0.274 OA
ATOM      8  N   UNL     1      -3.624   1.829  25.256  0.00  0.00    -0.302 N 
ATOM     17  C   UNL     1      -2.554   1.809  24.378  0.00  0.00    +0.236 C 
ATOM     35  H   UNL     1      -3.456   2.077  26.228  0.00  0.00    +0.150 HD
BRANCH   8  19
ATOM     19  C   UNL     1      -4.992   1.622  24.840  0.00  0.00    +0.163 C 
BRANCH  19  24
ATOM      5  O   UNL     1      -5.831   3.859  25.290  0.00  0.00    -0.274 OA
ATOM     11  N   UNL     1      -6.658   2.107  26.524  0.00  0.00    -0.328 N 
ATOM     24  C   UNL     1      -5.839   2.661  25.562  0.00  0.00    +0.231 C 
ATOM     37  H   UNL     1      -7.286   2.687  27.069  0.00  0.00    +0.145 HD
ATOM     38  H   UNL     1      -6.657   1.114  26.736  0.00  0.00    +0.145 HD
ENDBRANCH  19  24
BRANCH  19  22
ATOM     22  C   UNL     1      -5.490   0.209  25.161  0.00  0.00    +0.074 C 
BRANCH  22  25
ATOM      1  S   UNL     1      -3.334  -1.265  26.130  0.00  0.00    -0.102 S 
ATOM     25  C   UNL     1      -4.441  -0.845  24.894  0.00  0.00    -0.008 A 
ATOM     29  C   UNL     1      -4.224  -1.564  23.738  0.00  0.00    +0.011 A 
ATOM     32  C   UNL     1      -3.133  -2.471  23.871  0.00  0.00    +0.008 A 
ATOM     33  C   UNL     1      -2.559  -2.411  25.121  0.00  0.00    +0.045 A 
ENDBRANCH  22  25
ENDBRANCH  19  22
ENDBRANCH   8  19
ENDBRANCH  14  17
TORSDOF 8
ENDMDL
MODEL 3
REMARK VINA RESULT:       0.7      2.510      4.609
REMARK  Name = 11882057
REMARK  10 active torsions:
REMARK  status: ('A' for Active; 'I' for Inactive)
REMARK    1  A    between atoms: N_7  and  C_13
REMARK    2  A    between atoms: N_8  and  C_19
REMARK    3  A    between atoms: N_9  and  C_23
REMARK    4  A    between atoms: C_14  and  C_17
REMARK    5  A    between atoms: C_18  and  C_21
REMARK    6  A    between atoms: C_19  and  C_22
REMARK    7  A    between atoms: C_19  and  C_24
REMARK    8  A    between atoms: C_22  and  C_25
REMARK    9  A    between atoms: C_23  and  C_27
REMARK   10  A    between atoms: C_23  and  C_28
REMARK                            x       y       z     vdW  Elec       q    Type
REMARK                         _______ _______ _______ _____ _____    ______ ____
ROOT
ATOM      3  O   UNL     1      -2.000  -0.411  26.619  0.00  0.00    -0.268 OA
ATOM      6  N   UNL     1      -1.212   0.252  24.530  0.00  0.00    -0.283 N 
ATOM     13  C   UNL     1       0.746   1.373  23.802  0.00  0.00    +0.105 C 
ATOM     14  C   UNL     1      -0.150   1.127  25.015  0.00  0.00    +0.182 C 
ATOM     15  C   UNL     1      -0.210   1.224  22.616  0.00  0.00    +0.043 C 
ATOM     16  C   UNL     1      -1.188   0.148  23.071  0.00  0.00    +0.111 C 
ATOM     18  C   UNL     1      -1.989  -0.508  25.394  0.00  0.00    +0.267 C 
ENDROOT
BRANCH  13   7
ATOM      4  O   UNL     1       3.503   1.856  23.095  0.00  0.00    -0.253 OA
ATOM      7  N   UNL     1       1.810   0.400  23.733  0.00  0.00    -0.294 N 
ATOM      9  N   UNL     1       3.938  -0.403  23.394  0.00  0.00    -0.297 N 
ATOM     20  C   UNL     1       3.119   0.723  23.381  0.00  0.00    +0.300 C 
ATOM     34  H   UNL     1       1.613  -0.556  24.015  0.00  0.00    +0.151 HD
ATOM     36  H   UNL     1       3.546  -1.283  23.717  0.00  0.00    +0.150 HD
BRANCH   9  23
ATOM     23  C   UNL     1       5.344  -0.351  23.068  0.00  0.00    +0.068 C 
ATOM     27  C   UNL     1       5.989  -1.714  23.286  0.00  0.00    +0.027 C 
ATOM     28  C   UNL     1       6.043   0.727  23.887  0.00  0.00    +0.027 C 
ENDBRANCH   9  23
ENDBRANCH  13   7
BRANCH  18  21
ATOM     10  N   UNL     1      -2.379  -2.774  24.718  0.00  0.00    -0.247 NA
ATOM     12  N   UNL     1      -4.937  -2.117  23.773  0.00  0.00    -0.259 NA
ATOM     21  C   UNL     1      -2.866  -1.520  24.792  0.00  0.00    +0.144 A 
ATOM     26  C   UNL     1      -4.122  -1.197  24.328  0.00  0.00    +0.143 A 
ATOM     30  C   UNL     1      -3.193  -3.694  24.164  0.00  0.00    +0.131 A 
ATOM     31  C   UNL     1      -4.449  -3.372  23.699  0.00  0.00    +0.130 A 
ENDBRANCH  18  21
BRANCH  14  17
ATOM      2  O   UNL     1      -0.639   2.843  26.602  0.00  0.00    -0.274 OA
ATOM      8  N   UNL     1      -1.645   2.928  24.505  0.00  0.00    -0.302 N 
ATOM     17  C   UNL     1      -0.819   2.389  25.475  0.00  0.00    +0.236 C 
ATOM     35  H   UNL     1      -1.777   2.418  23.635  0.00  0.00    +0.150 HD
BRANCH   8  19
ATOM     19  C   UNL     1      -2.421   4.130  24.705  0.00  0.00    +0.163 C 
BRANCH  19  24
ATOM      5  O   UNL     1      -1.714   6.354  25.385  0.00  0.00    -0.274 OA
ATOM     11  N   UNL     1      -0.172   4.963  24.402  0.00  0.00    -0.328 N 
ATOM     24  C   UNL     1      -1.434   5.278  24.863  0.00  0.00    +0.231 C 
ATOM     37  H   UNL     1       0.586   5.635  24.462  0.00  0.00    +0.145 HD
ATOM     38  H   UNL     1       0.046   4.069  23.976  0.00  0.00    +0.145 HD
ENDBRANCH  19  24
BRANCH  19  22
ATOM     22  C   UNL     1      -3.333   4.036  25.935  0.00  0.00    +0.074 C 
BRANCH  22  25
ATOM      1  S   UNL     1      -4.707   2.359  24.185  0.00  0.00    -0.102 S 
ATOM     25  C   UNL     1      -4.526   3.141  25.698  0.00  0.00    -0.008 A 
ATOM     29  C   UNL     1      -5.554   2.837  26.563  0.00  0.00    +0.011 A 
ATOM     32  C   UNL     1      -6.503   1.951  25.975  0.00  0.00    +0.008 A 
ATOM     33  C   UNL     1      -6.164   1.611  24.684  0.00  0.00    +0.045 A 
ENDBRANCH  22  25
ENDBRANCH  19  22
ENDBRANCH   8  19
ENDBRANCH  14  17
TORSDOF 8
ENDMDL
MODEL 4
REMARK VINA RESULT:       1.1      2.751      4.356
REMARK  Name = 11882057
REMARK  10 active torsions:
REMARK  status: ('A' for Active; 'I' for Inactive)
REMARK    1  A    between atoms: N_7  and  C_13
REMARK    2  A    between atoms: N_8  and  C_19
REMARK    3  A    between atoms: N_9  and  C_23
REMARK    4  A    between atoms: C_14  and  C_17
REMARK    5  A    between atoms: C_18  and  C_21
REMARK    6  A    between atoms: C_19  and  C_22
REMARK    7  A    between atoms: C_19  and  C_24
REMARK    8  A    between atoms: C_22  and  C_25
REMARK    9  A    between atoms: C_23  and  C_27
REMARK   10  A    between atoms: C_23  and  C_28
REMARK                            x       y       z     vdW  Elec       q    Type
REMARK                         _______ _______ _______ _____ _____    ______ ____
ROOT
ATOM      3  O   UNL     1      -1.518   0.348  26.017  0.00  0.00    -0.268 OA
ATOM      6  N   UNL     1      -0.659   0.117  23.864  0.00  0.00    -0.283 N 
ATOM     13  C   UNL     1       1.395   0.728  22.849  0.00  0.00    +0.105 C 
ATOM     14  C   UNL     1       0.471   1.025  24.030  0.00  0.00    +0.182 C 
ATOM     15  C   UNL     1       0.438   0.219  21.768  0.00  0.00    +0.043 C 
ATOM     16  C   UNL     1      -0.633  -0.528  22.552  0.00  0.00    +0.111 C 
ATOM     18  C   UNL     1      -1.506  -0.202  24.918  0.00  0.00    +0.267 C 
ENDROOT
BRANCH  13   7
ATOM      4  O   UNL     1       4.218   1.123  23.299  0.00  0.00    -0.253 OA
ATOM      7  N   UNL     1       2.371  -0.280  23.191  0.00  0.00    -0.294 N 
ATOM      9  N   UNL     1       4.435  -1.150  23.708  0.00  0.00    -0.297 N 
ATOM     20  C   UNL     1       3.720   0.002  23.391  0.00  0.00    +0.300 C 
ATOM     34  H   UNL     1       2.051  -1.230  23.355  0.00  0.00    +0.151 HD
ATOM     36  H   UNL     1       3.922  -2.018  23.834  0.00  0.00    +0.150 HD
BRANCH   9  23
ATOM     23  C   UNL     1       5.856  -1.143  23.966  0.00  0.00    +0.068 C 
ATOM     27  C   UNL     1       6.174  -0.242  25.152  0.00  0.00    +0.027 C 
ATOM     28  C   UNL     1       6.622  -0.709  22.722  0.00  0.00    +0.027 C 
ENDBRANCH   9  23
ENDBRANCH  13   7
BRANCH  18  21
ATOM     10  N   UNL     1      -3.530  -1.018  23.927  0.00  0.00    -0.247 NA
ATOM     12  N   UNL     1      -3.144  -3.549  25.074  0.00  0.00    -0.259 NA
ATOM     21  C   UNL     1      -2.463  -1.295  24.702  0.00  0.00    +0.144 A 
ATOM     26  C   UNL     1      -2.273  -2.538  25.265  0.00  0.00    +0.143 A 
ATOM     30  C   UNL     1      -4.401  -2.029  23.735  0.00  0.00    +0.131 A 
ATOM     31  C   UNL     1      -4.212  -3.271  24.299  0.00  0.00    +0.130 A 
ENDBRANCH  18  21
BRANCH  14  17
ATOM      2  O   UNL     1       0.636   3.404  23.929  0.00  0.00    -0.274 OA
ATOM      8  N   UNL     1      -1.474   2.422  23.958  0.00  0.00    -0.302 N 
ATOM     17  C   UNL     1      -0.090   2.414  23.960  0.00  0.00    +0.236 C 
ATOM     35  H   UNL     1      -1.969   1.541  24.068  0.00  0.00    +0.150 HD
BRANCH   8  19
ATOM     19  C   UNL     1      -2.258   3.635  23.918  0.00  0.00    +0.163 C 
BRANCH  19  24
ATOM      5  O   UNL     1      -2.358   3.505  26.344  0.00  0.00    -0.274 OA
ATOM     11  N   UNL     1      -2.151   5.572  25.361  0.00  0.00    -0.328 N 
ATOM     24  C   UNL     1      -2.280   4.198  25.332  0.00  0.00    +0.231 C 
ATOM     37  H   UNL     1      -2.136   6.073  26.243  0.00  0.00    +0.145 HD
ATOM     38  H   UNL     1      -2.084   6.132  24.518  0.00  0.00    +0.145 HD
ENDBRANCH  19  24
BRANCH  19  22
ATOM     22  C   UNL     1      -3.687   3.388  23.419  0.00  0.00    +0.074 C 
BRANCH  22  25
ATOM      1  S   UNL     1      -5.475   3.788  25.517  0.00  0.00    -0.102 S 
ATOM     25  C   UNL     1      -4.567   2.772  24.480  0.00  0.00    -0.008 A 
ATOM     29  C   UNL     1      -4.765   1.438  24.761  0.00  0.00    +0.011 A 
ATOM     32  C   UNL     1      -5.674   1.248  25.842  0.00  0.00    +0.008 A 
ATOM     33  C   UNL     1      -6.137   2.444  26.346  0.00  0.00    +0.045 A 
ENDBRANCH  22  25
ENDBRANCH  19  22
ENDBRANCH   8  19
ENDBRANCH  14  17
TORSDOF 8
ENDMDL
