MODEL 1
REMARK VINA RESULT:       7.9      0.000      0.000
REMARK  Name = 11884070
REMARK  9 active torsions:
REMARK  status: ('A' for Active; 'I' for Inactive)
REMARK    1  A    between atoms: O_3  and  C_14
REMARK    2  A    between atoms: O_3  and  C_18
REMARK    3  A    between atoms: O_6  and  C_30
REMARK    4  A    between atoms: O_6  and  C_33
REMARK    5  A    between atoms: N_8  and  C_13
REMARK    6  A    between atoms: N_9  and  C_19
REMARK    7  A    between atoms: N_10  and  C_20
REMARK    8  A    between atoms: C_27  and  C_31
REMARK    9  A    between atoms: C_31  and  C_32
REMARK                            x       y       z     vdW  Elec       q    Type
REMARK                         _______ _______ _______ _____ _____    ______ ____
ROOT
ATOM      1  O   UNL     1      -3.947   3.136  24.107  0.00  0.00    -0.368 OA
ATOM      2  O   UNL     1      -2.404   5.123  25.860  0.00  0.00    -0.368 OA
ATOM     11  C   UNL     1      -1.980   3.931  25.166  0.00  0.00    +0.173 C 
ATOM     12  C   UNL     1      -3.119   2.937  25.264  0.00  0.00    +0.192 C 
ATOM     13  C   UNL     1      -1.866   4.206  23.684  0.00  0.00    +0.131 C 
ATOM     14  C   UNL     1      -3.817   3.365  26.533  0.00  0.00    +0.235 C 
ATOM     15  C   UNL     1      -3.306   4.066  23.220  0.00  0.00    +0.185 C 
ATOM     16  C   UNL     1      -3.671   4.870  26.484  0.00  0.00    +0.207 C 
ENDROOT
BRANCH  13   8
ATOM      4  O   UNL     1       0.510   3.026  24.766  0.00  0.00    -0.252 OA
ATOM      8  N   UNL     1      -1.010   3.242  23.037  0.00  0.00    -0.292 N 
ATOM      9  N   UNL     1       0.764   1.806  22.777  0.00  0.00    -0.269 N 
ATOM     17  C   UNL     1       0.138   2.712  23.638  0.00  0.00    +0.304 C 
ATOM     34  H   UNL     1      -1.288   2.883  22.129  0.00  0.00    +0.151 HD
ATOM     35  H   UNL     1       0.326   1.659  21.871  0.00  0.00    +0.156 HD
BRANCH   9  19
ATOM     19  C   UNL     1       1.944   1.061  23.009  0.00  0.00    +0.035 A 
ATOM     21  C   UNL     1       1.861  -0.290  23.346  0.00  0.00    +0.024 A 
ATOM     22  C   UNL     1       3.190   1.678  22.903  0.00  0.00    +0.024 A 
ATOM     25  C   UNL     1       3.024  -1.024  23.577  0.00  0.00    +0.013 A 
ATOM     26  C   UNL     1       4.354   0.944  23.133  0.00  0.00    +0.013 A 
ATOM     27  C   UNL     1       4.270  -0.407  23.470  0.00  0.00    +0.017 A 
BRANCH  27  31
ATOM      7  O   UNL     1       5.441  -2.352  24.113  0.00  0.00    -0.292 OA
ATOM     31  C   UNL     1       5.483  -1.173  23.709  0.00  0.00    +0.160 C 
ATOM     32  C   UNL     1       6.851  -0.542  23.470  0.00  0.00    +0.091 C 
ENDBRANCH  27  31
ENDBRANCH   9  19
ENDBRANCH  13   8
BRANCH  14   3
ATOM      3  O   UNL     1      -5.168   2.966  26.594  0.00  0.00    -0.442 OA
BRANCH   3  18
ATOM      5  O   UNL     1      -6.610   1.267  26.078  0.00  0.00    -0.226 OA
ATOM     10  N   UNL     1      -4.296   1.044  25.799  0.00  0.00    -0.251 N 
ATOM     18  C   UNL     1      -5.464   1.697  26.143  0.00  0.00    +0.405 C 
ATOM     36  H   UNL     1      -3.434   1.570  25.923  0.00  0.00    +0.158 HD
BRANCH  10  20
ATOM     20  C   UNL     1      -4.149  -0.268  25.294  0.00  0.00    +0.037 A 
ATOM     23  C   UNL     1      -4.663  -0.593  24.038  0.00  0.00    +0.027 A 
ATOM     24  C   UNL     1      -3.488  -1.236  26.050  0.00  0.00    +0.027 A 
ATOM     28  C   UNL     1      -4.516  -1.887  23.539  0.00  0.00    +0.047 A 
ATOM     29  C   UNL     1      -3.341  -2.530  25.549  0.00  0.00    +0.047 A 
ATOM     30  C   UNL     1      -3.856  -2.856  24.295  0.00  0.00    +0.120 A 
BRANCH  30   6
ATOM      6  O   UNL     1      -3.711  -4.117  23.805  0.00  0.00    -0.495 OA
ATOM     33  C   UNL     1      -2.506  -4.403  23.096  0.00  0.00    +0.277 C 
ENDBRANCH  30   6
ENDBRANCH  10  20
ENDBRANCH   3  18
ENDBRANCH  14   3
TORSDOF 7
ENDMDL
MODEL 2
REMARK VINA RESULT:       9.3      1.686      2.328
REMARK  Name = 11884070
REMARK  9 active torsions:
REMARK  status: ('A' for Active; 'I' for Inactive)
REMARK    1  A    between atoms: O_3  and  C_14
REMARK    2  A    between atoms: O_3  and  C_18
REMARK    3  A    between atoms: O_6  and  C_30
REMARK    4  A    between atoms: O_6  and  C_33
REMARK    5  A    between atoms: N_8  and  C_13
REMARK    6  A    between atoms: N_9  and  C_19
REMARK    7  A    between atoms: N_10  and  C_20
REMARK    8  A    between atoms: C_27  and  C_31
REMARK    9  A    between atoms: C_31  and  C_32
REMARK                            x       y       z     vdW  Elec       q    Type
REMARK                         _______ _______ _______ _____ _____    ______ ____
ROOT
ATOM      1  O   UNL     1      -4.495   2.465  24.019  0.00  0.00    -0.368 OA
ATOM      2  O   UNL     1      -5.420   5.023  25.435  0.00  0.00    -0.368 OA
ATOM     11  C   UNL     1      -4.151   4.335  25.437  0.00  0.00    +0.173 C 
ATOM     12  C   UNL     1      -4.457   2.851  25.402  0.00  0.00    +0.192 C 
ATOM     13  C   UNL     1      -3.424   4.584  24.136  0.00  0.00    +0.131 C 
ATOM     14  C   UNL     1      -5.824   2.785  26.040  0.00  0.00    +0.235 C 
ATOM     15  C   UNL     1      -4.068   3.570  23.207  0.00  0.00    +0.185 C 
ATOM     16  C   UNL     1      -6.473   4.054  25.534  0.00  0.00    +0.207 C 
ENDROOT
BRANCH  13   8
ATOM      4  O   UNL     1      -2.003   2.221  23.359  0.00  0.00    -0.252 OA
ATOM      8  N   UNL     1      -2.008   4.345  24.273  0.00  0.00    -0.292 N 
ATOM      9  N   UNL     1      -0.016   3.211  24.121  0.00  0.00    -0.269 N 
ATOM     17  C   UNL     1      -1.389   3.157  23.865  0.00  0.00    +0.304 C 
ATOM     34  H   UNL     1      -1.423   5.098  24.621  0.00  0.00    +0.151 HD
ATOM     35  H   UNL     1       0.336   4.063  24.550  0.00  0.00    +0.156 HD
BRANCH   9  19
ATOM     19  C   UNL     1       0.956   2.217  23.858  0.00  0.00    +0.035 A 
ATOM     21  C   UNL     1       2.220   2.584  23.396  0.00  0.00    +0.024 A 
ATOM     22  C   UNL     1       0.650   0.872  24.059  0.00  0.00    +0.024 A 
ATOM     25  C   UNL     1       3.178   1.604  23.134  0.00  0.00    +0.013 A 
ATOM     26  C   UNL     1       1.608  -0.108  23.798  0.00  0.00    +0.013 A 
ATOM     27  C   UNL     1       2.872   0.258  23.336  0.00  0.00    +0.017 A 
BRANCH  27  31
ATOM      7  O   UNL     1       3.571  -1.972  23.019  0.00  0.00    -0.292 OA
ATOM     31  C   UNL     1       3.871  -0.763  23.064  0.00  0.00    +0.160 C 
ATOM     32  C   UNL     1       5.326  -0.370  22.828  0.00  0.00    +0.091 C 
ENDBRANCH  27  31
ENDBRANCH   9  19
ENDBRANCH  13   8
BRANCH  14   3
ATOM      3  O   UNL     1      -6.558   1.635  25.681  0.00  0.00    -0.442 OA
BRANCH   3  18
ATOM      5  O   UNL     1      -6.284  -0.069  24.180  0.00  0.00    -0.226 OA
ATOM     10  N   UNL     1      -4.635   0.458  25.757  0.00  0.00    -0.251 N 
ATOM     18  C   UNL     1      -5.850   0.596  25.113  0.00  0.00    +0.405 C 
ATOM     36  H   UNL     1      -4.452   1.111  26.515  0.00  0.00    +0.158 HD
BRANCH  10  20
ATOM     20  C   UNL     1      -3.611  -0.479  25.490  0.00  0.00    +0.037 A 
ATOM     23  C   UNL     1      -2.316  -0.246  25.953  0.00  0.00    +0.027 A 
ATOM     24  C   UNL     1      -3.897  -1.637  24.767  0.00  0.00    +0.027 A 
ATOM     28  C   UNL     1      -1.306  -1.172  25.692  0.00  0.00    +0.047 A 
ATOM     29  C   UNL     1      -2.886  -2.563  24.506  0.00  0.00    +0.047 A 
ATOM     30  C   UNL     1      -1.590  -2.330  24.968  0.00  0.00    +0.120 A 
BRANCH  30   6
ATOM      6  O   UNL     1      -0.605  -3.234  24.716  0.00  0.00    -0.495 OA
ATOM     33  C   UNL     1       0.626  -3.064  25.417  0.00  0.00    +0.277 C 
ENDBRANCH  30   6
ENDBRANCH  10  20
ENDBRANCH   3  18
ENDBRANCH  14   3
TORSDOF 7
ENDMDL
MODEL 3
REMARK VINA RESULT:       9.9      1.900      5.106
REMARK  Name = 11884070
REMARK  9 active torsions:
REMARK  status: ('A' for Active; 'I' for Inactive)
REMARK    1  A    between atoms: O_3  and  C_14
REMARK    2  A    between atoms: O_3  and  C_18
REMARK    3  A    between atoms: O_6  and  C_30
REMARK    4  A    between atoms: O_6  and  C_33
REMARK    5  A    between atoms: N_8  and  C_13
REMARK    6  A    between atoms: N_9  and  C_19
REMARK    7  A    between atoms: N_10  and  C_20
REMARK    8  A    between atoms: C_27  and  C_31
REMARK    9  A    between atoms: C_31  and  C_32
REMARK                            x       y       z     vdW  Elec       q    Type
REMARK                         _______ _______ _______ _____ _____    ______ ____
ROOT
ATOM      1  O   UNL     1      -3.255  -0.054  25.488  0.00  0.00    -0.368 OA
ATOM      2  O   UNL     1      -4.593  -2.223  23.782  0.00  0.00    -0.368 OA
ATOM     11  C   UNL     1      -3.564  -1.260  23.470  0.00  0.00    +0.173 C 
ATOM     12  C   UNL     1      -3.914   0.013  24.213  0.00  0.00    +0.192 C 
ATOM     13  C   UNL     1      -2.251  -1.688  24.082  0.00  0.00    +0.131 C 
ATOM     14  C   UNL     1      -5.414  -0.092  24.352  0.00  0.00    +0.235 C 
ATOM     15  C   UNL     1      -2.390  -1.200  25.514  0.00  0.00    +0.185 C 
ATOM     16  C   UNL     1      -5.612  -1.577  24.559  0.00  0.00    +0.207 C 
ENDROOT
BRANCH  13   8
ATOM      4  O   UNL     1       0.499  -1.799  24.880  0.00  0.00    -0.252 OA
ATOM      8  N   UNL     1      -1.134  -1.058  23.420  0.00  0.00    -0.292 N 
ATOM      9  N   UNL     1       1.049  -0.454  23.036  0.00  0.00    -0.269 N 
ATOM     17  C   UNL     1       0.185  -1.164  23.876  0.00  0.00    +0.304 C 
ATOM     34  H   UNL     1      -1.304  -0.572  22.545  0.00  0.00    +0.151 HD
ATOM     35  H   UNL     1       0.625   0.023  22.244  0.00  0.00    +0.156 HD
BRANCH   9  19
ATOM     19  C   UNL     1       2.451  -0.313  23.153  0.00  0.00    +0.035 A 
ATOM     21  C   UNL     1       3.070   0.864  22.732  0.00  0.00    +0.024 A 
ATOM     22  C   UNL     1       3.214  -1.350  23.687  0.00  0.00    +0.024 A 
ATOM     25  C   UNL     1       4.454   1.004  22.846  0.00  0.00    +0.013 A 
ATOM     26  C   UNL     1       4.598  -1.211  23.801  0.00  0.00    +0.013 A 
ATOM     27  C   UNL     1       5.217  -0.034  23.380  0.00  0.00    +0.017 A 
BRANCH  27  31
ATOM      7  O   UNL     1       7.168   0.986  24.228  0.00  0.00    -0.292 OA
ATOM     31  C   UNL     1       6.659   0.111  23.499  0.00  0.00    +0.160 C 
ATOM     32  C   UNL     1       7.592  -0.814  22.725  0.00  0.00    +0.091 C 
ENDBRANCH  27  31
ENDBRANCH   9  19
ENDBRANCH  13   8
BRANCH  14   3
ATOM      3  O   UNL     1      -5.935   0.666  25.420  0.00  0.00    -0.442 OA
BRANCH   3  18
ATOM      5  O   UNL     1      -5.829   2.726  26.408  0.00  0.00    -0.226 OA
ATOM     10  N   UNL     1      -4.131   1.951  24.995  0.00  0.00    -0.251 N 
ATOM     18  C   UNL     1      -5.330   1.879  25.677  0.00  0.00    +0.405 C 
ATOM     36  H   UNL     1      -3.884   1.139  24.434  0.00  0.00    +0.158 HD
BRANCH  10  20
ATOM     20  C   UNL     1      -3.200   3.015  24.982  0.00  0.00    +0.037 A 
ATOM     23  C   UNL     1      -1.874   2.785  25.351  0.00  0.00    +0.027 A 
ATOM     24  C   UNL     1      -3.607   4.292  24.599  0.00  0.00    +0.027 A 
ATOM     28  C   UNL     1      -0.956   3.835  25.336  0.00  0.00    +0.047 A 
ATOM     29  C   UNL     1      -2.687   5.342  24.584  0.00  0.00    +0.047 A 
ATOM     30  C   UNL     1      -1.362   5.113  24.953  0.00  0.00    +0.120 A 
BRANCH  30   6
ATOM      6  O   UNL     1      -0.464   6.136  24.936  0.00  0.00    -0.495 OA
ATOM     33  C   UNL     1       0.571   6.074  23.956  0.00  0.00    +0.277 C 
ENDBRANCH  30   6
ENDBRANCH  10  20
ENDBRANCH   3  18
ENDBRANCH  14   3
TORSDOF 7
ENDMDL
MODEL 4
REMARK VINA RESULT:      10.5      2.714      4.915
REMARK  Name = 11884070
REMARK  9 active torsions:
REMARK  status: ('A' for Active; 'I' for Inactive)
REMARK    1  A    between atoms: O_3  and  C_14
REMARK    2  A    between atoms: O_3  and  C_18
REMARK    3  A    between atoms: O_6  and  C_30
REMARK    4  A    between atoms: O_6  and  C_33
REMARK    5  A    between atoms: N_8  and  C_13
REMARK    6  A    between atoms: N_9  and  C_19
REMARK    7  A    between atoms: N_10  and  C_20
REMARK    8  A    between atoms: C_27  and  C_31
REMARK    9  A    between atoms: C_31  and  C_32
REMARK                            x       y       z     vdW  Elec       q    Type
REMARK                         _______ _______ _______ _____ _____    ______ ____
ROOT
ATOM      1  O   UNL     1      -2.591   1.273  25.604  0.00  0.00    -0.368 OA
ATOM      2  O   UNL     1      -5.100   0.435  24.053  0.00  0.00    -0.368 OA
ATOM     11  C   UNL     1      -3.712   0.497  23.663  0.00  0.00    +0.173 C 
ATOM     12  C   UNL     1      -3.119   1.715  24.343  0.00  0.00    +0.192 C 
ATOM     13  C   UNL     1      -2.951  -0.660  24.268  0.00  0.00    +0.131 C 
ATOM     14  C   UNL     1      -4.324   2.607  24.523  0.00  0.00    +0.235 C 
ATOM     15  C   UNL     1      -2.666  -0.160  25.673  0.00  0.00    +0.185 C 
ATOM     16  C   UNL     1      -5.420   1.607  24.816  0.00  0.00    +0.207 C 
ENDROOT
BRANCH  13   8
ATOM      4  O   UNL     1      -0.312   0.167  25.014  0.00  0.00    -0.252 OA
ATOM      8  N   UNL     1      -1.729  -0.919  23.545  0.00  0.00    -0.292 N 
ATOM      9  N   UNL     1       0.521  -0.875  23.083  0.00  0.00    -0.269 N 
ATOM     17  C   UNL     1      -0.474  -0.478  23.982  0.00  0.00    +0.304 C 
ATOM     34  H   UNL     1      -1.773  -1.504  22.717  0.00  0.00    +0.151 HD
ATOM     35  H   UNL     1       0.217  -1.405  22.270  0.00  0.00    +0.156 HD
BRANCH   9  19
ATOM     19  C   UNL     1       1.911  -0.628  23.162  0.00  0.00    +0.035 A 
ATOM     21  C   UNL     1       2.754  -1.570  23.752  0.00  0.00    +0.024 A 
ATOM     22  C   UNL     1       2.439   0.557  22.652  0.00  0.00    +0.024 A 
ATOM     25  C   UNL     1       4.125  -1.327  23.832  0.00  0.00    +0.013 A 
ATOM     26  C   UNL     1       3.810   0.801  22.731  0.00  0.00    +0.013 A 
ATOM     27  C   UNL     1       4.653  -0.141  23.322  0.00  0.00    +0.017 A 
BRANCH  27  31
ATOM      7  O   UNL     1       6.539   1.058  24.077  0.00  0.00    -0.292 OA
ATOM     31  C   UNL     1       6.083   0.113  23.404  0.00  0.00    +0.160 C 
ATOM     32  C   UNL     1       7.066  -0.783  22.658  0.00  0.00    +0.091 C 
ENDBRANCH  27  31
ENDBRANCH   9  19
ENDBRANCH  13   8
BRANCH  14   3
ATOM      3  O   UNL     1      -4.177   3.551  25.559  0.00  0.00    -0.442 OA
BRANCH   3  18
ATOM      5  O   UNL     1      -2.418   5.014  25.550  0.00  0.00    -0.226 OA
ATOM     10  N   UNL     1      -2.273   2.922  26.592  0.00  0.00    -0.251 N 
ATOM     18  C   UNL     1      -2.889   3.931  25.878  0.00  0.00    +0.405 C 
ATOM     36  H   UNL     1      -2.832   2.091  26.769  0.00  0.00    +0.158 HD
BRANCH  10  20
ATOM     20  C   UNL     1      -0.958   2.902  27.111  0.00  0.00    +0.037 A 
ATOM     23  C   UNL     1      -0.753   2.786  28.486  0.00  0.00    +0.027 A 
ATOM     24  C   UNL     1       0.133   2.996  26.248  0.00  0.00    +0.027 A 
ATOM     28  C   UNL     1       0.544   2.764  28.997  0.00  0.00    +0.047 A 
ATOM     29  C   UNL     1       1.431   2.973  26.760  0.00  0.00    +0.047 A 
ATOM     30  C   UNL     1       1.636   2.858  28.135  0.00  0.00    +0.120 A 
BRANCH  30   6
ATOM      6  O   UNL     1       2.902   2.834  28.635  0.00  0.00    -0.495 OA
ATOM     33  C   UNL     1       3.141   1.981  29.753  0.00  0.00    +0.277 C 
ENDBRANCH  30   6
ENDBRANCH  10  20
ENDBRANCH   3  18
ENDBRANCH  14   3
TORSDOF 7
ENDMDL
