MODEL 1
REMARK VINA RESULT:      -2.7      0.000      0.000
REMARK  Name = 38028361
REMARK  11 active torsions:
REMARK  status: ('A' for Active; 'I' for Inactive)
REMARK    1  A    between atoms: N_4  and  C_14
REMARK    2  A    between atoms: N_5  and  C_21
REMARK    3  A    between atoms: C_7  and  C_11
REMARK    4  A    between atoms: C_8  and  C_14
REMARK    5  A    between atoms: C_10  and  C_15
REMARK    6  A    between atoms: C_11  and  C_16
REMARK    7  A    between atoms: C_11  and  C_17
REMARK    8  A    between atoms: C_12  and  C_18
REMARK    9  A    between atoms: C_15  and  C_19
REMARK   10  A    between atoms: C_20  and  C_22
REMARK   11  A    between atoms: C_21  and  C_23
REMARK                            x       y       z     vdW  Elec       q    Type
REMARK                         _______ _______ _______ _____ _____    ______ ____
ROOT
ATOM      7  C   UNL     1      -1.915   0.550  24.888  0.00  0.00    +0.000 C 
ATOM      8  C   UNL     1      -1.019  -0.670  24.562  0.00  0.00    +0.032 C 
ATOM      9  C   UNL     1      -2.994   0.164  25.913  0.00  0.00    +0.012 C 
ATOM     10  C   UNL     1      -3.892  -0.981  25.409  0.00  0.00    +0.023 C 
ATOM     12  C   UNL     1      -3.079  -2.118  24.822  0.00  0.00    -0.073 C 
ATOM     13  C   UNL     1      -1.793  -1.963  24.461  0.00  0.00    -0.022 C 
ATOM     18  C   UNL     1      -3.767  -3.449  24.699  0.00  0.00    +0.039 C 
ENDROOT
BRANCH   7  11
ATOM     11  C   UNL     1      -1.099   1.733  25.417  0.00  0.00    -0.013 C 
ATOM     16  C   UNL     1      -0.197   1.288  26.565  0.00  0.00    +0.007 C 
ATOM     17  C   UNL     1      -0.278   2.357  24.293  0.00  0.00    +0.007 C 
ENDBRANCH   7  11
BRANCH   8  14
ATOM     14  C   UNL     1      -0.229  -0.445  23.268  0.00  0.00    +0.112 C 
BRANCH  14   4
ATOM      3  O   UNL     1       1.879  -0.256  21.328  0.00  0.00    -0.270 OA
ATOM      4  N   UNL     1       1.173  -0.370  23.536  0.00  0.00    -0.311 N 
ATOM     20  C   UNL     1       2.134  -0.281  22.529  0.00  0.00    +0.244 C 
ATOM     33  H   UNL     1       1.458  -0.393  24.508  0.00  0.00    +0.149 HD
BRANCH  20  22
ATOM      1  F   UNL     1       7.491  -0.120  24.204  0.00  0.00    -0.205 F 
ATOM     22  C   UNL     1       3.552  -0.239  22.971  0.00  0.00    +0.037 A 
ATOM     24  C   UNL     1       4.301   0.926  22.802  0.00  0.00    +0.016 A 
ATOM     25  C   UNL     1       4.134  -1.362  23.558  0.00  0.00    +0.016 A 
ATOM     26  C   UNL     1       5.631   0.967  23.217  0.00  0.00    +0.039 A 
ATOM     27  C   UNL     1       5.464  -1.322  23.975  0.00  0.00    +0.039 A 
ATOM     29  C   UNL     1       6.213  -0.158  23.804  0.00  0.00    +0.123 A 
ENDBRANCH  20  22
ENDBRANCH  14   4
ENDBRANCH   8  14
BRANCH  10  15
ATOM     15  C   UNL     1      -4.928  -0.470  24.402  0.00  0.00    +0.103 C 
BRANCH  15  19
ATOM      2  O   UNL     1      -4.291   1.620  23.364  0.00  0.00    -0.276 OA
ATOM      5  N   UNL     1      -5.616   1.648  25.274  0.00  0.00    -0.310 N 
ATOM     19  C   UNL     1      -4.891   1.035  24.262  0.00  0.00    +0.214 C 
ATOM     34  H   UNL     1      -6.081   1.076  25.973  0.00  0.00    +0.149 HD
BRANCH   5  21
ATOM     21  C   UNL     1      -5.752   3.081  25.391  0.00  0.00    +0.159 C 
BRANCH  21  23
ATOM      6  N   UNL     1      -4.020   4.308  24.210  0.00  0.00    -0.258 NA
ATOM     23  C   UNL     1      -4.420   3.774  25.385  0.00  0.00    +0.058 A 
ATOM     28  C   UNL     1      -3.680   3.833  26.555  0.00  0.00    +0.025 A 
ATOM     30  C   UNL     1      -2.452   4.483  26.516  0.00  0.00    +0.003 A 
ATOM     31  C   UNL     1      -2.821   4.932  24.210  0.00  0.00    +0.111 A 
ATOM     32  C   UNL     1      -2.006   5.045  25.325  0.00  0.00    +0.020 A 
ENDBRANCH  21  23
ENDBRANCH   5  21
ENDBRANCH  15  19
ENDBRANCH  10  15
TORSDOF 8
ENDMDL
MODEL 2
REMARK VINA RESULT:      -2.4      1.641      3.227
REMARK  Name = 38028361
REMARK  11 active torsions:
REMARK  status: ('A' for Active; 'I' for Inactive)
REMARK    1  A    between atoms: N_4  and  C_14
REMARK    2  A    between atoms: N_5  and  C_21
REMARK    3  A    between atoms: C_7  and  C_11
REMARK    4  A    between atoms: C_8  and  C_14
REMARK    5  A    between atoms: C_10  and  C_15
REMARK    6  A    between atoms: C_11  and  C_16
REMARK    7  A    between atoms: C_11  and  C_17
REMARK    8  A    between atoms: C_12  and  C_18
REMARK    9  A    between atoms: C_15  and  C_19
REMARK   10  A    between atoms: C_20  and  C_22
REMARK   11  A    between atoms: C_21  and  C_23
REMARK                            x       y       z     vdW  Elec       q    Type
REMARK                         _______ _______ _______ _____ _____    ______ ____
ROOT
ATOM      7  C   UNL     1      -3.749  -0.662  25.063  0.00  0.00    +0.000 C 
ATOM      8  C   UNL     1      -2.430  -0.018  24.570  0.00  0.00    +0.032 C 
ATOM      9  C   UNL     1      -4.894  -0.358  24.084  0.00  0.00    +0.012 C 
ATOM     10  C   UNL     1      -5.124   1.156  23.909  0.00  0.00    +0.023 C 
ATOM     12  C   UNL     1      -3.823   1.900  23.683  0.00  0.00    -0.073 C 
ATOM     13  C   UNL     1      -2.629   1.354  23.972  0.00  0.00    -0.022 C 
ATOM     18  C   UNL     1      -3.925   3.271  23.074  0.00  0.00    +0.039 C 
ENDROOT
BRANCH   7  11
ATOM     11  C   UNL     1      -3.612  -2.176  25.245  0.00  0.00    -0.013 C 
ATOM     16  C   UNL     1      -4.025  -2.906  23.971  0.00  0.00    +0.007 C 
ATOM     17  C   UNL     1      -2.183  -2.538  25.638  0.00  0.00    +0.007 C 
ENDBRANCH   7  11
BRANCH   8  14
ATOM     14  C   UNL     1      -1.397   0.061  25.700  0.00  0.00    +0.112 C 
BRANCH  14   4
ATOM      3  O   UNL     1      -0.364  -1.225  23.350  0.00  0.00    -0.270 OA
ATOM      4  N   UNL     1      -0.075   0.184  25.171  0.00  0.00    -0.311 N 
ATOM     20  C   UNL     1       0.346  -0.479  24.019  0.00  0.00    +0.244 C 
ATOM     33  H   UNL     1       0.570   0.779  25.678  0.00  0.00    +0.149 HD
BRANCH  20  22
ATOM      1  F   UNL     1       5.691   0.323  22.496  0.00  0.00    -0.205 F 
ATOM     22  C   UNL     1       1.760  -0.268  23.615  0.00  0.00    +0.037 A 
ATOM     24  C   UNL     1       2.155   0.956  23.073  0.00  0.00    +0.016 A 
ATOM     25  C   UNL     1       2.694  -1.291  23.779  0.00  0.00    +0.016 A 
ATOM     26  C   UNL     1       3.482   1.156  22.695  0.00  0.00    +0.039 A 
ATOM     27  C   UNL     1       4.021  -1.091  23.401  0.00  0.00    +0.039 A 
ATOM     29  C   UNL     1       4.415   0.132  22.859  0.00  0.00    +0.123 A 
ENDBRANCH  20  22
ENDBRANCH  14   4
ENDBRANCH   8  14
BRANCH  10  15
ATOM     15  C   UNL     1      -5.891   1.740  25.100  0.00  0.00    +0.103 C 
BRANCH  15  19
ATOM      2  O   UNL     1      -5.796   4.142  25.374  0.00  0.00    -0.276 OA
ATOM      5  N   UNL     1      -4.108   2.820  26.273  0.00  0.00    -0.310 N 
ATOM     19  C   UNL     1      -5.290   3.041  25.580  0.00  0.00    +0.214 C 
ATOM     34  H   UNL     1      -3.770   1.869  26.394  0.00  0.00    +0.149 HD
BRANCH   5  21
ATOM     21  C   UNL     1      -3.317   3.884  26.844  0.00  0.00    +0.159 C 
BRANCH  21  23
ATOM      6  N   UNL     1      -1.124   3.279  25.991  0.00  0.00    -0.258 NA
ATOM     23  C   UNL     1      -2.113   4.201  26.006  0.00  0.00    +0.058 A 
ATOM     28  C   UNL     1      -2.071   5.394  25.302  0.00  0.00    +0.025 A 
ATOM     30  C   UNL     1      -0.942   5.657  24.533  0.00  0.00    +0.003 A 
ATOM     31  C   UNL     1      -0.043   3.569  25.234  0.00  0.00    +0.111 A 
ATOM     32  C   UNL     1       0.096   4.732  24.493  0.00  0.00    +0.020 A 
ENDBRANCH  21  23
ENDBRANCH   5  21
ENDBRANCH  15  19
ENDBRANCH  10  15
TORSDOF 8
ENDMDL
MODEL 3
REMARK VINA RESULT:      -2.4      1.981      4.864
REMARK  Name = 38028361
REMARK  11 active torsions:
REMARK  status: ('A' for Active; 'I' for Inactive)
REMARK    1  A    between atoms: N_4  and  C_14
REMARK    2  A    between atoms: N_5  and  C_21
REMARK    3  A    between atoms: C_7  and  C_11
REMARK    4  A    between atoms: C_8  and  C_14
REMARK    5  A    between atoms: C_10  and  C_15
REMARK    6  A    between atoms: C_11  and  C_16
REMARK    7  A    between atoms: C_11  and  C_17
REMARK    8  A    between atoms: C_12  and  C_18
REMARK    9  A    between atoms: C_15  and  C_19
REMARK   10  A    between atoms: C_20  and  C_22
REMARK   11  A    between atoms: C_21  and  C_23
REMARK                            x       y       z     vdW  Elec       q    Type
REMARK                         _______ _______ _______ _____ _____    ______ ____
ROOT
ATOM      7  C   UNL     1      -2.897   2.010  24.237  0.00  0.00    +0.000 C 
ATOM      8  C   UNL     1      -1.902   2.064  23.051  0.00  0.00    +0.032 C 
ATOM      9  C   UNL     1      -3.159   3.423  24.782  0.00  0.00    +0.012 C 
ATOM     10  C   UNL     1      -1.866   4.111  25.259  0.00  0.00    +0.023 C 
ATOM     12  C   UNL     1      -0.748   3.974  24.246  0.00  0.00    -0.073 C 
ATOM     13  C   UNL     1      -0.788   3.061  23.259  0.00  0.00    -0.022 C 
ATOM     18  C   UNL     1       0.399   4.939  24.368  0.00  0.00    +0.039 C 
ENDROOT
BRANCH   7  11
ATOM     11  C   UNL     1      -4.223   1.354  23.840  0.00  0.00    -0.013 C 
ATOM     16  C   UNL     1      -3.989  -0.076  23.362  0.00  0.00    +0.007 C 
ATOM     17  C   UNL     1      -5.201   1.381  25.010  0.00  0.00    +0.007 C 
ENDBRANCH   7  11
BRANCH   8  14
ATOM     14  C   UNL     1      -1.305   0.681  22.767  0.00  0.00    +0.112 C 
BRANCH  14   4
ATOM      3  O   UNL     1       0.731  -0.746  21.331  0.00  0.00    -0.270 OA
ATOM      4  N   UNL     1       0.094   0.662  23.062  0.00  0.00    -0.311 N 
ATOM     20  C   UNL     1       1.018  -0.062  22.310  0.00  0.00    +0.244 C 
ATOM     33  H   UNL     1       0.402   1.200  23.864  0.00  0.00    +0.149 HD
BRANCH  20  22
ATOM      1  F   UNL     1       6.361   0.172  24.019  0.00  0.00    -0.205 F 
ATOM     22  C   UNL     1       2.431   0.001  22.763  0.00  0.00    +0.037 A 
ATOM     24  C   UNL     1       3.020  -1.111  23.365  0.00  0.00    +0.016 A 
ATOM     25  C   UNL     1       3.170   1.170  22.585  0.00  0.00    +0.016 A 
ATOM     26  C   UNL     1       4.347  -1.054  23.789  0.00  0.00    +0.039 A 
ATOM     27  C   UNL     1       4.497   1.228  23.009  0.00  0.00    +0.039 A 
ATOM     29  C   UNL     1       5.086   0.116  23.612  0.00  0.00    +0.123 A 
ENDBRANCH  20  22
ENDBRANCH  14   4
ENDBRANCH   8  14
BRANCH  10  15
ATOM     15  C   UNL     1      -1.433   3.584  26.631  0.00  0.00    +0.103 C 
BRANCH  15  19
ATOM      2  O   UNL     1       0.735   2.514  26.542  0.00  0.00    -0.276 OA
ATOM      5  N   UNL     1      -1.188   1.219  26.379  0.00  0.00    -0.310 N 
ATOM     19  C   UNL     1      -0.489   2.409  26.517  0.00  0.00    +0.214 C 
ATOM     34  H   UNL     1      -2.204   1.234  26.371  0.00  0.00    +0.149 HD
BRANCH   5  21
ATOM     21  C   UNL     1      -0.542  -0.066  26.247  0.00  0.00    +0.159 C 
BRANCH  21  23
ATOM      6  N   UNL     1      -0.982  -1.920  24.741  0.00  0.00    -0.258 NA
ATOM     23  C   UNL     1      -1.474  -1.110  25.705  0.00  0.00    +0.058 A 
ATOM     28  C   UNL     1      -2.763  -1.195  26.204  0.00  0.00    +0.025 A 
ATOM     30  C   UNL     1      -3.601  -2.175  25.682  0.00  0.00    +0.003 A 
ATOM     31  C   UNL     1      -1.825  -2.860  24.257  0.00  0.00    +0.111 A 
ATOM     32  C   UNL     1      -3.131  -3.026  24.689  0.00  0.00    +0.020 A 
ENDBRANCH  21  23
ENDBRANCH   5  21
ENDBRANCH  15  19
ENDBRANCH  10  15
TORSDOF 8
ENDMDL
MODEL 4
REMARK VINA RESULT:      -1.6      1.688      4.325
REMARK  Name = 38028361
REMARK  11 active torsions:
REMARK  status: ('A' for Active; 'I' for Inactive)
REMARK    1  A    between atoms: N_4  and  C_14
REMARK    2  A    between atoms: N_5  and  C_21
REMARK    3  A    between atoms: C_7  and  C_11
REMARK    4  A    between atoms: C_8  and  C_14
REMARK    5  A    between atoms: C_10  and  C_15
REMARK    6  A    between atoms: C_11  and  C_16
REMARK    7  A    between atoms: C_11  and  C_17
REMARK    8  A    between atoms: C_12  and  C_18
REMARK    9  A    between atoms: C_15  and  C_19
REMARK   10  A    between atoms: C_20  and  C_22
REMARK   11  A    between atoms: C_21  and  C_23
REMARK                            x       y       z     vdW  Elec       q    Type
REMARK                         _______ _______ _______ _____ _____    ______ ____
ROOT
ATOM      7  C   UNL     1      -2.877   2.686  23.520  0.00  0.00    +0.000 C 
ATOM      8  C   UNL     1      -1.511   2.462  24.215  0.00  0.00    +0.032 C 
ATOM      9  C   UNL     1      -3.506   4.008  23.988  0.00  0.00    +0.012 C 
ATOM     10  C   UNL     1      -3.721   4.043  25.513  0.00  0.00    +0.023 C 
ATOM     12  C   UNL     1      -2.492   3.575  26.266  0.00  0.00    -0.073 C 
ATOM     13  C   UNL     1      -1.509   2.880  25.666  0.00  0.00    -0.022 C 
ATOM     18  C   UNL     1      -2.398   3.961  27.716  0.00  0.00    +0.039 C 
ENDROOT
BRANCH   7  11
ATOM     11  C   UNL     1      -2.748   2.685  21.994  0.00  0.00    -0.013 C 
ATOM     16  C   UNL     1      -2.595   1.260  21.472  0.00  0.00    +0.007 C 
ATOM     17  C   UNL     1      -3.955   3.368  21.358  0.00  0.00    +0.007 C 
ENDBRANCH   7  11
BRANCH   8  14
ATOM     14  C   UNL     1      -1.069   0.998  24.104  0.00  0.00    +0.112 C 
BRANCH  14   4
ATOM      3  O   UNL     1       0.428  -0.750  22.387  0.00  0.00    -0.270 OA
ATOM      4  N   UNL     1       0.355   0.904  24.014  0.00  0.00    -0.311 N 
ATOM     20  C   UNL     1       1.003   0.023  23.150  0.00  0.00    +0.244 C 
ATOM     33  H   UNL     1       0.896   1.508  24.622  0.00  0.00    +0.149 HD
BRANCH  20  22
ATOM      1  F   UNL     1       6.616   0.034  23.320  0.00  0.00    -0.205 F 
ATOM     22  C   UNL     1       2.488   0.026  23.196  0.00  0.00    +0.037 A 
ATOM     24  C   UNL     1       3.175  -1.108  23.628  0.00  0.00    +0.016 A 
ATOM     25  C   UNL     1       3.196   1.163  22.805  0.00  0.00    +0.016 A 
ATOM     26  C   UNL     1       4.569  -1.106  23.671  0.00  0.00    +0.039 A 
ATOM     27  C   UNL     1       4.590   1.166  22.847  0.00  0.00    +0.039 A 
ATOM     29  C   UNL     1       5.276   0.031  23.280  0.00  0.00    +0.123 A 
ENDBRANCH  20  22
ENDBRANCH  14   4
ENDBRANCH   8  14
BRANCH  10  15
ATOM     15  C   UNL     1      -4.955   3.230  25.916  0.00  0.00    +0.103 C 
BRANCH  15  19
ATOM      2  O   UNL     1      -5.857   2.133  23.957  0.00  0.00    -0.276 OA
ATOM      5  N   UNL     1      -4.571   0.914  25.462  0.00  0.00    -0.310 N 
ATOM     19  C   UNL     1      -5.194   2.060  24.989  0.00  0.00    +0.214 C 
ATOM     34  H   UNL     1      -4.041   0.954  26.328  0.00  0.00    +0.149 HD
BRANCH   5  21
ATOM     21  C   UNL     1      -4.631  -0.357  24.779  0.00  0.00    +0.159 C 
BRANCH  21  23
ATOM      6  N   UNL     1      -2.497  -0.723  25.878  0.00  0.00    -0.258 NA
ATOM     23  C   UNL     1      -3.351  -1.128  24.912  0.00  0.00    +0.058 A 
ATOM     28  C   UNL     1      -3.108  -2.195  24.061  0.00  0.00    +0.025 A 
ATOM     30  C   UNL     1      -1.914  -2.890  24.212  0.00  0.00    +0.003 A 
ATOM     31  C   UNL     1      -1.346  -1.422  25.995  0.00  0.00    +0.111 A 
ATOM     32  C   UNL     1      -1.010  -2.502  25.194  0.00  0.00    +0.020 A 
ENDBRANCH  21  23
ENDBRANCH   5  21
ENDBRANCH  15  19
ENDBRANCH  10  15
TORSDOF 8
ENDMDL
MODEL 5
REMARK VINA RESULT:      -1.4      2.569      7.513
REMARK  Name = 38028361
REMARK  11 active torsions:
REMARK  status: ('A' for Active; 'I' for Inactive)
REMARK    1  A    between atoms: N_4  and  C_14
REMARK    2  A    between atoms: N_5  and  C_21
REMARK    3  A    between atoms: C_7  and  C_11
REMARK    4  A    between atoms: C_8  and  C_14
REMARK    5  A    between atoms: C_10  and  C_15
REMARK    6  A    between atoms: C_11  and  C_16
REMARK    7  A    between atoms: C_11  and  C_17
REMARK    8  A    between atoms: C_12  and  C_18
REMARK    9  A    between atoms: C_15  and  C_19
REMARK   10  A    between atoms: C_20  and  C_22
REMARK   11  A    between atoms: C_21  and  C_23
REMARK                            x       y       z     vdW  Elec       q    Type
REMARK                         _______ _______ _______ _____ _____    ______ ____
ROOT
ATOM      7  C   UNL     1      -3.448   3.606  25.597  0.00  0.00    +0.000 C 
ATOM      8  C   UNL     1      -3.468   4.078  24.122  0.00  0.00    +0.032 C 
ATOM      9  C   UNL     1      -2.327   4.316  26.372  0.00  0.00    +0.012 C 
ATOM     10  C   UNL     1      -0.939   4.055  25.758  0.00  0.00    +0.023 C 
ATOM     12  C   UNL     1      -0.945   4.243  24.254  0.00  0.00    -0.073 C 
ATOM     13  C   UNL     1      -2.085   4.263  23.542  0.00  0.00    -0.022 C 
ATOM     18  C   UNL     1       0.389   4.451  23.592  0.00  0.00    +0.039 C 
ENDROOT
BRANCH   7  11
ATOM     11  C   UNL     1      -4.792   3.849  26.291  0.00  0.00    -0.013 C 
ATOM     16  C   UNL     1      -5.726   4.642  25.383  0.00  0.00    +0.007 C 
ATOM     17  C   UNL     1      -5.427   2.523  26.697  0.00  0.00    +0.007 C 
ENDBRANCH   7  11
BRANCH   8  14
ATOM     14  C   UNL     1      -4.266   3.110  23.242  0.00  0.00    +0.112 C 
BRANCH  14   4
ATOM      3  O   UNL     1      -5.989   1.209  24.532  0.00  0.00    -0.270 OA
ATOM      4  N   UNL     1      -3.951   1.753  23.565  0.00  0.00    -0.311 N 
ATOM     20  C   UNL     1      -4.851   0.895  24.195  0.00  0.00    +0.244 C 
ATOM     33  H   UNL     1      -3.022   1.427  23.323  0.00  0.00    +0.149 HD
BRANCH  20  22
ATOM      1  F   UNL     1      -3.000  -4.290  25.298  0.00  0.00    -0.205 F 
ATOM     22  C   UNL     1      -4.360  -0.477  24.486  0.00  0.00    +0.037 A 
ATOM     24  C   UNL     1      -3.756  -0.756  25.712  0.00  0.00    +0.016 A 
ATOM     25  C   UNL     1      -4.504  -1.487  23.535  0.00  0.00    +0.016 A 
ATOM     26  C   UNL     1      -3.296  -2.044  25.987  0.00  0.00    +0.039 A 
ATOM     27  C   UNL     1      -4.045  -2.775  23.809  0.00  0.00    +0.039 A 
ATOM     29  C   UNL     1      -3.441  -3.053  25.035  0.00  0.00    +0.123 A 
ENDBRANCH  20  22
ENDBRANCH  14   4
ENDBRANCH   8  14
BRANCH  10  15
ATOM     15  C   UNL     1      -0.419   2.665  26.135  0.00  0.00    +0.103 C 
BRANCH  15  19
ATOM      2  O   UNL     1      -1.379   1.166  24.497  0.00  0.00    -0.276 OA
ATOM      5  N   UNL     1       0.905   1.595  24.456  0.00  0.00    -0.310 N 
ATOM     19  C   UNL     1      -0.384   1.728  24.949  0.00  0.00    +0.214 C 
ATOM     34  H   UNL     1       1.665   2.104  24.899  0.00  0.00    +0.149 HD
BRANCH   5  21
ATOM     21  C   UNL     1       1.236   0.760  23.325  0.00  0.00    +0.159 C 
BRANCH  21  23
ATOM      6  N   UNL     1       3.596   1.280  23.083  0.00  0.00    -0.258 NA
ATOM     23  C   UNL     1       2.673   0.328  23.346  0.00  0.00    +0.058 A 
ATOM     28  C   UNL     1       2.981  -0.993  23.630  0.00  0.00    +0.025 A 
ATOM     30  C   UNL     1       4.322  -1.360  23.644  0.00  0.00    +0.003 A 
ATOM     31  C   UNL     1       4.889   0.886  23.105  0.00  0.00    +0.111 A 
ATOM     32  C   UNL     1       5.301  -0.409  23.377  0.00  0.00    +0.020 A 
ENDBRANCH  21  23
ENDBRANCH   5  21
ENDBRANCH  15  19
ENDBRANCH  10  15
TORSDOF 8
ENDMDL
MODEL 6
REMARK VINA RESULT:      -0.0      2.693      7.561
REMARK  Name = 38028361
REMARK  11 active torsions:
REMARK  status: ('A' for Active; 'I' for Inactive)
REMARK    1  A    between atoms: N_4  and  C_14
REMARK    2  A    between atoms: N_5  and  C_21
REMARK    3  A    between atoms: C_7  and  C_11
REMARK    4  A    between atoms: C_8  and  C_14
REMARK    5  A    between atoms: C_10  and  C_15
REMARK    6  A    between atoms: C_11  and  C_16
REMARK    7  A    between atoms: C_11  and  C_17
REMARK    8  A    between atoms: C_12  and  C_18
REMARK    9  A    between atoms: C_15  and  C_19
REMARK   10  A    between atoms: C_20  and  C_22
REMARK   11  A    between atoms: C_21  and  C_23
REMARK                            x       y       z     vdW  Elec       q    Type
REMARK                         _______ _______ _______ _____ _____    ______ ____
ROOT
ATOM      7  C   UNL     1      -2.807   3.730  25.151  0.00  0.00    +0.000 C 
ATOM      8  C   UNL     1      -3.815   3.403  24.021  0.00  0.00    +0.032 C 
ATOM      9  C   UNL     1      -1.422   4.039  24.561  0.00  0.00    +0.012 C 
ATOM     10  C   UNL     1      -0.866   2.863  23.735  0.00  0.00    +0.023 C 
ATOM     12  C   UNL     1      -1.901   2.309  22.777  0.00  0.00    -0.073 C 
ATOM     13  C   UNL     1      -3.212   2.572  22.914  0.00  0.00    -0.022 C 
ATOM     18  C   UNL     1      -1.388   1.481  21.632  0.00  0.00    +0.039 C 
ENDROOT
BRANCH   7  11
ATOM     11  C   UNL     1      -3.277   4.906  26.012  0.00  0.00    -0.013 C 
ATOM     16  C   UNL     1      -3.276   4.520  27.488  0.00  0.00    +0.007 C 
ATOM     17  C   UNL     1      -2.396   6.127  25.771  0.00  0.00    +0.007 C 
ENDBRANCH   7  11
BRANCH   8  14
ATOM     14  C   UNL     1      -5.056   2.695  24.576  0.00  0.00    +0.112 C 
BRANCH  14   4
ATOM      3  O   UNL     1      -3.109   1.044  25.892  0.00  0.00    -0.270 OA
ATOM      4  N   UNL     1      -4.923   1.276  24.462  0.00  0.00    -0.311 N 
ATOM     20  C   UNL     1      -3.944   0.549  25.140  0.00  0.00    +0.244 C 
ATOM     33  H   UNL     1      -5.576   0.800  23.850  0.00  0.00    +0.149 HD
BRANCH  20  22
ATOM      1  F   UNL     1      -3.858  -4.987  24.209  0.00  0.00    -0.205 F 
ATOM     22  C   UNL     1      -3.922  -0.916  24.894  0.00  0.00    +0.037 A 
ATOM     24  C   UNL     1      -4.531  -1.441  23.754  0.00  0.00    +0.016 A 
ATOM     25  C   UNL     1      -3.291  -1.766  25.801  0.00  0.00    +0.016 A 
ATOM     26  C   UNL     1      -4.510  -2.816  23.523  0.00  0.00    +0.039 A 
ATOM     27  C   UNL     1      -3.269  -3.141  25.570  0.00  0.00    +0.039 A 
ATOM     29  C   UNL     1      -3.879  -3.666  24.431  0.00  0.00    +0.123 A 
ENDBRANCH  20  22
ENDBRANCH  14   4
ENDBRANCH   8  14
BRANCH  10  15
ATOM     15  C   UNL     1      -0.313   1.761  24.644  0.00  0.00    +0.103 C 
BRANCH  15  19
ATOM      2  O   UNL     1      -0.074  -0.506  23.832  0.00  0.00    -0.276 OA
ATOM      5  N   UNL     1       1.463   1.112  23.180  0.00  0.00    -0.310 N 
ATOM     19  C   UNL     1       0.343   0.650  23.857  0.00  0.00    +0.214 C 
ATOM     34  H   UNL     1       1.728   2.089  23.261  0.00  0.00    +0.149 HD
BRANCH   5  21
ATOM     21  C   UNL     1       2.288   0.266  22.348  0.00  0.00    +0.159 C 
BRANCH  21  23
ATOM      6  N   UNL     1       4.491   0.950  23.109  0.00  0.00    -0.258 NA
ATOM     23  C   UNL     1       3.598  -0.059  23.004  0.00  0.00    +0.058 A 
ATOM     28  C   UNL     1       3.827  -1.347  23.462  0.00  0.00    +0.025 A 
ATOM     30  C   UNL     1       5.050  -1.616  24.067  0.00  0.00    +0.003 A 
ATOM     31  C   UNL     1       5.669   0.651  23.701  0.00  0.00    +0.111 A 
ATOM     32  C   UNL     1       5.994  -0.603  24.192  0.00  0.00    +0.020 A 
ENDBRANCH  21  23
ENDBRANCH   5  21
ENDBRANCH  15  19
ENDBRANCH  10  15
TORSDOF 8
ENDMDL
MODEL 7
REMARK VINA RESULT:       0.9      1.239      1.581
REMARK  Name = 38028361
REMARK  11 active torsions:
REMARK  status: ('A' for Active; 'I' for Inactive)
REMARK    1  A    between atoms: N_4  and  C_14
REMARK    2  A    between atoms: N_5  and  C_21
REMARK    3  A    between atoms: C_7  and  C_11
REMARK    4  A    between atoms: C_8  and  C_14
REMARK    5  A    between atoms: C_10  and  C_15
REMARK    6  A    between atoms: C_11  and  C_16
REMARK    7  A    between atoms: C_11  and  C_17
REMARK    8  A    between atoms: C_12  and  C_18
REMARK    9  A    between atoms: C_15  and  C_19
REMARK   10  A    between atoms: C_20  and  C_22
REMARK   11  A    between atoms: C_21  and  C_23
REMARK                            x       y       z     vdW  Elec       q    Type
REMARK                         _______ _______ _______ _____ _____    ______ ____
ROOT
ATOM      7  C   UNL     1      -2.013   0.161  25.037  0.00  0.00    +0.000 C 
ATOM      8  C   UNL     1      -1.508  -1.019  24.171  0.00  0.00    +0.032 C 
ATOM      9  C   UNL     1      -3.150  -0.301  25.962  0.00  0.00    +0.012 C 
ATOM     10  C   UNL     1      -4.344  -0.876  25.175  0.00  0.00    +0.023 C 
ATOM     12  C   UNL     1      -3.896  -1.858  24.111  0.00  0.00    -0.073 C 
ATOM     13  C   UNL     1      -2.622  -1.915  23.684  0.00  0.00    -0.022 C 
ATOM     18  C   UNL     1      -4.938  -2.802  23.580  0.00  0.00    +0.039 C 
ENDROOT
BRANCH   7  11
ATOM     11  C   UNL     1      -0.887   0.780  25.870  0.00  0.00    -0.013 C 
ATOM     16  C   UNL     1      -1.428   1.908  26.744  0.00  0.00    +0.007 C 
ATOM     17  C   UNL     1      -0.208  -0.287  26.723  0.00  0.00    +0.007 C 
ENDBRANCH   7  11
BRANCH   8  14
ATOM     14  C   UNL     1      -0.695  -0.516  22.972  0.00  0.00    +0.112 C 
BRANCH  14   4
ATOM      3  O   UNL     1       1.499  -0.257  21.139  0.00  0.00    -0.270 OA
ATOM      4  N   UNL     1       0.689  -0.404  23.309  0.00  0.00    -0.311 N 
ATOM     20  C   UNL     1       1.695  -0.282  22.351  0.00  0.00    +0.244 C 
ATOM     33  H   UNL     1       0.927  -0.426  24.294  0.00  0.00    +0.149 HD
BRANCH  20  22
ATOM      1  F   UNL     1       6.957   0.019  24.288  0.00  0.00    -0.205 F 
ATOM     22  C   UNL     1       3.088  -0.203  22.862  0.00  0.00    +0.037 A 
ATOM     24  C   UNL     1       3.840   0.954  22.660  0.00  0.00    +0.016 A 
ATOM     25  C   UNL     1       3.643  -1.284  23.547  0.00  0.00    +0.016 A 
ATOM     26  C   UNL     1       5.147   1.030  23.140  0.00  0.00    +0.039 A 
ATOM     27  C   UNL     1       4.949  -1.209  24.028  0.00  0.00    +0.039 A 
ATOM     29  C   UNL     1       5.701  -0.052  23.825  0.00  0.00    +0.123 A 
ENDBRANCH  20  22
ENDBRANCH  14   4
ENDBRANCH   8  14
BRANCH  10  15
ATOM     15  C   UNL     1      -5.196   0.243  24.567  0.00  0.00    +0.103 C 
BRANCH  15  19
ATOM      2  O   UNL     1      -6.008   1.763  26.264  0.00  0.00    -0.276 OA
ATOM      5  N   UNL     1      -4.082   2.297  25.077  0.00  0.00    -0.310 N 
ATOM     19  C   UNL     1      -5.168   1.499  25.407  0.00  0.00    +0.214 C 
ATOM     34  H   UNL     1      -3.439   1.991  24.352  0.00  0.00    +0.149 HD
BRANCH   5  21
ATOM     21  C   UNL     1      -3.807   3.562  25.719  0.00  0.00    +0.159 C 
BRANCH  21  23
ATOM      6  N   UNL     1      -1.672   3.380  24.576  0.00  0.00    -0.258 NA
ATOM     23  C   UNL     1      -2.554   4.198  25.192  0.00  0.00    +0.058 A 
ATOM     28  C   UNL     1      -2.364   5.561  25.356  0.00  0.00    +0.025 A 
ATOM     30  C   UNL     1      -1.194   6.120  24.855  0.00  0.00    +0.003 A 
ATOM     31  C   UNL     1      -0.546   3.959  24.102  0.00  0.00    +0.111 A 
ATOM     32  C   UNL     1      -0.262   5.310  24.215  0.00  0.00    +0.020 A 
ENDBRANCH  21  23
ENDBRANCH   5  21
ENDBRANCH  15  19
ENDBRANCH  10  15
TORSDOF 8
ENDMDL
