MODEL 1
REMARK VINA RESULT:      -5.0      0.000      0.000
REMARK  Name = 38028829
REMARK  9 active torsions:
REMARK  status: ('A' for Active; 'I' for Inactive)
REMARK    1  A    between atoms: N_3  and  C_12
REMARK    2  A    between atoms: C_5  and  C_9
REMARK    3  A    between atoms: C_6  and  C_12
REMARK    4  A    between atoms: C_8  and  C_13
REMARK    5  A    between atoms: C_9  and  C_14
REMARK    6  A    between atoms: C_9  and  C_15
REMARK    7  A    between atoms: C_10  and  C_17
REMARK    8  A    between atoms: C_13  and  C_18
REMARK    9  A    between atoms: C_16  and  C_21
REMARK                            x       y       z     vdW  Elec       q    Type
REMARK                         _______ _______ _______ _____ _____    ______ ____
ROOT
ATOM      5  C   UNL     1      -1.506   0.724  24.905  0.00  0.00    +0.000 C 
ATOM      6  C   UNL     1      -0.726  -0.518  24.406  0.00  0.00    +0.032 C 
ATOM      7  C   UNL     1      -2.507   0.325  25.999  0.00  0.00    +0.012 C 
ATOM      8  C   UNL     1      -3.521  -0.725  25.507  0.00  0.00    +0.023 C 
ATOM     10  C   UNL     1      -2.844  -1.858  24.763  0.00  0.00    -0.073 C 
ATOM     11  C   UNL     1      -1.589  -1.752  24.290  0.00  0.00    -0.022 C 
ATOM     17  C   UNL     1      -3.626  -3.134  24.615  0.00  0.00    +0.039 C 
ENDROOT
BRANCH   5   9
ATOM      9  C   UNL     1      -0.566   1.812  25.432  0.00  0.00    -0.013 C 
ATOM     14  C   UNL     1      -0.011   2.641  24.279  0.00  0.00    +0.007 C 
ATOM     15  C   UNL     1      -1.293   2.702  26.436  0.00  0.00    +0.007 C 
ENDBRANCH   5   9
BRANCH   6  12
ATOM     12  C   UNL     1      -0.047  -0.242  23.059  0.00  0.00    +0.112 C 
BRANCH  12   3
ATOM      2  O   UNL     1       1.916  -0.302  20.922  0.00  0.00    -0.276 OA
ATOM      3  N   UNL     1       1.375  -0.292  23.188  0.00  0.00    -0.315 N 
ATOM     21  C   UNL     1       2.249  -0.318  22.104  0.00  0.00    +0.216 C 
ATOM     29  H   UNL     1       1.761  -0.205  24.123  0.00  0.00    +0.149 HD
BRANCH  21  16
ATOM     16  C   UNL     1       3.688  -0.344  22.520  0.00  0.00    +0.075 C 
ATOM     19  C   UNL     1       4.116   1.042  23.003  0.00  0.00    +0.013 C 
ATOM     20  C   UNL     1       3.879  -1.402  23.610  0.00  0.00    +0.013 C 
ATOM     22  C   UNL     1       5.547   1.033  23.533  0.00  0.00    +0.001 C 
ATOM     23  C   UNL     1       5.310  -1.406  24.143  0.00  0.00    +0.001 C 
ATOM     24  C   UNL     1       5.737  -0.021  24.620  0.00  0.00    +0.000 C 
ENDBRANCH  21  16
ENDBRANCH  12   3
ENDBRANCH   6  12
BRANCH   8  13
ATOM     13  C   UNL     1      -4.611  -0.077  24.645  0.00  0.00    +0.103 C 
BRANCH  13  18
ATOM      1  O   UNL     1      -5.881   1.124  26.263  0.00  0.00    -0.276 OA
ATOM      4  N   UNL     1      -4.638   2.365  24.762  0.00  0.00    -0.301 N 
ATOM     18  C   UNL     1      -5.106   1.184  25.306  0.00  0.00    +0.216 C 
ATOM     25  C   UNL     1      -5.028   3.668  25.281  0.00  0.00    +0.108 C 
ATOM     26  C   UNL     1      -3.721   2.505  23.635  0.00  0.00    +0.108 C 
ATOM     27  C   UNL     1      -4.059   4.643  24.630  0.00  0.00    +0.020 C 
ATOM     28  C   UNL     1      -3.769   3.986  23.287  0.00  0.00    +0.020 C 
ENDBRANCH  13  18
ENDBRANCH   8  13
TORSDOF 6
ENDMDL
MODEL 2
REMARK VINA RESULT:      -3.9     17.492     18.729
REMARK  Name = 38028829
REMARK  9 active torsions:
REMARK  status: ('A' for Active; 'I' for Inactive)
REMARK    1  A    between atoms: N_3  and  C_12
REMARK    2  A    between atoms: C_5  and  C_9
REMARK    3  A    between atoms: C_6  and  C_12
REMARK    4  A    between atoms: C_8  and  C_13
REMARK    5  A    between atoms: C_9  and  C_14
REMARK    6  A    between atoms: C_9  and  C_15
REMARK    7  A    between atoms: C_10  and  C_17
REMARK    8  A    between atoms: C_13  and  C_18
REMARK    9  A    between atoms: C_16  and  C_21
REMARK                            x       y       z     vdW  Elec       q    Type
REMARK                         _______ _______ _______ _____ _____    ______ ____
ROOT
ATOM      5  C   UNL     1      16.299  -4.761  30.585  0.00  0.00    +0.000 C 
ATOM      6  C   UNL     1      17.243  -4.619  29.364  0.00  0.00    +0.032 C 
ATOM      7  C   UNL     1      16.018  -6.242  30.877  0.00  0.00    +0.012 C 
ATOM      8  C   UNL     1      15.375  -6.961  29.676  0.00  0.00    +0.023 C 
ATOM     10  C   UNL     1      16.098  -6.652  28.381  0.00  0.00    -0.073 C 
ATOM     11  C   UNL     1      16.939  -5.609  28.264  0.00  0.00    -0.022 C 
ATOM     17  C   UNL     1      15.867  -7.597  27.234  0.00  0.00    +0.039 C 
ENDROOT
BRANCH   5   9
ATOM      9  C   UNL     1      16.879  -4.086  31.833  0.00  0.00    -0.013 C 
ATOM     14  C   UNL     1      15.880  -3.090  32.411  0.00  0.00    +0.007 C 
ATOM     15  C   UNL     1      17.262  -5.134  32.873  0.00  0.00    +0.007 C 
ENDBRANCH   5   9
BRANCH   6  12
ATOM     12  C   UNL     1      17.204  -3.196  28.796  0.00  0.00    +0.112 C 
BRANCH  12   3
ATOM      2  O   UNL     1      16.521  -1.109  26.897  0.00  0.00    -0.276 OA
ATOM      3  N   UNL     1      17.405  -3.209  27.381  0.00  0.00    -0.315 N 
ATOM     21  C   UNL     1      17.047  -2.159  26.539  0.00  0.00    +0.216 C 
ATOM     29  H   UNL     1      17.927  -3.988  26.992  0.00  0.00    +0.149 HD
BRANCH  21  16
ATOM     16  C   UNL     1      17.392  -2.422  25.105  0.00  0.00    +0.075 C 
ATOM     19  C   UNL     1      16.607  -3.631  24.594  0.00  0.00    +0.013 C 
ATOM     20  C   UNL     1      17.095  -1.170  24.277  0.00  0.00    +0.013 C 
ATOM     22  C   UNL     1      16.852  -3.869  23.106  0.00  0.00    +0.001 C 
ATOM     23  C   UNL     1      17.336  -1.411  22.789  0.00  0.00    +0.001 C 
ATOM     24  C   UNL     1      16.556  -2.620  22.281  0.00  0.00    +0.000 C 
ENDBRANCH  21  16
ENDBRANCH  12   3
ENDBRANCH   6  12
BRANCH   8  13
ATOM     13  C   UNL     1      13.883  -6.625  29.566  0.00  0.00    +0.103 C 
BRANCH  13  18
ATOM      1  O   UNL     1      12.925  -5.780  31.576  0.00  0.00    -0.276 OA
ATOM      4  N   UNL     1      12.993  -8.075  31.322  0.00  0.00    -0.301 N 
ATOM     18  C   UNL     1      13.222  -6.775  30.912  0.00  0.00    +0.216 C 
ATOM     25  C   UNL     1      12.370  -8.390  32.599  0.00  0.00    +0.108 C 
ATOM     26  C   UNL     1      13.317  -9.292  30.585  0.00  0.00    +0.108 C 
ATOM     27  C   UNL     1      12.020  -9.866  32.500  0.00  0.00    +0.020 C 
ATOM     28  C   UNL     1      13.117 -10.414  31.596  0.00  0.00    +0.020 C 
ENDBRANCH  13  18
ENDBRANCH   8  13
TORSDOF 6
ENDMDL
MODEL 3
REMARK VINA RESULT:      -3.8     16.983     19.034
REMARK  Name = 38028829
REMARK  9 active torsions:
REMARK  status: ('A' for Active; 'I' for Inactive)
REMARK    1  A    between atoms: N_3  and  C_12
REMARK    2  A    between atoms: C_5  and  C_9
REMARK    3  A    between atoms: C_6  and  C_12
REMARK    4  A    between atoms: C_8  and  C_13
REMARK    5  A    between atoms: C_9  and  C_14
REMARK    6  A    between atoms: C_9  and  C_15
REMARK    7  A    between atoms: C_10  and  C_17
REMARK    8  A    between atoms: C_13  and  C_18
REMARK    9  A    between atoms: C_16  and  C_21
REMARK                            x       y       z     vdW  Elec       q    Type
REMARK                         _______ _______ _______ _____ _____    ______ ____
ROOT
ATOM      5  C   UNL     1      16.488  -7.101  30.138  0.00  0.00    +0.000 C 
ATOM      6  C   UNL     1      17.252  -6.541  28.912  0.00  0.00    +0.032 C 
ATOM      7  C   UNL     1      16.406  -8.633  30.065  0.00  0.00    +0.012 C 
ATOM      8  C   UNL     1      15.701  -9.119  28.784  0.00  0.00    +0.023 C 
ATOM     10  C   UNL     1      16.220  -8.409  27.551  0.00  0.00    -0.073 C 
ATOM     11  C   UNL     1      16.923  -7.265  27.628  0.00  0.00    -0.022 C 
ATOM     17  C   UNL     1      15.953  -9.069  26.226  0.00  0.00    +0.039 C 
ENDROOT
BRANCH   5   9
ATOM      9  C   UNL     1      17.141  -6.678  31.458  0.00  0.00    -0.013 C 
ATOM     14  C   UNL     1      16.419  -5.470  32.046  0.00  0.00    +0.007 C 
ATOM     15  C   UNL     1      17.143  -7.841  32.446  0.00  0.00    +0.007 C 
ENDBRANCH   5   9
BRANCH   6  12
ATOM     12  C   UNL     1      16.990  -5.041  28.734  0.00  0.00    +0.112 C 
BRANCH  12   3
ATOM      2  O   UNL     1      17.405  -2.377  27.660  0.00  0.00    -0.276 OA
ATOM      3  N   UNL     1      17.101  -4.667  27.359  0.00  0.00    -0.315 N 
ATOM     21  C   UNL     1      17.301  -3.358  26.928  0.00  0.00    +0.216 C 
ATOM     29  H   UNL     1      17.131  -5.415  26.674  0.00  0.00    +0.149 HD
BRANCH  21  16
ATOM     16  C   UNL     1      17.405  -3.247  25.438  0.00  0.00    +0.075 C 
ATOM     19  C   UNL     1      17.094  -4.598  24.793  0.00  0.00    +0.013 C 
ATOM     20  C   UNL     1      16.452  -2.156  24.945  0.00  0.00    +0.013 C 
ATOM     22  C   UNL     1      17.088  -4.503  23.269  0.00  0.00    +0.001 C 
ATOM     23  C   UNL     1      16.444  -2.066  23.421  0.00  0.00    +0.001 C 
ATOM     24  C   UNL     1      16.137  -3.416  22.778  0.00  0.00    +0.000 C 
ENDBRANCH  21  16
ENDBRANCH  12   3
ENDBRANCH   6  12
BRANCH   8  13
ATOM     13  C   UNL     1      14.179  -8.971  28.903  0.00  0.00    +0.103 C 
BRANCH  13  18
ATOM      1  O   UNL     1      13.875 -10.327  30.837  0.00  0.00    -0.276 OA
ATOM      4  N   UNL     1      13.218  -8.116  30.983  0.00  0.00    -0.301 N 
ATOM     18  C   UNL     1      13.750  -9.211  30.327  0.00  0.00    +0.216 C 
ATOM     25  C   UNL     1      12.750  -8.185  32.359  0.00  0.00    +0.108 C 
ATOM     26  C   UNL     1      13.046  -6.773  30.440  0.00  0.00    +0.108 C 
ATOM     27  C   UNL     1      12.565  -6.734  32.773  0.00  0.00    +0.020 C 
ATOM     28  C   UNL     1      12.177  -6.057  31.465  0.00  0.00    +0.020 C 
ENDBRANCH  13  18
ENDBRANCH   8  13
TORSDOF 6
ENDMDL
MODEL 4
REMARK VINA RESULT:      -1.1      1.307      3.452
REMARK  Name = 38028829
REMARK  9 active torsions:
REMARK  status: ('A' for Active; 'I' for Inactive)
REMARK    1  A    between atoms: N_3  and  C_12
REMARK    2  A    between atoms: C_5  and  C_9
REMARK    3  A    between atoms: C_6  and  C_12
REMARK    4  A    between atoms: C_8  and  C_13
REMARK    5  A    between atoms: C_9  and  C_14
REMARK    6  A    between atoms: C_9  and  C_15
REMARK    7  A    between atoms: C_10  and  C_17
REMARK    8  A    between atoms: C_13  and  C_18
REMARK    9  A    between atoms: C_16  and  C_21
REMARK                            x       y       z     vdW  Elec       q    Type
REMARK                         _______ _______ _______ _____ _____    ______ ____
ROOT
ATOM      5  C   UNL     1      -2.053   2.226  23.484  0.00  0.00    +0.000 C 
ATOM      6  C   UNL     1      -0.560   1.890  23.720  0.00  0.00    +0.032 C 
ATOM      7  C   UNL     1      -2.436   3.517  24.223  0.00  0.00    +0.012 C 
ATOM      8  C   UNL     1      -2.192   3.412  25.741  0.00  0.00    +0.023 C 
ATOM     10  C   UNL     1      -0.828   2.832  26.055  0.00  0.00    -0.073 C 
ATOM     11  C   UNL     1      -0.108   2.166  25.134  0.00  0.00    -0.022 C 
ATOM     17  C   UNL     1      -0.291   3.073  27.438  0.00  0.00    +0.039 C 
ENDROOT
BRANCH   5   9
ATOM      9  C   UNL     1      -2.375   2.368  21.992  0.00  0.00    -0.013 C 
ATOM     14  C   UNL     1      -2.506   0.993  21.344  0.00  0.00    +0.007 C 
ATOM     15  C   UNL     1      -3.652   3.180  21.800  0.00  0.00    +0.007 C 
ENDBRANCH   5   9
BRANCH   6  12
ATOM     12  C   UNL     1      -0.258   0.429  23.364  0.00  0.00    +0.112 C 
BRANCH  12   3
ATOM      2  O   UNL     1       1.406  -0.375  21.125  0.00  0.00    -0.276 OA
ATOM      3  N   UNL     1       1.151   0.186  23.372  0.00  0.00    -0.315 N 
ATOM     21  C   UNL     1       1.875  -0.199  22.246  0.00  0.00    +0.216 C 
ATOM     29  H   UNL     1       1.655   0.402  24.225  0.00  0.00    +0.149 HD
BRANCH  21  16
ATOM     16  C   UNL     1       3.338  -0.363  22.527  0.00  0.00    +0.075 C 
ATOM     19  C   UNL     1       3.939   0.976  22.956  0.00  0.00    +0.013 C 
ATOM     20  C   UNL     1       3.528  -1.434  23.602  0.00  0.00    +0.013 C 
ATOM     22  C   UNL     1       5.406   0.830  23.351  0.00  0.00    +0.001 C 
ATOM     23  C   UNL     1       4.995  -1.576  23.999  0.00  0.00    +0.001 C 
ATOM     24  C   UNL     1       5.595  -0.239  24.424  0.00  0.00    +0.000 C 
ENDBRANCH  21  16
ENDBRANCH  12   3
ENDBRANCH   6  12
BRANCH   8  13
ATOM     13  C   UNL     1      -3.303   2.605  26.424  0.00  0.00    +0.103 C 
BRANCH  13  18
ATOM      1  O   UNL     1      -5.043   2.629  24.798  0.00  0.00    -0.276 OA
ATOM      4  N   UNL     1      -3.961   0.619  25.159  0.00  0.00    -0.301 N 
ATOM     18  C   UNL     1      -4.185   1.964  25.384  0.00  0.00    +0.216 C 
ATOM     25  C   UNL     1      -4.734  -0.147  24.192  0.00  0.00    +0.108 C 
ATOM     26  C   UNL     1      -2.964  -0.221  25.814  0.00  0.00    +0.108 C 
ATOM     27  C   UNL     1      -3.964  -1.448  24.032  0.00  0.00    +0.020 C 
ATOM     28  C   UNL     1      -3.337  -1.640  25.407  0.00  0.00    +0.020 C 
ENDBRANCH  13  18
ENDBRANCH   8  13
TORSDOF 6
ENDMDL
