MODEL 1
REMARK VINA RESULT:      -5.7      0.000      0.000
REMARK  Name = 26744120
REMARK  8 active torsions:
REMARK  status: ('A' for Active; 'I' for Inactive)
REMARK    1  A    between atoms: O_4  and  C_12
REMARK    2  A    between atoms: O_6  and  C_21
REMARK    3  A    between atoms: O_6  and  C_29
REMARK    4  A    between atoms: N_7  and  C_14
REMARK    5  A    between atoms: C_10  and  C_15
REMARK    6  A    between atoms: C_14  and  C_16
REMARK    7  A    between atoms: C_17  and  C_20
REMARK    8  A    between atoms: C_20  and  C_24
REMARK                            x       y       z     vdW  Elec       q    Type
REMARK                         _______ _______ _______ _____ _____    ______ ____
ROOT
ATOM      7  N   UNL     1      -3.004  -0.741  23.645  0.00  0.00    -0.285 NA
ATOM     10  C   UNL     1      -2.071  -0.265  24.687  0.00  0.00    +0.149 C 
ATOM     11  C   UNL     1      -1.947  -1.443  25.672  0.00  0.00    +0.061 C 
ATOM     12  C   UNL     1      -2.882  -2.515  25.125  0.00  0.00    +0.130 C 
ATOM     13  C   UNL     1      -3.870  -1.728  24.286  0.00  0.00    +0.116 C 
ENDROOT
BRANCH  10  15
ATOM      5  O   UNL     1      -0.219   1.328  24.596  0.00  0.00    -0.336 OA
ATOM      8  N   UNL     1       0.014  -0.422  23.219  0.00  0.00    -0.194 NA
ATOM      9  N   UNL     1       0.999   1.515  23.932  0.00  0.00    -0.061 NA
ATOM     15  C   UNL     1      -0.735   0.166  24.118  0.00  0.00    +0.245 A 
ATOM     17  C   UNL     1       1.066   0.443  23.137  0.00  0.00    +0.176 A 
BRANCH  17  20
ATOM     20  C   UNL     1       2.199   0.213  22.234  0.00  0.00    +0.114 C 
BRANCH  20  24
ATOM     24  C   UNL     1       3.525  -0.074  22.932  0.00  0.00    -0.040 A 
ATOM     25  C   UNL     1       4.497   0.923  23.019  0.00  0.00    +0.004 A 
ATOM     26  C   UNL     1       3.765  -1.333  23.483  0.00  0.00    +0.004 A 
ATOM     27  C   UNL     1       5.710   0.660  23.657  0.00  0.00    +0.000 A 
ATOM     28  C   UNL     1       4.977  -1.595  24.122  0.00  0.00    +0.000 A 
ATOM     30  C   UNL     1       5.949  -0.598  24.208  0.00  0.00    +0.000 A 
ENDBRANCH  20  24
ENDBRANCH  17  20
ENDBRANCH  10  15
BRANCH  12   4
ATOM      4  O   UNL     1      -3.522  -3.207  26.178  0.00  0.00    -0.390 OA
ATOM     31  H   UNL     1      -3.997  -2.549  26.714  0.00  0.00    +0.210 HD
ENDBRANCH  12   4
BRANCH   7  14
ATOM     14  C   UNL     1      -3.764   0.335  23.021  0.00  0.00    +0.120 C 
BRANCH  14  16
ATOM     16  C   UNL     1      -4.037   1.461  23.982  0.00  0.00    -0.030 A 
ATOM     18  C   UNL     1      -3.259   2.618  23.939  0.00  0.00    +0.051 A 
ATOM     19  C   UNL     1      -5.068   1.347  24.915  0.00  0.00    +0.005 A 
ATOM     21  C   UNL     1      -3.513   3.662  24.829  0.00  0.00    +0.130 A 
ATOM     22  C   UNL     1      -5.321   2.391  25.805  0.00  0.00    +0.004 A 
ATOM     23  C   UNL     1      -4.544   3.548  25.761  0.00  0.00    +0.046 A 
BRANCH  21   6
ATOM      6  O   UNL     1      -2.754   4.791  24.786  0.00  0.00    -0.406 OA
BRANCH   6  29
ATOM      1  F   UNL     1      -0.860   5.906  25.301  0.00  0.00    -0.133 F 
ATOM      2  F   UNL     1      -1.129   3.901  26.127  0.00  0.00    -0.133 F 
ATOM      3  F   UNL     1      -0.706   4.175  23.976  0.00  0.00    -0.133 F 
ATOM     29  C   UNL     1      -1.359   4.675  25.046  0.00  0.00    +0.575 C 
ENDBRANCH   6  29
ENDBRANCH  21   6
ENDBRANCH  14  16
ENDBRANCH   7  14
TORSDOF 8
ENDMDL
MODEL 2
REMARK VINA RESULT:      -4.9      2.234      4.329
REMARK  Name = 26744120
REMARK  8 active torsions:
REMARK  status: ('A' for Active; 'I' for Inactive)
REMARK    1  A    between atoms: O_4  and  C_12
REMARK    2  A    between atoms: O_6  and  C_21
REMARK    3  A    between atoms: O_6  and  C_29
REMARK    4  A    between atoms: N_7  and  C_14
REMARK    5  A    between atoms: C_10  and  C_15
REMARK    6  A    between atoms: C_14  and  C_16
REMARK    7  A    between atoms: C_17  and  C_20
REMARK    8  A    between atoms: C_20  and  C_24
REMARK                            x       y       z     vdW  Elec       q    Type
REMARK                         _______ _______ _______ _____ _____    ______ ____
ROOT
ATOM      7  N   UNL     1      -3.279   2.095  24.926  0.00  0.00    -0.285 NA
ATOM     10  C   UNL     1      -2.254   2.946  24.288  0.00  0.00    +0.149 C 
ATOM     11  C   UNL     1      -2.063   4.127  25.258  0.00  0.00    +0.061 C 
ATOM     12  C   UNL     1      -3.055   3.874  26.387  0.00  0.00    +0.130 C 
ATOM     13  C   UNL     1      -4.101   2.982  25.746  0.00  0.00    +0.116 C 
ENDROOT
BRANCH  10  15
ATOM      5  O   UNL     1       0.067   2.437  24.864  0.00  0.00    -0.336 OA
ATOM      8  N   UNL     1      -0.688   1.344  23.062  0.00  0.00    -0.194 NA
ATOM      9  N   UNL     1       1.132   1.647  24.414  0.00  0.00    -0.061 NA
ATOM     15  C   UNL     1      -0.965   2.199  24.013  0.00  0.00    +0.245 A 
ATOM     17  C   UNL     1       0.609   1.033  23.348  0.00  0.00    +0.176 A 
BRANCH  17  20
ATOM     20  C   UNL     1       1.384   0.087  22.539  0.00  0.00    +0.114 C 
BRANCH  20  24
ATOM     24  C   UNL     1       2.841  -0.075  22.965  0.00  0.00    -0.040 A 
ATOM     25  C   UNL     1       3.742   0.974  22.779  0.00  0.00    +0.004 A 
ATOM     26  C   UNL     1       3.272  -1.271  23.537  0.00  0.00    +0.004 A 
ATOM     27  C   UNL     1       5.073   0.826  23.167  0.00  0.00    +0.000 A 
ATOM     28  C   UNL     1       4.603  -1.419  23.927  0.00  0.00    +0.000 A 
ATOM     30  C   UNL     1       5.504  -0.370  23.741  0.00  0.00    +0.000 A 
ENDBRANCH  20  24
ENDBRANCH  17  20
ENDBRANCH  10  15
BRANCH  12   4
ATOM      4  O   UNL     1      -3.613   5.090  26.846  0.00  0.00    -0.390 OA
ATOM     31  H   UNL     1      -2.906   5.758  26.836  0.00  0.00    +0.210 HD
ENDBRANCH  12   4
BRANCH   7  14
ATOM     14  C   UNL     1      -4.074   1.339  23.968  0.00  0.00    +0.120 C 
BRANCH  14  16
ATOM     16  C   UNL     1      -3.888  -0.146  24.131  0.00  0.00    -0.030 A 
ATOM     18  C   UNL     1      -2.779  -0.639  24.818  0.00  0.00    +0.051 A 
ATOM     19  C   UNL     1      -4.827  -1.030  23.598  0.00  0.00    +0.005 A 
ATOM     21  C   UNL     1      -2.608  -2.014  24.971  0.00  0.00    +0.130 A 
ATOM     22  C   UNL     1      -4.656  -2.405  23.751  0.00  0.00    +0.004 A 
ATOM     23  C   UNL     1      -3.546  -2.897  24.438  0.00  0.00    +0.046 A 
BRANCH  21   6
ATOM      6  O   UNL     1      -1.524  -2.495  25.641  0.00  0.00    -0.406 OA
BRANCH   6  29
ATOM      1  F   UNL     1      -0.062  -1.707  24.112  0.00  0.00    -0.133 F 
ATOM      2  F   UNL     1      -0.259  -0.623  26.000  0.00  0.00    -0.133 F 
ATOM      3  F   UNL     1       0.741  -2.593  25.942  0.00  0.00    -0.133 F 
ATOM     29  C   UNL     1      -0.270  -1.852  25.441  0.00  0.00    +0.575 C 
ENDBRANCH   6  29
ENDBRANCH  21   6
ENDBRANCH  14  16
ENDBRANCH   7  14
TORSDOF 8
ENDMDL
MODEL 3
REMARK VINA RESULT:      -4.2     15.451     18.064
REMARK  Name = 26744120
REMARK  8 active torsions:
REMARK  status: ('A' for Active; 'I' for Inactive)
REMARK    1  A    between atoms: O_4  and  C_12
REMARK    2  A    between atoms: O_6  and  C_21
REMARK    3  A    between atoms: O_6  and  C_29
REMARK    4  A    between atoms: N_7  and  C_14
REMARK    5  A    between atoms: C_10  and  C_15
REMARK    6  A    between atoms: C_14  and  C_16
REMARK    7  A    between atoms: C_17  and  C_20
REMARK    8  A    between atoms: C_20  and  C_24
REMARK                            x       y       z     vdW  Elec       q    Type
REMARK                         _______ _______ _______ _____ _____    ______ ____
ROOT
ATOM      7  N   UNL     1      -6.786  -9.934  15.117  0.00  0.00    -0.285 NA
ATOM     10  C   UNL     1      -8.109 -10.589  15.152  0.00  0.00    +0.149 C 
ATOM     11  C   UNL     1      -8.835  -9.945  16.348  0.00  0.00    +0.061 C 
ATOM     12  C   UNL     1      -7.824  -8.977  16.948  0.00  0.00    +0.130 C 
ATOM     13  C   UNL     1      -6.488  -9.529  16.489  0.00  0.00    +0.116 C 
ENDROOT
BRANCH  10  15
ATOM      5  O   UNL     1     -10.098  -9.856  13.933  0.00  0.00    -0.336 OA
ATOM      8  N   UNL     1      -8.521 -10.776  12.638  0.00  0.00    -0.194 NA
ATOM      9  N   UNL     1     -10.599  -9.822  12.626  0.00  0.00    -0.061 NA
ATOM     15  C   UNL     1      -8.871 -10.433  13.852  0.00  0.00    +0.245 A 
ATOM     17  C   UNL     1      -9.613 -10.383  11.921  0.00  0.00    +0.176 A 
BRANCH  17  20
ATOM     20  C   UNL     1      -9.701 -10.563  10.468  0.00  0.00    +0.114 C 
BRANCH  20  24
ATOM     24  C   UNL     1      -8.914  -9.545   9.648  0.00  0.00    -0.040 A 
ATOM     25  C   UNL     1      -9.382  -8.237   9.527  0.00  0.00    +0.004 A 
ATOM     26  C   UNL     1      -7.729  -9.924   9.019  0.00  0.00    +0.004 A 
ATOM     27  C   UNL     1      -8.662  -7.306   8.777  0.00  0.00    +0.000 A 
ATOM     28  C   UNL     1      -7.008  -8.993   8.270  0.00  0.00    +0.000 A 
ATOM     30  C   UNL     1      -7.476  -7.684   8.149  0.00  0.00    +0.000 A 
ENDBRANCH  20  24
ENDBRANCH  17  20
ENDBRANCH  10  15
BRANCH  12   4
ATOM      4  O   UNL     1      -7.925  -8.956  18.359  0.00  0.00    -0.390 OA
ATOM     31  H   UNL     1      -7.754  -9.859  18.677  0.00  0.00    +0.210 HD
ENDBRANCH  12   4
BRANCH   7  14
ATOM     14  C   UNL     1      -5.741 -10.781  14.555  0.00  0.00    +0.120 C 
BRANCH  14  16
ATOM     16  C   UNL     1      -5.153 -10.191  13.301  0.00  0.00    -0.030 A 
ATOM     18  C   UNL     1      -3.851 -10.518  12.921  0.00  0.00    +0.051 A 
ATOM     19  C   UNL     1      -5.910  -9.319  12.519  0.00  0.00    +0.005 A 
ATOM     21  C   UNL     1      -3.307  -9.972  11.759  0.00  0.00    +0.130 A 
ATOM     22  C   UNL     1      -5.365  -8.773  11.357  0.00  0.00    +0.004 A 
ATOM     23  C   UNL     1      -4.064  -9.100  10.977  0.00  0.00    +0.046 A 
BRANCH  21   6
ATOM      6  O   UNL     1      -2.036 -10.291  11.389  0.00  0.00    -0.406 OA
BRANCH   6  29
ATOM      1  F   UNL     1      -1.093  -8.424  12.238  0.00  0.00    -0.133 F 
ATOM      2  F   UNL     1       0.132  -9.702  10.957  0.00  0.00    -0.133 F 
ATOM      3  F   UNL     1      -1.497  -8.486  10.091  0.00  0.00    -0.133 F 
ATOM     29  C   UNL     1      -1.118  -9.230  11.151  0.00  0.00    +0.575 C 
ENDBRANCH   6  29
ENDBRANCH  21   6
ENDBRANCH  14  16
ENDBRANCH   7  14
TORSDOF 8
ENDMDL
MODEL 4
REMARK VINA RESULT:      -3.0      2.304      2.990
REMARK  Name = 26744120
REMARK  8 active torsions:
REMARK  status: ('A' for Active; 'I' for Inactive)
REMARK    1  A    between atoms: O_4  and  C_12
REMARK    2  A    between atoms: O_6  and  C_21
REMARK    3  A    between atoms: O_6  and  C_29
REMARK    4  A    between atoms: N_7  and  C_14
REMARK    5  A    between atoms: C_10  and  C_15
REMARK    6  A    between atoms: C_14  and  C_16
REMARK    7  A    between atoms: C_17  and  C_20
REMARK    8  A    between atoms: C_20  and  C_24
REMARK                            x       y       z     vdW  Elec       q    Type
REMARK                         _______ _______ _______ _____ _____    ______ ____
ROOT
ATOM      7  N   UNL     1      -2.692   0.230  23.202  0.00  0.00    -0.285 NA
ATOM     10  C   UNL     1      -1.735   0.301  24.325  0.00  0.00    +0.149 C 
ATOM     11  C   UNL     1      -1.909  -1.032  25.075  0.00  0.00    +0.061 C 
ATOM     12  C   UNL     1      -3.018  -1.764  24.328  0.00  0.00    +0.130 C 
ATOM     13  C   UNL     1      -3.777  -0.646  23.638  0.00  0.00    +0.116 C 
ENDROOT
BRANCH  10  15
ATOM      5  O   UNL     1       0.336   1.600  24.394  0.00  0.00    -0.336 OA
ATOM      8  N   UNL     1       0.406  -0.158  23.009  0.00  0.00    -0.194 NA
ATOM      9  N   UNL     1       1.614   1.605  23.823  0.00  0.00    -0.061 NA
ATOM     15  C   UNL     1      -0.311   0.530  23.862  0.00  0.00    +0.245 A 
ATOM     17  C   UNL     1       1.579   0.540  23.018  0.00  0.00    +0.176 A 
BRANCH  17  20
ATOM     20  C   UNL     1       2.728   0.148  22.196  0.00  0.00    +0.114 C 
BRANCH  20  24
ATOM     24  C   UNL     1       4.001  -0.159  22.981  0.00  0.00    -0.040 A 
ATOM     25  C   UNL     1       4.185  -1.422  23.543  0.00  0.00    +0.004 A 
ATOM     26  C   UNL     1       4.978   0.823  23.136  0.00  0.00    +0.004 A 
ATOM     27  C   UNL     1       5.348  -1.703  24.261  0.00  0.00    +0.000 A 
ATOM     28  C   UNL     1       6.142   0.543  23.852  0.00  0.00    +0.000 A 
ATOM     30  C   UNL     1       6.326  -0.721  24.415  0.00  0.00    +0.000 A 
ENDBRANCH  20  24
ENDBRANCH  17  20
ENDBRANCH  10  15
BRANCH  12   4
ATOM      4  O   UNL     1      -3.841  -2.480  25.227  0.00  0.00    -0.390 OA
ATOM     31  H   UNL     1      -3.598  -2.205  26.128  0.00  0.00    +0.210 HD
ENDBRANCH  12   4
BRANCH   7  14
ATOM     14  C   UNL     1      -3.178   1.538  22.781  0.00  0.00    +0.120 C 
BRANCH  14  16
ATOM     16  C   UNL     1      -3.402   2.459  23.951  0.00  0.00    -0.030 A 
ATOM     18  C   UNL     1      -4.520   2.290  24.767  0.00  0.00    +0.051 A 
ATOM     19  C   UNL     1      -2.490   3.479  24.220  0.00  0.00    +0.005 A 
ATOM     21  C   UNL     1      -4.726   3.142  25.852  0.00  0.00    +0.130 A 
ATOM     22  C   UNL     1      -2.696   4.331  25.305  0.00  0.00    +0.004 A 
ATOM     23  C   UNL     1      -3.814   4.162  26.121  0.00  0.00    +0.046 A 
BRANCH  21   6
ATOM      6  O   UNL     1      -5.818   2.977  26.648  0.00  0.00    -0.406 OA
BRANCH   6  29
ATOM      1  F   UNL     1      -5.673   0.727  26.539  0.00  0.00    -0.133 F 
ATOM      2  F   UNL     1      -7.372   1.597  27.603  0.00  0.00    -0.133 F 
ATOM      3  F   UNL     1      -7.257   1.711  25.399  0.00  0.00    -0.133 F 
ATOM     29  C   UNL     1      -6.548   1.759  26.547  0.00  0.00    +0.575 C 
ENDBRANCH   6  29
ENDBRANCH  21   6
ENDBRANCH  14  16
ENDBRANCH   7  14
TORSDOF 8
ENDMDL
MODEL 5
REMARK VINA RESULT:      -2.7      2.233      4.082
REMARK  Name = 26744120
REMARK  8 active torsions:
REMARK  status: ('A' for Active; 'I' for Inactive)
REMARK    1  A    between atoms: O_4  and  C_12
REMARK    2  A    between atoms: O_6  and  C_21
REMARK    3  A    between atoms: O_6  and  C_29
REMARK    4  A    between atoms: N_7  and  C_14
REMARK    5  A    between atoms: C_10  and  C_15
REMARK    6  A    between atoms: C_14  and  C_16
REMARK    7  A    between atoms: C_17  and  C_20
REMARK    8  A    between atoms: C_20  and  C_24
REMARK                            x       y       z     vdW  Elec       q    Type
REMARK                         _______ _______ _______ _____ _____    ______ ____
ROOT
ATOM      7  N   UNL     1      -0.636   1.486  25.726  0.00  0.00    -0.285 NA
ATOM     10  C   UNL     1      -1.019   1.554  24.301  0.00  0.00    +0.149 C 
ATOM     11  C   UNL     1      -1.144   3.059  23.998  0.00  0.00    +0.061 C 
ATOM     12  C   UNL     1      -0.858   3.753  25.324  0.00  0.00    +0.130 C 
ATOM     13  C   UNL     1      -1.175   2.688  26.357  0.00  0.00    +0.116 C 
ENDROOT
BRANCH  10  15
ATOM      5  O   UNL     1      -0.491  -0.208  22.690  0.00  0.00    -0.336 OA
ATOM      8  N   UNL     1       1.239   1.124  23.188  0.00  0.00    -0.194 NA
ATOM      9  N   UNL     1       0.592  -0.680  21.940  0.00  0.00    -0.061 NA
ATOM     15  C   UNL     1      -0.025   0.855  23.396  0.00  0.00    +0.245 A 
ATOM     17  C   UNL     1       1.575   0.155  22.288  0.00  0.00    +0.176 A 
BRANCH  17  20
ATOM     20  C   UNL     1       2.929   0.035  21.737  0.00  0.00    +0.114 C 
BRANCH  20  24
ATOM     24  C   UNL     1       4.027  -0.168  22.777  0.00  0.00    -0.040 A 
ATOM     25  C   UNL     1       4.873   0.890  23.113  0.00  0.00    +0.004 A 
ATOM     26  C   UNL     1       4.186  -1.410  23.390  0.00  0.00    +0.004 A 
ATOM     27  C   UNL     1       5.877   0.704  24.063  0.00  0.00    +0.000 A 
ATOM     28  C   UNL     1       5.190  -1.595  24.341  0.00  0.00    +0.000 A 
ATOM     30  C   UNL     1       6.035  -0.538  24.677  0.00  0.00    +0.000 A 
ENDBRANCH  20  24
ENDBRANCH  17  20
ENDBRANCH  10  15
BRANCH  12   4
ATOM      4  O   UNL     1      -1.677   4.895  25.480  0.00  0.00    -0.390 OA
ATOM     31  H   UNL     1      -2.285   4.924  24.721  0.00  0.00    +0.210 HD
ENDBRANCH  12   4
BRANCH   7  14
ATOM     14  C   UNL     1      -1.091   0.268  26.385  0.00  0.00    +0.120 C 
BRANCH  14  16
ATOM     16  C   UNL     1      -2.176  -0.422  25.602  0.00  0.00    -0.030 A 
ATOM     18  C   UNL     1      -3.346   0.265  25.279  0.00  0.00    +0.051 A 
ATOM     19  C   UNL     1      -2.010  -1.746  25.199  0.00  0.00    +0.005 A 
ATOM     21  C   UNL     1      -4.351  -0.374  24.553  0.00  0.00    +0.130 A 
ATOM     22  C   UNL     1      -3.015  -2.386  24.472  0.00  0.00    +0.004 A 
ATOM     23  C   UNL     1      -4.185  -1.699  24.149  0.00  0.00    +0.046 A 
BRANCH  21   6
ATOM      6  O   UNL     1      -5.494   0.296  24.237  0.00  0.00    -0.406 OA
BRANCH   6  29
ATOM      1  F   UNL     1      -7.017   1.914  24.635  0.00  0.00    -0.133 F 
ATOM      2  F   UNL     1      -5.562   1.464  26.203  0.00  0.00    -0.133 F 
ATOM      3  F   UNL     1      -4.931   2.509  24.361  0.00  0.00    -0.133 F 
ATOM     29  C   UNL     1      -5.734   1.549  24.866  0.00  0.00    +0.575 C 
ENDBRANCH   6  29
ENDBRANCH  21   6
ENDBRANCH  14  16
ENDBRANCH   7  14
TORSDOF 8
ENDMDL
MODEL 6
REMARK VINA RESULT:      -2.5     14.586     17.271
REMARK  Name = 26744120
REMARK  8 active torsions:
REMARK  status: ('A' for Active; 'I' for Inactive)
REMARK    1  A    between atoms: O_4  and  C_12
REMARK    2  A    between atoms: O_6  and  C_21
REMARK    3  A    between atoms: O_6  and  C_29
REMARK    4  A    between atoms: N_7  and  C_14
REMARK    5  A    between atoms: C_10  and  C_15
REMARK    6  A    between atoms: C_14  and  C_16
REMARK    7  A    between atoms: C_17  and  C_20
REMARK    8  A    between atoms: C_20  and  C_24
REMARK                            x       y       z     vdW  Elec       q    Type
REMARK                         _______ _______ _______ _____ _____    ______ ____
ROOT
ATOM      7  N   UNL     1      -6.132  -9.305  10.872  0.00  0.00    -0.285 NA
ATOM     10  C   UNL     1      -7.401  -8.990  11.558  0.00  0.00    +0.149 C 
ATOM     11  C   UNL     1      -8.500  -9.483  10.599  0.00  0.00    +0.061 C 
ATOM     12  C   UNL     1      -7.753 -10.016   9.383  0.00  0.00    +0.130 C 
ATOM     13  C   UNL     1      -6.422  -9.291   9.440  0.00  0.00    +0.116 C 
ENDROOT
BRANCH  10  15
ATOM      5  O   UNL     1      -6.386 -10.270  13.377  0.00  0.00    -0.336 OA
ATOM      8  N   UNL     1      -8.501  -9.646  13.768  0.00  0.00    -0.194 NA
ATOM      9  N   UNL     1      -6.709 -10.765  14.646  0.00  0.00    -0.061 NA
ATOM     15  C   UNL     1      -7.494  -9.624  12.930  0.00  0.00    +0.245 A 
ATOM     17  C   UNL     1      -7.972 -10.358  14.805  0.00  0.00    +0.176 A 
BRANCH  17  20
ATOM     20  C   UNL     1      -8.738 -10.659  16.019  0.00  0.00    +0.114 C 
BRANCH  20  24
ATOM     24  C   UNL     1      -7.932 -10.612  17.313  0.00  0.00    -0.040 A 
ATOM     25  C   UNL     1      -6.542 -10.729  17.273  0.00  0.00    +0.004 A 
ATOM     26  C   UNL     1      -8.583 -10.452  18.535  0.00  0.00    +0.004 A 
ATOM     27  C   UNL     1      -5.804 -10.685  18.456  0.00  0.00    +0.000 A 
ATOM     28  C   UNL     1      -7.846 -10.408  19.719  0.00  0.00    +0.000 A 
ATOM     30  C   UNL     1      -6.456 -10.525  19.678  0.00  0.00    +0.000 A 
ENDBRANCH  20  24
ENDBRANCH  17  20
ENDBRANCH  10  15
BRANCH  12   4
ATOM      4  O   UNL     1      -8.458  -9.724   8.192  0.00  0.00    -0.390 OA
ATOM     31  H   UNL     1      -8.826 -10.561   7.859  0.00  0.00    +0.210 HD
ENDBRANCH  12   4
BRANCH   7  14
ATOM     14  C   UNL     1      -5.049  -8.395  11.222  0.00  0.00    +0.120 C 
BRANCH  14  16
ATOM     16  C   UNL     1      -3.757  -9.128  11.469  0.00  0.00    -0.030 A 
ATOM     18  C   UNL     1      -3.464  -9.612  12.744  0.00  0.00    +0.051 A 
ATOM     19  C   UNL     1      -2.855  -9.324  10.423  0.00  0.00    +0.005 A 
ATOM     21  C   UNL     1      -2.268 -10.292  12.972  0.00  0.00    +0.130 A 
ATOM     22  C   UNL     1      -1.659 -10.004  10.652  0.00  0.00    +0.004 A 
ATOM     23  C   UNL     1      -1.366 -10.488  11.926  0.00  0.00    +0.046 A 
BRANCH  21   6
ATOM      6  O   UNL     1      -1.981 -10.765  14.216  0.00  0.00    -0.406 OA
BRANCH   6  29
ATOM      1  F   UNL     1      -2.155  -9.319  15.940  0.00  0.00    -0.133 F 
ATOM      2  F   UNL     1      -0.405 -10.626  15.868  0.00  0.00    -0.133 F 
ATOM      3  F   UNL     1      -0.607  -8.950  14.441  0.00  0.00    -0.133 F 
ATOM     29  C   UNL     1      -1.269  -9.918  15.111  0.00  0.00    +0.575 C 
ENDBRANCH   6  29
ENDBRANCH  21   6
ENDBRANCH  14  16
ENDBRANCH   7  14
TORSDOF 8
ENDMDL
MODEL 7
REMARK VINA RESULT:      -2.5      3.057      7.010
REMARK  Name = 26744120
REMARK  8 active torsions:
REMARK  status: ('A' for Active; 'I' for Inactive)
REMARK    1  A    between atoms: O_4  and  C_12
REMARK    2  A    between atoms: O_6  and  C_21
REMARK    3  A    between atoms: O_6  and  C_29
REMARK    4  A    between atoms: N_7  and  C_14
REMARK    5  A    between atoms: C_10  and  C_15
REMARK    6  A    between atoms: C_14  and  C_16
REMARK    7  A    between atoms: C_17  and  C_20
REMARK    8  A    between atoms: C_20  and  C_24
REMARK                            x       y       z     vdW  Elec       q    Type
REMARK                         _______ _______ _______ _____ _____    ______ ____
ROOT
ATOM      7  N   UNL     1       1.031  -0.369  23.594  0.00  0.00    -0.285 NA
ATOM     10  C   UNL     1       1.553   0.926  24.075  0.00  0.00    +0.149 C 
ATOM     11  C   UNL     1       2.382   1.478  22.901  0.00  0.00    +0.061 C 
ATOM     12  C   UNL     1       2.305   0.402  21.824  0.00  0.00    +0.130 C 
ATOM     13  C   UNL     1       1.989  -0.859  22.606  0.00  0.00    +0.116 C 
ENDROOT
BRANCH  10  15
ATOM      5  O   UNL     1       0.525   2.345  25.781  0.00  0.00    -0.336 OA
ATOM      8  N   UNL     1      -0.579   2.312  23.834  0.00  0.00    -0.194 NA
ATOM      9  N   UNL     1      -0.582   3.184  25.948  0.00  0.00    -0.061 NA
ATOM     15  C   UNL     1       0.453   1.872  24.510  0.00  0.00    +0.245 A 
ATOM     17  C   UNL     1      -1.185   3.113  24.758  0.00  0.00    +0.176 A 
BRANCH  17  20
ATOM     20  C   UNL     1      -2.419   3.849  24.466  0.00  0.00    +0.114 C 
BRANCH  20  24
ATOM     24  C   UNL     1      -3.705   3.097  24.795  0.00  0.00    -0.040 A 
ATOM     25  C   UNL     1      -4.646   3.668  25.652  0.00  0.00    +0.004 A 
ATOM     26  C   UNL     1      -3.940   1.839  24.241  0.00  0.00    +0.004 A 
ATOM     27  C   UNL     1      -5.823   2.981  25.954  0.00  0.00    +0.000 A 
ATOM     28  C   UNL     1      -5.116   1.152  24.541  0.00  0.00    +0.000 A 
ATOM     30  C   UNL     1      -6.057   1.723  25.398  0.00  0.00    +0.000 A 
ENDBRANCH  20  24
ENDBRANCH  17  20
ENDBRANCH  10  15
BRANCH  12   4
ATOM      4  O   UNL     1       3.534   0.296  21.132  0.00  0.00    -0.390 OA
ATOM     31  H   UNL     1       3.332   0.030  20.219  0.00  0.00    +0.210 HD
ENDBRANCH  12   4
BRANCH   7  14
ATOM     14  C   UNL     1       0.807  -1.331  24.666  0.00  0.00    +0.120 C 
BRANCH  14  16
ATOM     16  C   UNL     1      -0.631  -1.350  25.111  0.00  0.00    -0.030 A 
ATOM     18  C   UNL     1      -1.542  -2.203  24.488  0.00  0.00    +0.051 A 
ATOM     19  C   UNL     1      -1.052  -0.518  26.148  0.00  0.00    +0.005 A 
ATOM     21  C   UNL     1      -2.874  -2.221  24.901  0.00  0.00    +0.130 A 
ATOM     22  C   UNL     1      -2.383  -0.537  26.562  0.00  0.00    +0.004 A 
ATOM     23  C   UNL     1      -3.295  -1.389  25.938  0.00  0.00    +0.046 A 
BRANCH  21   6
ATOM      6  O   UNL     1      -3.764  -3.053  24.292  0.00  0.00    -0.406 OA
BRANCH   6  29
ATOM      1  F   UNL     1      -4.067  -1.407  22.778  0.00  0.00    -0.133 F 
ATOM      2  F   UNL     1      -4.891  -3.381  22.329  0.00  0.00    -0.133 F 
ATOM      3  F   UNL     1      -5.810  -2.114  23.890  0.00  0.00    -0.133 F 
ATOM     29  C   UNL     1      -4.648  -2.500  23.323  0.00  0.00    +0.575 C 
ENDBRANCH   6  29
ENDBRANCH  21   6
ENDBRANCH  14  16
ENDBRANCH   7  14
TORSDOF 8
ENDMDL
MODEL 8
REMARK VINA RESULT:      -2.2     14.795     17.236
REMARK  Name = 26744120
REMARK  8 active torsions:
REMARK  status: ('A' for Active; 'I' for Inactive)
REMARK    1  A    between atoms: O_4  and  C_12
REMARK    2  A    between atoms: O_6  and  C_21
REMARK    3  A    between atoms: O_6  and  C_29
REMARK    4  A    between atoms: N_7  and  C_14
REMARK    5  A    between atoms: C_10  and  C_15
REMARK    6  A    between atoms: C_14  and  C_16
REMARK    7  A    between atoms: C_17  and  C_20
REMARK    8  A    between atoms: C_20  and  C_24
REMARK                            x       y       z     vdW  Elec       q    Type
REMARK                         _______ _______ _______ _____ _____    ______ ____
ROOT
ATOM      7  N   UNL     1      -3.156 -10.108  15.258  0.00  0.00    -0.285 NA
ATOM     10  C   UNL     1      -4.364 -10.781  14.740  0.00  0.00    +0.149 C 
ATOM     11  C   UNL     1      -5.414 -10.618  15.855  0.00  0.00    +0.061 C 
ATOM     12  C   UNL     1      -4.689  -9.882  16.975  0.00  0.00    +0.130 C 
ATOM     13  C   UNL     1      -3.227 -10.193  16.715  0.00  0.00    +0.116 C 
ENDROOT
BRANCH  10  15
ATOM      5  O   UNL     1      -5.560  -9.071  13.467  0.00  0.00    -0.336 OA
ATOM      8  N   UNL     1      -4.620 -10.661  12.202  0.00  0.00    -0.194 NA
ATOM      9  N   UNL     1      -5.865  -8.744  12.140  0.00  0.00    -0.061 NA
ATOM     15  C   UNL     1      -4.825 -10.212  13.414  0.00  0.00    +0.245 A 
ATOM     17  C   UNL     1      -5.277  -9.728  11.454  0.00  0.00    +0.176 A 
BRANCH  17  20
ATOM     20  C   UNL     1      -5.337  -9.799   9.991  0.00  0.00    +0.114 C 
BRANCH  20  24
ATOM     24  C   UNL     1      -6.675  -9.384   9.384  0.00  0.00    -0.040 A 
ATOM     25  C   UNL     1      -7.788 -10.214   9.519  0.00  0.00    +0.004 A 
ATOM     26  C   UNL     1      -6.784  -8.176   8.695  0.00  0.00    +0.004 A 
ATOM     27  C   UNL     1      -9.011  -9.834   8.965  0.00  0.00    +0.000 A 
ATOM     28  C   UNL     1      -8.007  -7.797   8.142  0.00  0.00    +0.000 A 
ATOM     30  C   UNL     1      -9.120  -8.626   8.277  0.00  0.00    +0.000 A 
ENDBRANCH  20  24
ENDBRANCH  17  20
ENDBRANCH  10  15
BRANCH  12   4
ATOM      4  O   UNL     1      -5.109 -10.355  18.240  0.00  0.00    -0.390 OA
ATOM     31  H   UNL     1      -5.838 -10.981  18.091  0.00  0.00    +0.210 HD
ENDBRANCH  12   4
BRANCH   7  14
ATOM     14  C   UNL     1      -1.917 -10.671  14.735  0.00  0.00    +0.120 C 
BRANCH  14  16
ATOM     16  C   UNL     1      -1.425  -9.919  13.528  0.00  0.00    -0.030 A 
ATOM     18  C   UNL     1      -0.652  -8.769  13.690  0.00  0.00    +0.051 A 
ATOM     19  C   UNL     1      -1.739 -10.373  12.247  0.00  0.00    +0.005 A 
ATOM     21  C   UNL     1      -0.195  -8.073  12.571  0.00  0.00    +0.130 A 
ATOM     22  C   UNL     1      -1.282  -9.677  11.128  0.00  0.00    +0.004 A 
ATOM     23  C   UNL     1      -0.509  -8.527  11.290  0.00  0.00    +0.046 A 
BRANCH  21   6
ATOM      6  O   UNL     1       0.559  -6.950  12.729  0.00  0.00    -0.406 OA
BRANCH   6  29
ATOM      1  F   UNL     1       2.183  -5.682  11.807  0.00  0.00    -0.133 F 
ATOM      2  F   UNL     1       2.782  -7.326  13.118  0.00  0.00    -0.133 F 
ATOM      3  F   UNL     1       1.964  -7.741  11.107  0.00  0.00    -0.133 F 
ATOM     29  C   UNL     1       1.877  -6.943  12.192  0.00  0.00    +0.575 C 
ENDBRANCH   6  29
ENDBRANCH  21   6
ENDBRANCH  14  16
ENDBRANCH   7  14
TORSDOF 8
ENDMDL
MODEL 9
REMARK VINA RESULT:      -2.1      2.605      4.667
REMARK  Name = 26744120
REMARK  8 active torsions:
REMARK  status: ('A' for Active; 'I' for Inactive)
REMARK    1  A    between atoms: O_4  and  C_12
REMARK    2  A    between atoms: O_6  and  C_21
REMARK    3  A    between atoms: O_6  and  C_29
REMARK    4  A    between atoms: N_7  and  C_14
REMARK    5  A    between atoms: C_10  and  C_15
REMARK    6  A    between atoms: C_14  and  C_16
REMARK    7  A    between atoms: C_17  and  C_20
REMARK    8  A    between atoms: C_20  and  C_24
REMARK                            x       y       z     vdW  Elec       q    Type
REMARK                         _______ _______ _______ _____ _____    ______ ____
ROOT
ATOM      7  N   UNL     1      -2.549   3.563  24.344  0.00  0.00    -0.285 NA
ATOM     10  C   UNL     1      -1.239   3.456  23.672  0.00  0.00    +0.149 C 
ATOM     11  C   UNL     1      -0.385   4.578  24.293  0.00  0.00    +0.061 C 
ATOM     12  C   UNL     1      -1.317   5.289  25.267  0.00  0.00    +0.130 C 
ATOM     13  C   UNL     1      -2.700   4.962  24.737  0.00  0.00    +0.116 C 
ENDROOT
BRANCH  10  15
ATOM      5  O   UNL     1      -0.925   1.405  24.965  0.00  0.00    -0.336 OA
ATOM      8  N   UNL     1       0.204   1.448  23.031  0.00  0.00    -0.194 NA
ATOM      9  N   UNL     1      -0.236   0.189  24.889  0.00  0.00    -0.061 NA
ATOM     15  C   UNL     1      -0.611   2.087  23.833  0.00  0.00    +0.245 A 
ATOM     17  C   UNL     1       0.406   0.289  23.722  0.00  0.00    +0.176 A 
BRANCH  17  20
ATOM     20  C   UNL     1       1.275  -0.780  23.218  0.00  0.00    +0.114 C 
BRANCH  20  24
ATOM     24  C   UNL     1       2.768  -0.471  23.275  0.00  0.00    -0.040 A 
ATOM     25  C   UNL     1       3.651  -1.399  23.829  0.00  0.00    +0.004 A 
ATOM     26  C   UNL     1       3.250   0.738  22.775  0.00  0.00    +0.004 A 
ATOM     27  C   UNL     1       5.016  -1.117  23.881  0.00  0.00    +0.000 A 
ATOM     28  C   UNL     1       4.616   1.019  22.827  0.00  0.00    +0.000 A 
ATOM     30  C   UNL     1       5.498   0.092  23.380  0.00  0.00    +0.000 A 
ENDBRANCH  20  24
ENDBRANCH  17  20
ENDBRANCH  10  15
BRANCH  12   4
ATOM      4  O   UNL     1      -1.072   6.681  25.271  0.00  0.00    -0.390 OA
ATOM     31  H   UNL     1      -1.548   7.064  24.514  0.00  0.00    +0.210 HD
ENDBRANCH  12   4
BRANCH   7  14
ATOM     14  C   UNL     1      -3.657   3.102  23.517  0.00  0.00    +0.120 C 
BRANCH  14  16
ATOM     16  C   UNL     1      -4.275   1.840  24.057  0.00  0.00    -0.030 A 
ATOM     18  C   UNL     1      -3.750   0.599  23.700  0.00  0.00    +0.051 A 
ATOM     19  C   UNL     1      -5.371   1.913  24.917  0.00  0.00    +0.005 A 
ATOM     21  C   UNL     1      -4.321  -0.570  24.202  0.00  0.00    +0.130 A 
ATOM     22  C   UNL     1      -5.942   0.744  25.419  0.00  0.00    +0.004 A 
ATOM     23  C   UNL     1      -5.417  -0.498  25.061  0.00  0.00    +0.046 A 
BRANCH  21   6
ATOM      6  O   UNL     1      -3.808  -1.782  23.852  0.00  0.00    -0.406 OA
BRANCH   6  29
ATOM      1  F   UNL     1      -2.638  -1.575  25.772  0.00  0.00    -0.133 F 
ATOM      2  F   UNL     1      -3.522  -3.520  25.311  0.00  0.00    -0.133 F 
ATOM      3  F   UNL     1      -1.778  -2.787  24.169  0.00  0.00    -0.133 F 
ATOM     29  C   UNL     1      -2.935  -2.433  24.768  0.00  0.00    +0.575 C 
ENDBRANCH   6  29
ENDBRANCH  21   6
ENDBRANCH  14  16
ENDBRANCH   7  14
TORSDOF 8
ENDMDL
MODEL 10
REMARK VINA RESULT:      -2.1      2.405      6.413
REMARK  Name = 26744120
REMARK  8 active torsions:
REMARK  status: ('A' for Active; 'I' for Inactive)
REMARK    1  A    between atoms: O_4  and  C_12
REMARK    2  A    between atoms: O_6  and  C_21
REMARK    3  A    between atoms: O_6  and  C_29
REMARK    4  A    between atoms: N_7  and  C_14
REMARK    5  A    between atoms: C_10  and  C_15
REMARK    6  A    between atoms: C_14  and  C_16
REMARK    7  A    between atoms: C_17  and  C_20
REMARK    8  A    between atoms: C_20  and  C_24
REMARK                            x       y       z     vdW  Elec       q    Type
REMARK                         _______ _______ _______ _____ _____    ______ ____
ROOT
ATOM      7  N   UNL     1       0.754  -0.108  23.538  0.00  0.00    -0.285 NA
ATOM     10  C   UNL     1       1.400   0.988  24.287  0.00  0.00    +0.149 C 
ATOM     11  C   UNL     1       2.538   1.474  23.370  0.00  0.00    +0.061 C 
ATOM     12  C   UNL     1       2.480   0.561  22.152  0.00  0.00    +0.130 C 
ATOM     13  C   UNL     1       1.782  -0.681  22.673  0.00  0.00    +0.116 C 
ENDROOT
BRANCH  10  15
ATOM      5  O   UNL     1       0.411   3.179  23.837  0.00  0.00    -0.336 OA
ATOM      8  N   UNL     1      -0.404   2.165  25.660  0.00  0.00    -0.194 NA
ATOM      9  N   UNL     1      -0.545   4.050  24.372  0.00  0.00    -0.061 NA
ATOM     15  C   UNL     1       0.432   2.094  24.655  0.00  0.00    +0.245 A 
ATOM     17  C   UNL     1      -0.980   3.383  25.445  0.00  0.00    +0.176 A 
BRANCH  17  20
ATOM     20  C   UNL     1      -2.011   3.929  26.334  0.00  0.00    +0.114 C 
BRANCH  20  24
ATOM     24  C   UNL     1      -3.439   3.520  25.983  0.00  0.00    -0.040 A 
ATOM     25  C   UNL     1      -3.812   2.177  26.036  0.00  0.00    +0.004 A 
ATOM     26  C   UNL     1      -4.370   4.488  25.610  0.00  0.00    +0.004 A 
ATOM     27  C   UNL     1      -5.117   1.802  25.716  0.00  0.00    +0.000 A 
ATOM     28  C   UNL     1      -5.676   4.115  25.291  0.00  0.00    +0.000 A 
ATOM     30  C   UNL     1      -6.049   2.771  25.344  0.00  0.00    +0.000 A 
ENDBRANCH  20  24
ENDBRANCH  17  20
ENDBRANCH  10  15
BRANCH  12   4
ATOM      4  O   UNL     1       3.780   0.272  21.678  0.00  0.00    -0.390 OA
ATOM     31  H   UNL     1       4.301   1.091  21.739  0.00  0.00    +0.210 HD
ENDBRANCH  12   4
BRANCH   7  14
ATOM     14  C   UNL     1       0.141  -1.110  24.403  0.00  0.00    +0.120 C 
BRANCH  14  16
ATOM     16  C   UNL     1      -1.357  -1.130  24.265  0.00  0.00    -0.030 A 
ATOM     18  C   UNL     1      -2.014  -0.071  23.637  0.00  0.00    +0.051 A 
ATOM     19  C   UNL     1      -2.089  -2.208  24.763  0.00  0.00    +0.005 A 
ATOM     21  C   UNL     1      -3.403  -0.091  23.508  0.00  0.00    +0.130 A 
ATOM     22  C   UNL     1      -3.478  -2.227  24.634  0.00  0.00    +0.004 A 
ATOM     23  C   UNL     1      -4.134  -1.169  24.007  0.00  0.00    +0.046 A 
BRANCH  21   6
ATOM      6  O   UNL     1      -4.044   0.942  22.896  0.00  0.00    -0.406 OA
BRANCH   6  29
ATOM      1  F   UNL     1      -4.027   3.172  22.543  0.00  0.00    -0.133 F 
ATOM      2  F   UNL     1      -2.188   2.230  23.254  0.00  0.00    -0.133 F 
ATOM      3  F   UNL     1      -2.878   1.906  21.180  0.00  0.00    -0.133 F 
ATOM     29  C   UNL     1      -3.268   2.054  22.464  0.00  0.00    +0.575 C 
ENDBRANCH   6  29
ENDBRANCH  21   6
ENDBRANCH  14  16
ENDBRANCH   7  14
TORSDOF 8
ENDMDL
