MODEL 1
REMARK VINA RESULT:      -6.4      0.000      0.000
REMARK  Name = 75536721
REMARK  10 active torsions:
REMARK  status: ('A' for Active; 'I' for Inactive)
REMARK    1  A    between atoms: O_2  and  C_8
REMARK    2  A    between atoms: N_4  and  C_7
REMARK    3  A    between atoms: N_4  and  C_12
REMARK    4  A    between atoms: N_5  and  C_11
REMARK    5  A    between atoms: N_6  and  C_16
REMARK    6  A    between atoms: C_9  and  C_11
REMARK    7  A    between atoms: C_12  and  C_13
REMARK    8  A    between atoms: C_12  and  C_14
REMARK    9  A    between atoms: C_16  and  C_17
REMARK   10  A    between atoms: C_16  and  C_18
REMARK                            x       y       z     vdW  Elec       q    Type
REMARK                         _______ _______ _______ _____ _____    ______ ____
ROOT
ATOM      1  O   UNL     1      -4.320   3.788  25.966  0.00  0.00    -0.371 OA
ATOM      7  C   UNL     1      -2.319   3.951  24.697  0.00  0.00    +0.111 C 
ATOM      8  C   UNL     1      -3.149   2.799  24.164  0.00  0.00    +0.164 C 
ATOM      9  C   UNL     1      -4.532   3.167  24.687  0.00  0.00    +0.165 C 
ATOM     10  C   UNL     1      -2.934   4.155  26.072  0.00  0.00    +0.181 C 
ENDROOT
BRANCH   8   2
ATOM      2  O   UNL     1      -3.124   2.714  22.752  0.00  0.00    -0.388 OA
ATOM     20  H   UNL     1      -3.918   2.234  22.460  0.00  0.00    +0.210 HD
ENDBRANCH   8   2
BRANCH   7   4
ATOM      4  N   UNL     1      -0.894   3.669  24.750  0.00  0.00    -0.307 NA
ATOM     19  H   UNL     1      -0.423   4.350  25.344  0.00  0.00    +0.123 HD
BRANCH   4  12
ATOM     12  C   UNL     1      -0.643   2.321  25.246  0.00  0.00    +0.048 C 
ATOM     13  C   UNL     1       0.111   2.375  26.568  0.00  0.00    +0.023 C 
ATOM     14  C   UNL     1       0.117   1.503  24.209  0.00  0.00    +0.023 C 
ENDBRANCH   4  12
ENDBRANCH   7   4
BRANCH   9  11
ATOM     11  C   UNL     1      -5.453   1.970  24.843  0.00  0.00    +0.140 C 
BRANCH  11   5
ATOM      3  O   UNL     1      -4.089  -0.249  23.601  0.00  0.00    -0.253 OA
ATOM      5  N   UNL     1      -4.788   0.884  25.504  0.00  0.00    -0.297 N 
ATOM      6  N   UNL     1      -3.588  -1.076  25.709  0.00  0.00    -0.297 N 
ATOM     15  C   UNL     1      -4.148  -0.158  24.826  0.00  0.00    +0.300 C 
ATOM     21  H   UNL     1      -4.797   0.864  26.520  0.00  0.00    +0.150 HD
ATOM     22  H   UNL     1      -3.624  -0.873  26.705  0.00  0.00    +0.150 HD
BRANCH   6  16
ATOM     16  C   UNL     1      -2.868  -2.248  25.268  0.00  0.00    +0.068 C 
ATOM     17  C   UNL     1      -1.504  -1.855  24.717  0.00  0.00    +0.027 C 
ATOM     18  C   UNL     1      -3.682  -3.017  24.235  0.00  0.00    +0.027 C 
ENDBRANCH   6  16
ENDBRANCH  11   5
ENDBRANCH   9  11
TORSDOF 6
ENDMDL
MODEL 2
REMARK VINA RESULT:      -5.9      2.049      5.106
REMARK  Name = 75536721
REMARK  10 active torsions:
REMARK  status: ('A' for Active; 'I' for Inactive)
REMARK    1  A    between atoms: O_2  and  C_8
REMARK    2  A    between atoms: N_4  and  C_7
REMARK    3  A    between atoms: N_4  and  C_12
REMARK    4  A    between atoms: N_5  and  C_11
REMARK    5  A    between atoms: N_6  and  C_16
REMARK    6  A    between atoms: C_9  and  C_11
REMARK    7  A    between atoms: C_12  and  C_13
REMARK    8  A    between atoms: C_12  and  C_14
REMARK    9  A    between atoms: C_16  and  C_17
REMARK   10  A    between atoms: C_16  and  C_18
REMARK                            x       y       z     vdW  Elec       q    Type
REMARK                         _______ _______ _______ _____ _____    ______ ____
ROOT
ATOM      1  O   UNL     1      -0.692   1.027  26.063  0.00  0.00    -0.371 OA
ATOM      7  C   UNL     1      -0.653  -0.926  24.712  0.00  0.00    +0.111 C 
ATOM      8  C   UNL     1      -0.486   0.293  23.824  0.00  0.00    +0.164 C 
ATOM      9  C   UNL     1      -0.010   1.329  24.834  0.00  0.00    +0.165 C 
ATOM     10  C   UNL     1      -1.231  -0.303  25.973  0.00  0.00    +0.181 C 
ENDROOT
BRANCH   8   2
ATOM      2  O   UNL     1       0.459   0.091  22.791  0.00  0.00    -0.388 OA
ATOM     20  H   UNL     1       1.335  -0.029  23.196  0.00  0.00    +0.210 HD
ENDBRANCH   8   2
BRANCH   7   4
ATOM      4  N   UNL     1      -1.512  -1.951  24.142  0.00  0.00    -0.307 NA
ATOM     19  H   UNL     1      -1.130  -2.876  24.335  0.00  0.00    +0.123 HD
BRANCH   4  12
ATOM     12  C   UNL     1      -2.867  -1.854  24.669  0.00  0.00    +0.048 C 
ATOM     13  C   UNL     1      -3.428  -3.242  24.947  0.00  0.00    +0.023 C 
ATOM     14  C   UNL     1      -3.761  -1.080  23.707  0.00  0.00    +0.023 C 
ENDBRANCH   4  12
ENDBRANCH   7   4
BRANCH   9  11
ATOM     11  C   UNL     1      -0.313   2.757  24.417  0.00  0.00    +0.140 C 
BRANCH  11   5
ATOM      3  O   UNL     1      -3.033   2.293  23.572  0.00  0.00    -0.253 OA
ATOM      5  N   UNL     1      -1.508   3.242  25.045  0.00  0.00    -0.297 N 
ATOM      6  N   UNL     1      -3.770   3.564  25.367  0.00  0.00    -0.297 N 
ATOM     15  C   UNL     1      -2.795   2.971  24.569  0.00  0.00    +0.300 C 
ATOM     21  H   UNL     1      -1.412   3.826  25.870  0.00  0.00    +0.150 HD
ATOM     22  H   UNL     1      -3.476   4.042  26.214  0.00  0.00    +0.150 HD
BRANCH   6  16
ATOM     16  C   UNL     1      -5.183   3.440  25.097  0.00  0.00    +0.068 C 
ATOM     17  C   UNL     1      -5.932   4.658  25.624  0.00  0.00    +0.027 C 
ATOM     18  C   UNL     1      -5.731   2.152  25.699  0.00  0.00    +0.027 C 
ENDBRANCH   6  16
ENDBRANCH  11   5
ENDBRANCH   9  11
TORSDOF 6
ENDMDL
MODEL 3
REMARK VINA RESULT:      -5.6      2.019      4.796
REMARK  Name = 75536721
REMARK  10 active torsions:
REMARK  status: ('A' for Active; 'I' for Inactive)
REMARK    1  A    between atoms: O_2  and  C_8
REMARK    2  A    between atoms: N_4  and  C_7
REMARK    3  A    between atoms: N_4  and  C_12
REMARK    4  A    between atoms: N_5  and  C_11
REMARK    5  A    between atoms: N_6  and  C_16
REMARK    6  A    between atoms: C_9  and  C_11
REMARK    7  A    between atoms: C_12  and  C_13
REMARK    8  A    between atoms: C_12  and  C_14
REMARK    9  A    between atoms: C_16  and  C_17
REMARK   10  A    between atoms: C_16  and  C_18
REMARK                            x       y       z     vdW  Elec       q    Type
REMARK                         _______ _______ _______ _____ _____    ______ ____
ROOT
ATOM      1  O   UNL     1      -2.233   2.602  23.223  0.00  0.00    -0.371 OA
ATOM      7  C   UNL     1      -4.163   1.672  24.248  0.00  0.00    +0.111 C 
ATOM      8  C   UNL     1      -3.341   2.390  25.302  0.00  0.00    +0.164 C 
ATOM      9  C   UNL     1      -2.505   3.323  24.436  0.00  0.00    +0.165 C 
ATOM     10  C   UNL     1      -3.138   1.487  23.141  0.00  0.00    +0.181 C 
ENDROOT
BRANCH   8   2
ATOM      2  O   UNL     1      -4.141   3.103  26.227  0.00  0.00    -0.388 OA
ATOM     20  H   UNL     1      -4.316   2.525  26.989  0.00  0.00    +0.210 HD
ENDBRANCH   8   2
BRANCH   7   4
ATOM      4  N   UNL     1      -4.733   0.416  24.707  0.00  0.00    -0.307 NA
ATOM     19  H   UNL     1      -5.557   0.181  24.154  0.00  0.00    +0.123 HD
BRANCH   4  12
ATOM     12  C   UNL     1      -3.758  -0.664  24.627  0.00  0.00    +0.048 C 
ATOM     13  C   UNL     1      -4.331  -1.839  23.845  0.00  0.00    +0.023 C 
ATOM     14  C   UNL     1      -3.318  -1.092  26.022  0.00  0.00    +0.023 C 
ENDBRANCH   4  12
ENDBRANCH   7   4
BRANCH   9  11
ATOM     11  C   UNL     1      -1.199   3.739  25.090  0.00  0.00    +0.140 C 
BRANCH  11   5
ATOM      3  O   UNL     1      -0.076   1.081  25.020  0.00  0.00    -0.253 OA
ATOM      5  N   UNL     1      -0.069   3.297  24.325  0.00  0.00    -0.297 N 
ATOM      6  N   UNL     1       1.519   1.833  23.513  0.00  0.00    -0.297 N 
ATOM     15  C   UNL     1       0.415   1.986  24.347  0.00  0.00    +0.300 C 
ATOM     21  H   UNL     1       0.414   3.979  23.747  0.00  0.00    +0.150 HD
ATOM     22  H   UNL     1       1.803   2.622  22.939  0.00  0.00    +0.150 HD
BRANCH   6  16
ATOM     16  C   UNL     1       2.210   0.575  23.352  0.00  0.00    +0.068 C 
ATOM     17  C   UNL     1       3.614   0.809  22.809  0.00  0.00    +0.027 C 
ATOM     18  C   UNL     1       1.416  -0.359  22.447  0.00  0.00    +0.027 C 
ENDBRANCH   6  16
ENDBRANCH  11   5
ENDBRANCH   9  11
TORSDOF 6
ENDMDL
MODEL 4
REMARK VINA RESULT:      -5.2      0.991      1.293
REMARK  Name = 75536721
REMARK  10 active torsions:
REMARK  status: ('A' for Active; 'I' for Inactive)
REMARK    1  A    between atoms: O_2  and  C_8
REMARK    2  A    between atoms: N_4  and  C_7
REMARK    3  A    between atoms: N_4  and  C_12
REMARK    4  A    between atoms: N_5  and  C_11
REMARK    5  A    between atoms: N_6  and  C_16
REMARK    6  A    between atoms: C_9  and  C_11
REMARK    7  A    between atoms: C_12  and  C_13
REMARK    8  A    between atoms: C_12  and  C_14
REMARK    9  A    between atoms: C_16  and  C_17
REMARK   10  A    between atoms: C_16  and  C_18
REMARK                            x       y       z     vdW  Elec       q    Type
REMARK                         _______ _______ _______ _____ _____    ______ ____
ROOT
ATOM      1  O   UNL     1      -4.638   3.234  26.388  0.00  0.00    -0.371 OA
ATOM      7  C   UNL     1      -2.849   4.091  25.084  0.00  0.00    +0.111 C 
ATOM      8  C   UNL     1      -3.555   3.003  24.298  0.00  0.00    +0.164 C 
ATOM      9  C   UNL     1      -4.905   2.963  25.002  0.00  0.00    +0.165 C 
ATOM     10  C   UNL     1      -3.320   3.796  26.499  0.00  0.00    +0.181 C 
ENDROOT
BRANCH   8   2
ATOM      2  O   UNL     1      -3.685   3.317  22.925  0.00  0.00    -0.388 OA
ATOM     20  H   UNL     1      -3.036   2.790  22.428  0.00  0.00    +0.210 HD
ENDBRANCH   8   2
BRANCH   7   4
ATOM      4  N   UNL     1      -1.401   4.061  24.951  0.00  0.00    -0.307 NA
ATOM     19  H   UNL     1      -0.971   4.666  25.651  0.00  0.00    +0.123 HD
BRANCH   4  12
ATOM     12  C   UNL     1      -0.889   2.703  25.088  0.00  0.00    +0.048 C 
ATOM     13  C   UNL     1      -0.094   2.565  26.380  0.00  0.00    +0.023 C 
ATOM     14  C   UNL     1      -0.044   2.326  23.877  0.00  0.00    +0.023 C 
ENDBRANCH   4  12
ENDBRANCH   7   4
BRANCH   9  11
ATOM     11  C   UNL     1      -5.613   1.626  24.867  0.00  0.00    +0.140 C 
BRANCH  11   5
ATOM      3  O   UNL     1      -4.025  -0.507  25.989  0.00  0.00    -0.253 OA
ATOM      5  N   UNL     1      -4.807   0.679  24.151  0.00  0.00    -0.297 N 
ATOM      6  N   UNL     1      -3.375  -1.104  23.844  0.00  0.00    -0.297 N 
ATOM     15  C   UNL     1      -4.064  -0.329  24.773  0.00  0.00    +0.300 C 
ATOM     21  H   UNL     1      -4.763   0.756  23.139  0.00  0.00    +0.150 HD
ATOM     22  H   UNL     1      -3.532  -0.926  22.855  0.00  0.00    +0.150 HD
BRANCH   6  16
ATOM     16  C   UNL     1      -2.532  -2.214  24.222  0.00  0.00    +0.068 C 
ATOM     17  C   UNL     1      -3.358  -3.301  24.897  0.00  0.00    +0.027 C 
ATOM     18  C   UNL     1      -1.399  -1.741  25.124  0.00  0.00    +0.027 C 
ENDBRANCH   6  16
ENDBRANCH  11   5
ENDBRANCH   9  11
TORSDOF 6
ENDMDL
MODEL 5
REMARK VINA RESULT:      -5.0      1.786      4.476
REMARK  Name = 75536721
REMARK  10 active torsions:
REMARK  status: ('A' for Active; 'I' for Inactive)
REMARK    1  A    between atoms: O_2  and  C_8
REMARK    2  A    between atoms: N_4  and  C_7
REMARK    3  A    between atoms: N_4  and  C_12
REMARK    4  A    between atoms: N_5  and  C_11
REMARK    5  A    between atoms: N_6  and  C_16
REMARK    6  A    between atoms: C_9  and  C_11
REMARK    7  A    between atoms: C_12  and  C_13
REMARK    8  A    between atoms: C_12  and  C_14
REMARK    9  A    between atoms: C_16  and  C_17
REMARK   10  A    between atoms: C_16  and  C_18
REMARK                            x       y       z     vdW  Elec       q    Type
REMARK                         _______ _______ _______ _____ _____    ______ ____
ROOT
ATOM      1  O   UNL     1      -1.372  -2.022  23.535  0.00  0.00    -0.371 OA
ATOM      7  C   UNL     1       0.030  -0.472  24.661  0.00  0.00    +0.111 C 
ATOM      8  C   UNL     1      -1.218  -0.702  25.491  0.00  0.00    +0.164 C 
ATOM      9  C   UNL     1      -1.699  -2.036  24.934  0.00  0.00    +0.165 C 
ATOM     10  C   UNL     1      -0.417  -0.974  23.298  0.00  0.00    +0.181 C 
ENDROOT
BRANCH   8   2
ATOM      2  O   UNL     1      -0.947  -0.776  26.878  0.00  0.00    -0.388 OA
ATOM     20  H   UNL     1      -0.068  -0.393  27.039  0.00  0.00    +0.210 HD
ENDBRANCH   8   2
BRANCH   7   4
ATOM      4  N   UNL     1       0.469   0.914  24.639  0.00  0.00    -0.307 NA
ATOM     19  H   UNL     1       0.826   1.154  23.714  0.00  0.00    +0.123 HD
BRANCH   4  12
ATOM     12  C   UNL     1      -0.618   1.815  25.000  0.00  0.00    +0.048 C 
ATOM     13  C   UNL     1      -0.939   2.749  23.840  0.00  0.00    +0.023 C 
ATOM     14  C   UNL     1      -0.267   2.599  26.259  0.00  0.00    +0.023 C 
ENDBRANCH   4  12
ENDBRANCH   7   4
BRANCH   9  11
ATOM     11  C   UNL     1      -3.190  -2.258  25.111  0.00  0.00    +0.140 C 
BRANCH  11   5
ATOM      3  O   UNL     1      -3.992  -0.014  23.483  0.00  0.00    -0.253 OA
ATOM      5  N   UNL     1      -3.847  -1.061  25.552  0.00  0.00    -0.297 N 
ATOM      6  N   UNL     1      -4.826   1.022  25.384  0.00  0.00    -0.297 N 
ATOM     15  C   UNL     1      -4.203  -0.015  24.695  0.00  0.00    +0.300 C 
ATOM     21  H   UNL     1      -4.051  -0.963  26.542  0.00  0.00    +0.150 HD
ATOM     22  H   UNL     1      -5.024   0.895  26.372  0.00  0.00    +0.150 HD
BRANCH   6  16
ATOM     16  C   UNL     1      -5.293   2.224  24.734  0.00  0.00    +0.068 C 
ATOM     17  C   UNL     1      -4.129   2.963  24.086  0.00  0.00    +0.027 C 
ATOM     18  C   UNL     1      -6.031   3.115  25.725  0.00  0.00    +0.027 C 
ENDBRANCH   6  16
ENDBRANCH  11   5
ENDBRANCH   9  11
TORSDOF 6
ENDMDL
MODEL 6
REMARK VINA RESULT:      -4.9      1.758      3.928
REMARK  Name = 75536721
REMARK  10 active torsions:
REMARK  status: ('A' for Active; 'I' for Inactive)
REMARK    1  A    between atoms: O_2  and  C_8
REMARK    2  A    between atoms: N_4  and  C_7
REMARK    3  A    between atoms: N_4  and  C_12
REMARK    4  A    between atoms: N_5  and  C_11
REMARK    5  A    between atoms: N_6  and  C_16
REMARK    6  A    between atoms: C_9  and  C_11
REMARK    7  A    between atoms: C_12  and  C_13
REMARK    8  A    between atoms: C_12  and  C_14
REMARK    9  A    between atoms: C_16  and  C_17
REMARK   10  A    between atoms: C_16  and  C_18
REMARK                            x       y       z     vdW  Elec       q    Type
REMARK                         _______ _______ _______ _____ _____    ______ ____
ROOT
ATOM      1  O   UNL     1      -1.511   3.189  23.500  0.00  0.00    -0.371 OA
ATOM      7  C   UNL     1      -3.748   3.490  24.236  0.00  0.00    +0.111 C 
ATOM      8  C   UNL     1      -2.844   3.357  25.446  0.00  0.00    +0.164 C 
ATOM      9  C   UNL     1      -1.490   3.706  24.840  0.00  0.00    +0.165 C 
ATOM     10  C   UNL     1      -2.873   2.904  23.139  0.00  0.00    +0.181 C 
ENDROOT
BRANCH   8   2
ATOM      2  O   UNL     1      -3.197   4.240  26.493  0.00  0.00    -0.388 OA
ATOM     20  H   UNL     1      -2.571   4.985  26.489  0.00  0.00    +0.210 HD
ENDBRANCH   8   2
BRANCH   7   4
ATOM      4  N   UNL     1      -5.019   2.797  24.377  0.00  0.00    -0.307 NA
ATOM     19  H   UNL     1      -5.303   2.399  23.483  0.00  0.00    +0.123 HD
BRANCH   4  12
ATOM     12  C   UNL     1      -4.935   1.745  25.383  0.00  0.00    +0.048 C 
ATOM     13  C   UNL     1      -4.674   0.399  24.720  0.00  0.00    +0.023 C 
ATOM     14  C   UNL     1      -6.204   1.709  26.227  0.00  0.00    +0.023 C 
ENDBRANCH   4  12
ENDBRANCH   7   4
BRANCH   9  11
ATOM     11  C   UNL     1      -0.320   3.110  25.603  0.00  0.00    +0.140 C 
BRANCH  11   5
ATOM      3  O   UNL     1      -0.041   0.839  23.844  0.00  0.00    -0.253 OA
ATOM      5  N   UNL     1      -0.555   1.732  25.926  0.00  0.00    -0.297 N 
ATOM      6  N   UNL     1      -0.690  -0.547  25.587  0.00  0.00    -0.297 N 
ATOM     15  C   UNL     1      -0.396   0.686  25.011  0.00  0.00    +0.300 C 
ATOM     21  H   UNL     1      -0.867   1.507  26.866  0.00  0.00    +0.150 HD
ATOM     22  H   UNL     1      -0.902  -0.577  26.580  0.00  0.00    +0.150 HD
BRANCH   6  16
ATOM     16  C   UNL     1      -0.606  -1.791  24.858  0.00  0.00    +0.068 C 
ATOM     17  C   UNL     1      -1.998  -2.367  24.632  0.00  0.00    +0.027 C 
ATOM     18  C   UNL     1       0.288  -2.781  25.594  0.00  0.00    +0.027 C 
ENDBRANCH   6  16
ENDBRANCH  11   5
ENDBRANCH   9  11
TORSDOF 6
ENDMDL
MODEL 7
REMARK VINA RESULT:      -4.8      2.179      3.800
REMARK  Name = 75536721
REMARK  10 active torsions:
REMARK  status: ('A' for Active; 'I' for Inactive)
REMARK    1  A    between atoms: O_2  and  C_8
REMARK    2  A    between atoms: N_4  and  C_7
REMARK    3  A    between atoms: N_4  and  C_12
REMARK    4  A    between atoms: N_5  and  C_11
REMARK    5  A    between atoms: N_6  and  C_16
REMARK    6  A    between atoms: C_9  and  C_11
REMARK    7  A    between atoms: C_12  and  C_13
REMARK    8  A    between atoms: C_12  and  C_14
REMARK    9  A    between atoms: C_16  and  C_17
REMARK   10  A    between atoms: C_16  and  C_18
REMARK                            x       y       z     vdW  Elec       q    Type
REMARK                         _______ _______ _______ _____ _____    ______ ____
ROOT
ATOM      1  O   UNL     1      -0.421   3.381  23.633  0.00  0.00    -0.371 OA
ATOM      7  C   UNL     1      -1.588   3.801  25.658  0.00  0.00    +0.111 C 
ATOM      8  C   UNL     1      -0.883   2.462  25.763  0.00  0.00    +0.164 C 
ATOM      9  C   UNL     1       0.181   2.605  24.682  0.00  0.00    +0.165 C 
ATOM     10  C   UNL     1      -1.600   4.019  24.154  0.00  0.00    +0.181 C 
ENDROOT
BRANCH   8   2
ATOM      2  O   UNL     1      -0.313   2.242  27.039  0.00  0.00    -0.388 OA
ATOM     20  H   UNL     1      -0.765   1.485  27.449  0.00  0.00    +0.210 HD
ENDBRANCH   8   2
BRANCH   7   4
ATOM      4  N   UNL     1      -2.919   3.807  26.242  0.00  0.00    -0.307 NA
ATOM     19  H   UNL     1      -3.117   4.718  26.655  0.00  0.00    +0.123 HD
BRANCH   4  12
ATOM     12  C   UNL     1      -3.932   3.485  25.244  0.00  0.00    +0.048 C 
ATOM     13  C   UNL     1      -5.253   4.158  25.594  0.00  0.00    +0.023 C 
ATOM     14  C   UNL     1      -4.098   1.975  25.120  0.00  0.00    +0.023 C 
ENDBRANCH   4  12
ENDBRANCH   7   4
BRANCH   9  11
ATOM     11  C   UNL     1       0.657   1.274  24.128  0.00  0.00    +0.140 C 
BRANCH  11   5
ATOM      3  O   UNL     1      -0.645  -0.624  25.868  0.00  0.00    -0.253 OA
ATOM      5  N   UNL     1      -0.448   0.419  23.802  0.00  0.00    -0.297 N 
ATOM      6  N   UNL     1      -2.077  -1.181  24.130  0.00  0.00    -0.297 N 
ATOM     15  C   UNL     1      -1.024  -0.478  24.707  0.00  0.00    +0.300 C 
ATOM     21  H   UNL     1      -0.821   0.459  22.859  0.00  0.00    +0.150 HD
ATOM     22  H   UNL     1      -2.364  -0.934  23.187  0.00  0.00    +0.150 HD
BRANCH   6  16
ATOM     16  C   UNL     1      -2.844  -2.171  24.849  0.00  0.00    +0.068 C 
ATOM     17  C   UNL     1      -3.897  -2.789  23.938  0.00  0.00    +0.027 C 
ATOM     18  C   UNL     1      -3.479  -1.557  26.090  0.00  0.00    +0.027 C 
ENDBRANCH   6  16
ENDBRANCH  11   5
ENDBRANCH   9  11
TORSDOF 6
ENDMDL
MODEL 8
REMARK VINA RESULT:      -4.2     14.544     16.296
REMARK  Name = 75536721
REMARK  10 active torsions:
REMARK  status: ('A' for Active; 'I' for Inactive)
REMARK    1  A    between atoms: O_2  and  C_8
REMARK    2  A    between atoms: N_4  and  C_7
REMARK    3  A    between atoms: N_4  and  C_12
REMARK    4  A    between atoms: N_5  and  C_11
REMARK    5  A    between atoms: N_6  and  C_16
REMARK    6  A    between atoms: C_9  and  C_11
REMARK    7  A    between atoms: C_12  and  C_13
REMARK    8  A    between atoms: C_12  and  C_14
REMARK    9  A    between atoms: C_16  and  C_17
REMARK   10  A    between atoms: C_16  and  C_18
REMARK                            x       y       z     vdW  Elec       q    Type
REMARK                         _______ _______ _______ _____ _____    ______ ____
ROOT
ATOM      1  O   UNL     1      -3.840 -10.634  14.955  0.00  0.00    -0.371 OA
ATOM      7  C   UNL     1      -4.561 -10.073  12.763  0.00  0.00    +0.111 C 
ATOM      8  C   UNL     1      -5.778 -10.268  13.648  0.00  0.00    +0.164 C 
ATOM      9  C   UNL     1      -5.166 -10.084  15.031  0.00  0.00    +0.165 C 
ATOM     10  C   UNL     1      -3.484 -10.781  13.570  0.00  0.00    +0.181 C 
ENDROOT
BRANCH   8   2
ATOM      2  O   UNL     1      -6.797  -9.322  13.392  0.00  0.00    -0.388 OA
ATOM     20  H   UNL     1      -7.244  -9.118  14.231  0.00  0.00    +0.210 HD
ENDBRANCH   8   2
BRANCH   7   4
ATOM      4  N   UNL     1      -4.718 -10.621  11.425  0.00  0.00    -0.307 NA
ATOM     19  H   UNL     1      -5.685 -10.908  11.275  0.00  0.00    +0.123 HD
BRANCH   4  12
ATOM     12  C   UNL     1      -4.326  -9.650  10.411  0.00  0.00    +0.048 C 
ATOM     13  C   UNL     1      -2.820  -9.430  10.442  0.00  0.00    +0.023 C 
ATOM     14  C   UNL     1      -5.080  -8.340  10.605  0.00  0.00    +0.023 C 
ENDBRANCH   4  12
ENDBRANCH   7   4
BRANCH   9  11
ATOM     11  C   UNL     1      -5.949 -10.781  16.130  0.00  0.00    +0.140 C 
BRANCH  11   5
ATOM      3  O   UNL     1      -7.718  -9.120  17.692  0.00  0.00    -0.253 OA
ATOM      5  N   UNL     1      -7.362 -10.614  15.950  0.00  0.00    -0.297 N 
ATOM      6  N   UNL     1      -9.486  -9.812  16.359  0.00  0.00    -0.297 N 
ATOM     15  C   UNL     1      -8.152  -9.786  16.754  0.00  0.00    +0.300 C 
ATOM     21  H   UNL     1      -7.815 -11.138  15.206  0.00  0.00    +0.150 HD
ATOM     22  H   UNL     1      -9.733 -10.335  15.524  0.00  0.00    +0.150 HD
BRANCH   6  16
ATOM     16  C   UNL     1     -10.513  -9.045  17.024  0.00  0.00    +0.068 C 
ATOM     17  C   UNL     1     -10.198  -7.556  16.945  0.00  0.00    +0.027 C 
ATOM     18  C   UNL     1     -10.670  -9.500  18.469  0.00  0.00    +0.027 C 
ENDBRANCH   6  16
ENDBRANCH  11   5
ENDBRANCH   9  11
TORSDOF 6
ENDMDL
MODEL 9
REMARK VINA RESULT:      -4.1      2.652      5.349
REMARK  Name = 75536721
REMARK  10 active torsions:
REMARK  status: ('A' for Active; 'I' for Inactive)
REMARK    1  A    between atoms: O_2  and  C_8
REMARK    2  A    between atoms: N_4  and  C_7
REMARK    3  A    between atoms: N_4  and  C_12
REMARK    4  A    between atoms: N_5  and  C_11
REMARK    5  A    between atoms: N_6  and  C_16
REMARK    6  A    between atoms: C_9  and  C_11
REMARK    7  A    between atoms: C_12  and  C_13
REMARK    8  A    between atoms: C_12  and  C_14
REMARK    9  A    between atoms: C_16  and  C_17
REMARK   10  A    between atoms: C_16  and  C_18
REMARK                            x       y       z     vdW  Elec       q    Type
REMARK                         _______ _______ _______ _____ _____    ______ ____
ROOT
ATOM      1  O   UNL     1      -2.350  -0.170  24.601  0.00  0.00    -0.371 OA
ATOM      7  C   UNL     1      -4.003   1.405  23.950  0.00  0.00    +0.111 C 
ATOM      8  C   UNL     1      -2.837   2.144  24.577  0.00  0.00    +0.164 C 
ATOM      9  C   UNL     1      -1.725   1.113  24.433  0.00  0.00    +0.165 C 
ATOM     10  C   UNL     1      -3.771  -0.010  24.457  0.00  0.00    +0.181 C 
ENDROOT
BRANCH   8   2
ATOM      2  O   UNL     1      -2.529   3.350  23.903  0.00  0.00    -0.388 OA
ATOM     20  H   UNL     1      -1.573   3.365  23.724  0.00  0.00    +0.210 HD
ENDBRANCH   8   2
BRANCH   7   4
ATOM      4  N   UNL     1      -5.303   1.936  24.329  0.00  0.00    -0.307 NA
ATOM     19  H   UNL     1      -6.007   1.198  24.297  0.00  0.00    +0.123 HD
BRANCH   4  12
ATOM     12  C   UNL     1      -5.262   2.523  25.662  0.00  0.00    +0.048 C 
ATOM     13  C   UNL     1      -6.252   1.820  26.582  0.00  0.00    +0.023 C 
ATOM     14  C   UNL     1      -5.538   4.021  25.596  0.00  0.00    +0.023 C 
ENDBRANCH   4  12
ENDBRANCH   7   4
BRANCH   9  11
ATOM     11  C   UNL     1      -0.614   1.282  25.455  0.00  0.00    +0.140 C 
BRANCH  11   5
ATOM      3  O   UNL     1       0.884  -0.241  23.515  0.00  0.00    -0.253 OA
ATOM      5  N   UNL     1       0.620   1.657  24.827  0.00  0.00    -0.297 N 
ATOM      6  N   UNL     1       2.456   1.462  23.444  0.00  0.00    -0.297 N 
ATOM     15  C   UNL     1       1.285   0.858  23.892  0.00  0.00    +0.300 C 
ATOM     21  H   UNL     1       1.038   2.546  25.087  0.00  0.00    +0.150 HD
ATOM     22  H   UNL     1       2.664   2.407  23.758  0.00  0.00    +0.150 HD
BRANCH   6  16
ATOM     16  C   UNL     1       3.333   0.848  22.474  0.00  0.00    +0.068 C 
ATOM     17  C   UNL     1       2.579  -0.205  21.672  0.00  0.00    +0.027 C 
ATOM     18  C   UNL     1       4.554   0.250  23.161  0.00  0.00    +0.027 C 
ENDBRANCH   6  16
ENDBRANCH  11   5
ENDBRANCH   9  11
TORSDOF 6
ENDMDL
MODEL 10
REMARK VINA RESULT:      -3.5     14.440     15.971
REMARK  Name = 75536721
REMARK  10 active torsions:
REMARK  status: ('A' for Active; 'I' for Inactive)
REMARK    1  A    between atoms: O_2  and  C_8
REMARK    2  A    between atoms: N_4  and  C_7
REMARK    3  A    between atoms: N_4  and  C_12
REMARK    4  A    between atoms: N_5  and  C_11
REMARK    5  A    between atoms: N_6  and  C_16
REMARK    6  A    between atoms: C_9  and  C_11
REMARK    7  A    between atoms: C_12  and  C_13
REMARK    8  A    between atoms: C_12  and  C_14
REMARK    9  A    between atoms: C_16  and  C_17
REMARK   10  A    between atoms: C_16  and  C_18
REMARK                            x       y       z     vdW  Elec       q    Type
REMARK                         _______ _______ _______ _____ _____    ______ ____
ROOT
ATOM      1  O   UNL     1      -2.224 -10.246  15.818  0.00  0.00    -0.371 OA
ATOM      7  C   UNL     1      -2.384 -10.086  13.454  0.00  0.00    +0.111 C 
ATOM      8  C   UNL     1      -3.737 -10.481  14.015  0.00  0.00    +0.164 C 
ATOM      9  C   UNL     1      -3.599 -10.025  15.462  0.00  0.00    +0.165 C 
ATOM     10  C   UNL     1      -1.464 -10.435  14.612  0.00  0.00    +0.181 C 
ENDROOT
BRANCH   8   2
ATOM      2  O   UNL     1      -4.811  -9.835  13.359  0.00  0.00    -0.388 OA
ATOM     20  H   UNL     1      -5.316  -9.332  14.020  0.00  0.00    +0.210 HD
ENDBRANCH   8   2
BRANCH   7   4
ATOM      4  N   UNL     1      -2.036 -10.780  12.225  0.00  0.00    -0.307 NA
ATOM     19  H   UNL     1      -2.804 -11.385  11.934  0.00  0.00    +0.123 HD
BRANCH   4  12
ATOM     12  C   UNL     1      -1.718  -9.837  11.161  0.00  0.00    +0.048 C 
ATOM     13  C   UNL     1      -0.665  -8.842  11.632  0.00  0.00    +0.023 C 
ATOM     14  C   UNL     1      -2.978  -9.123  10.684  0.00  0.00    +0.023 C 
ENDBRANCH   4  12
ENDBRANCH   7   4
BRANCH   9  11
ATOM     11  C   UNL     1      -4.505 -10.780  16.418  0.00  0.00    +0.140 C 
BRANCH  11   5
ATOM      3  O   UNL     1      -6.711  -9.896  18.054  0.00  0.00    -0.253 OA
ATOM      5  N   UNL     1      -5.881 -10.672  16.028  0.00  0.00    -0.297 N 
ATOM      6  N   UNL     1      -8.134 -10.224  16.251  0.00  0.00    -0.297 N 
ATOM     15  C   UNL     1      -6.895 -10.233  16.886  0.00  0.00    +0.300 C 
ATOM     21  H   UNL     1      -6.134 -10.942  15.082  0.00  0.00    +0.150 HD
ATOM     22  H   UNL     1      -8.170 -10.447  15.260  0.00  0.00    +0.150 HD
BRANCH   6  16
ATOM     16  C   UNL     1      -9.349  -9.812  16.913  0.00  0.00    +0.068 C 
ATOM     17  C   UNL     1     -10.562 -10.165  16.062  0.00  0.00    +0.027 C 
ATOM     18  C   UNL     1      -9.309  -8.322  17.226  0.00  0.00    +0.027 C 
ENDBRANCH   6  16
ENDBRANCH  11   5
ENDBRANCH   9  11
TORSDOF 6
ENDMDL
