MODEL 1
REMARK VINA RESULT:       1.2      0.000      0.000
REMARK  Name = 11941650
REMARK  4 active torsions:
REMARK  status: ('A' for Active; 'I' for Inactive)
REMARK    1  A    between atoms: N_5  and  C_12
REMARK    2  A    between atoms: N_6  and  C_13
REMARK    3  A    between atoms: N_7  and  C_16
REMARK    4  A    between atoms: C_24  and  C_27
REMARK                            x       y       z     vdW  Elec       q    Type
REMARK                         _______ _______ _______ _____ _____    ______ ____
ROOT
ATOM      1  O   UNL     1      -1.726  -1.324  26.387  0.00  0.00    -0.370 OA
ATOM      2  O   UNL     1      -3.084  -1.928  23.643  0.00  0.00    -0.370 OA
ATOM     10  C   UNL     1      -2.206  -0.885  24.099  0.00  0.00    +0.171 C 
ATOM     11  C   UNL     1      -2.593  -0.563  25.529  0.00  0.00    +0.171 C 
ATOM     12  C   UNL     1      -0.789  -1.399  24.208  0.00  0.00    +0.131 C 
ATOM     13  C   UNL     1      -4.015  -1.058  25.648  0.00  0.00    +0.130 C 
ATOM     14  C   UNL     1      -0.784  -2.047  25.582  0.00  0.00    +0.185 C 
ATOM     15  C   UNL     1      -4.047  -2.217  24.668  0.00  0.00    +0.185 C 
ENDROOT
BRANCH  13   6
ATOM      6  N   UNL     1      -4.936  -0.025  25.232  0.00  0.00    -0.306 N 
ATOM      8  N   UNL     1      -3.270   1.627  25.253  0.00  0.00    -0.211 NA
ATOM      9  N   UNL     1      -5.538   2.165  24.643  0.00  0.00    -0.223 NA
ATOM     23  C   UNL     1      -4.571   1.294  25.037  0.00  0.00    +0.216 A 
ATOM     24  C   UNL     1      -2.947   2.921  25.054  0.00  0.00    +0.111 A 
ATOM     25  C   UNL     1      -5.146   3.444  24.461  0.00  0.00    +0.116 A 
ATOM     26  C   UNL     1      -3.852   3.883  24.654  0.00  0.00    +0.051 A 
ATOM     32  H   UNL     1      -5.897  -0.272  25.017  0.00  0.00    +0.149 HD
BRANCH  24  27
ATOM      4  O   UNL     1      -0.840   2.266  25.894  0.00  0.00    -0.461 OA
ATOM     27  C   UNL     1      -1.566   3.242  25.292  0.00  0.00    +0.153 A 
ATOM     28  C   UNL     1      -0.786   4.344  25.041  0.00  0.00    +0.051 A 
ATOM     29  C   UNL     1       0.506   4.026  25.522  0.00  0.00    +0.042 A 
ATOM     30  C   UNL     1       0.421   2.751  26.032  0.00  0.00    +0.196 A 
ENDBRANCH  24  27
ENDBRANCH  13   6
BRANCH  12   5
ATOM      3  O   UNL     1       1.324  -1.100  22.281  0.00  0.00    -0.253 OA
ATOM      5  N   UNL     1       0.166  -0.321  24.134  0.00  0.00    -0.292 N 
ATOM      7  N   UNL     1       1.946   0.885  23.314  0.00  0.00    -0.297 N 
ATOM     19  C   UNL     1       1.161  -0.256  23.161  0.00  0.00    +0.300 C 
ATOM     31  H   UNL     1       0.155   0.391  24.859  0.00  0.00    +0.151 HD
ATOM     33  H   UNL     1       1.769   1.477  24.119  0.00  0.00    +0.151 HD
BRANCH   7  16
ATOM     16  C   UNL     1       3.053   1.205  22.442  0.00  0.00    +0.074 C 
ATOM     17  C   UNL     1       4.163   1.934  23.207  0.00  0.00    +0.022 C 
ATOM     18  C   UNL     1       3.589  -0.052  21.748  0.00  0.00    +0.022 C 
ATOM     20  C   UNL     1       4.918   1.011  24.164  0.00  0.00    +0.002 C 
ATOM     21  C   UNL     1       4.345  -0.972  22.707  0.00  0.00    +0.002 C 
ATOM     22  C   UNL     1       5.451  -0.226  23.447  0.00  0.00    +0.000 C 
ENDBRANCH   7  16
ENDBRANCH  12   5
TORSDOF 4
ENDMDL
MODEL 2
REMARK VINA RESULT:       1.5      1.403      3.840
REMARK  Name = 11941650
REMARK  4 active torsions:
REMARK  status: ('A' for Active; 'I' for Inactive)
REMARK    1  A    between atoms: N_5  and  C_12
REMARK    2  A    between atoms: N_6  and  C_13
REMARK    3  A    between atoms: N_7  and  C_16
REMARK    4  A    between atoms: C_24  and  C_27
REMARK                            x       y       z     vdW  Elec       q    Type
REMARK                         _______ _______ _______ _____ _____    ______ ____
ROOT
ATOM      1  O   UNL     1      -0.957   4.060  23.938  0.00  0.00    -0.370 OA
ATOM      2  O   UNL     1      -2.222   3.515  26.737  0.00  0.00    -0.370 OA
ATOM     10  C   UNL     1      -1.703   2.657  25.707  0.00  0.00    +0.171 C 
ATOM     11  C   UNL     1      -2.078   3.275  24.374  0.00  0.00    +0.171 C 
ATOM     12  C   UNL     1      -0.192   2.682  25.712  0.00  0.00    +0.131 C 
ATOM     13  C   UNL     1      -3.250   4.170  24.699  0.00  0.00    +0.130 C 
ATOM     14  C   UNL     1       0.115   3.916  24.882  0.00  0.00    +0.185 C 
ATOM     15  C   UNL     1      -2.968   4.581  26.133  0.00  0.00    +0.185 C 
ENDROOT
BRANCH  13   6
ATOM      6  N   UNL     1      -4.484   3.419  24.627  0.00  0.00    -0.306 N 
ATOM      8  N   UNL     1      -3.366   1.358  24.730  0.00  0.00    -0.211 NA
ATOM      9  N   UNL     1      -5.768   1.456  24.571  0.00  0.00    -0.223 NA
ATOM     23  C   UNL     1      -4.541   2.037  24.643  0.00  0.00    +0.216 A 
ATOM     24  C   UNL     1      -3.457   0.013  24.745  0.00  0.00    +0.111 A 
ATOM     25  C   UNL     1      -5.787   0.107  24.590  0.00  0.00    +0.116 A 
ATOM     26  C   UNL     1      -4.652  -0.674  24.676  0.00  0.00    +0.051 A 
ATOM     32  H   UNL     1      -5.369   3.915  24.615  0.00  0.00    +0.149 HD
BRANCH  24  27
ATOM      4  O   UNL     1      -1.625  -0.675  26.066  0.00  0.00    -0.461 OA
ATOM     27  C   UNL     1      -2.198  -0.676  24.836  0.00  0.00    +0.153 A 
ATOM     28  C   UNL     1      -1.418  -1.359  23.936  0.00  0.00    +0.051 A 
ATOM     29  C   UNL     1      -0.288  -1.807  24.660  0.00  0.00    +0.042 A 
ATOM     30  C   UNL     1      -0.461  -1.365  25.951  0.00  0.00    +0.196 A 
ENDBRANCH  24  27
ENDBRANCH  13   6
BRANCH  12   5
ATOM      3  O   UNL     1       1.664   2.570  23.519  0.00  0.00    -0.253 OA
ATOM      5  N   UNL     1       0.353   1.494  25.102  0.00  0.00    -0.292 N 
ATOM      7  N   UNL     1       1.622   0.251  23.641  0.00  0.00    -0.297 N 
ATOM     19  C   UNL     1       1.252   1.533  24.038  0.00  0.00    +0.300 C 
ATOM     31  H   UNL     1       0.021   0.587  25.419  0.00  0.00    +0.151 HD
ATOM     33  H   UNL     1       1.166  -0.536  24.091  0.00  0.00    +0.151 HD
BRANCH   7  16
ATOM     16  C   UNL     1       2.545  -0.006  22.558  0.00  0.00    +0.074 C 
ATOM     17  C   UNL     1       3.635   1.070  22.496  0.00  0.00    +0.022 C 
ATOM     18  C   UNL     1       3.154  -1.408  22.674  0.00  0.00    +0.022 C 
ATOM     20  C   UNL     1       4.635   0.957  23.648  0.00  0.00    +0.002 C 
ATOM     21  C   UNL     1       4.155  -1.517  23.825  0.00  0.00    +0.002 C 
ATOM     22  C   UNL     1       5.235  -0.443  23.735  0.00  0.00    +0.000 C 
ENDBRANCH   7  16
ENDBRANCH  12   5
TORSDOF 4
ENDMDL
MODEL 3
REMARK VINA RESULT:       4.1      2.286      5.264
REMARK  Name = 11941650
REMARK  4 active torsions:
REMARK  status: ('A' for Active; 'I' for Inactive)
REMARK    1  A    between atoms: N_5  and  C_12
REMARK    2  A    between atoms: N_6  and  C_13
REMARK    3  A    between atoms: N_7  and  C_16
REMARK    4  A    between atoms: C_24  and  C_27
REMARK                            x       y       z     vdW  Elec       q    Type
REMARK                         _______ _______ _______ _____ _____    ______ ____
ROOT
ATOM      1  O   UNL     1      -3.386   3.306  23.575  0.00  0.00    -0.370 OA
ATOM      2  O   UNL     1      -5.349   2.737  25.933  0.00  0.00    -0.370 OA
ATOM     10  C   UNL     1      -3.917   2.720  25.819  0.00  0.00    +0.171 C 
ATOM     11  C   UNL     1      -3.580   2.177  24.444  0.00  0.00    +0.171 C 
ATOM     12  C   UNL     1      -3.373   4.130  25.800  0.00  0.00    +0.131 C 
ATOM     13  C   UNL     1      -4.814   1.409  24.037  0.00  0.00    +0.130 C 
ATOM     14  C   UNL     1      -3.516   4.514  24.338  0.00  0.00    +0.185 C 
ATOM     15  C   UNL     1      -5.924   2.160  24.750  0.00  0.00    +0.185 C 
ENDROOT
BRANCH  13   6
ATOM      6  N   UNL     1      -4.736   0.049  24.524  0.00  0.00    -0.306 N 
ATOM      8  N   UNL     1      -2.417  -0.058  24.185  0.00  0.00    -0.211 NA
ATOM      9  N   UNL     1      -3.625  -1.941  25.079  0.00  0.00    -0.223 NA
ATOM     23  C   UNL     1      -3.558  -0.671  24.599  0.00  0.00    +0.216 A 
ATOM     24  C   UNL     1      -1.286  -0.788  24.272  0.00  0.00    +0.111 A 
ATOM     25  C   UNL     1      -2.457  -2.615  25.139  0.00  0.00    +0.116 A 
ATOM     26  C   UNL     1      -1.245  -2.084  24.744  0.00  0.00    +0.051 A 
ATOM     32  H   UNL     1      -5.572  -0.399  24.885  0.00  0.00    +0.149 HD
BRANCH  24  27
ATOM      4  O   UNL     1       0.742  -0.860  23.065  0.00  0.00    -0.461 OA
ATOM     27  C   UNL     1      -0.097  -0.113  23.826  0.00  0.00    +0.153 A 
ATOM     28  C   UNL     1       0.401   1.155  23.998  0.00  0.00    +0.051 A 
ATOM     29  C   UNL     1       1.630   1.191  23.297  0.00  0.00    +0.042 A 
ATOM     30  C   UNL     1       1.793  -0.060  22.747  0.00  0.00    +0.196 A 
ENDBRANCH  24  27
ENDBRANCH  13   6
BRANCH  12   5
ATOM      3  O   UNL     1      -1.720   1.874  26.467  0.00  0.00    -0.253 OA
ATOM      5  N   UNL     1      -1.993   4.165  26.218  0.00  0.00    -0.292 N 
ATOM      7  N   UNL     1       0.040   3.327  26.895  0.00  0.00    -0.297 N 
ATOM     19  C   UNL     1      -1.265   3.016  26.522  0.00  0.00    +0.300 C 
ATOM     31  H   UNL     1      -1.547   5.067  26.358  0.00  0.00    +0.151 HD
ATOM     33  H   UNL     1       0.290   4.307  26.976  0.00  0.00    +0.151 HD
BRANCH   7  16
ATOM     16  C   UNL     1       1.017   2.327  27.263  0.00  0.00    +0.074 C 
ATOM     17  C   UNL     1       2.409   2.948  27.419  0.00  0.00    +0.022 C 
ATOM     18  C   UNL     1       0.593   1.587  28.537  0.00  0.00    +0.022 C 
ATOM     20  C   UNL     1       2.526   3.818  28.670  0.00  0.00    +0.002 C 
ATOM     21  C   UNL     1       0.713   2.459  29.787  0.00  0.00    +0.002 C 
ATOM     22  C   UNL     1       2.110   3.057  29.925  0.00  0.00    +0.000 C 
ENDBRANCH   7  16
ENDBRANCH  12   5
TORSDOF 4
ENDMDL
