MODEL 1
REMARK VINA RESULT:       5.9      0.000      0.000
REMARK  Name = 26763158
REMARK  6 active torsions:
REMARK  status: ('A' for Active; 'I' for Inactive)
REMARK    1  A    between atoms: O_5  and  C_25
REMARK    2  A    between atoms: O_5  and  C_29
REMARK    3  A    between atoms: N_9  and  C_15
REMARK    4  A    between atoms: N_10  and  C_28
REMARK    5  A    between atoms: C_21  and  C_22
REMARK    6  A    between atoms: C_23  and  C_25
REMARK                            x       y       z     vdW  Elec       q    Type
REMARK                         _______ _______ _______ _____ _____    ______ ____
ROOT
ATOM      1  O   UNL     1      -2.154   1.635  22.450  0.00  0.00    -0.273 OA
ATOM      2  O   UNL     1      -3.643   4.532  27.156  0.00  0.00    -0.274 OA
ATOM      3  O   UNL     1       0.068  -0.041  23.639  0.00  0.00    -0.268 OA
ATOM      6  N   UNL     1      -3.463   2.379  24.215  0.00  0.00    -0.287 N 
ATOM      7  N   UNL     1       0.215   2.277  23.716  0.00  0.00    -0.283 N 
ATOM      8  N   UNL     1      -1.858   4.436  25.773  0.00  0.00    -0.309 N 
ATOM     11  C   UNL     1      -1.049   2.504  24.412  0.00  0.00    +0.182 C 
ATOM     12  C   UNL     1      -1.127   4.021  24.596  0.00  0.00    +0.104 C 
ATOM     13  C   UNL     1      -3.634   2.662  25.644  0.00  0.00    +0.164 C 
ATOM     14  C   UNL     1      -5.160   2.590  25.854  0.00  0.00    +0.055 C 
ATOM     15  C   UNL     1      -5.656   1.690  24.726  0.00  0.00    +0.092 C 
ATOM     16  C   UNL     1       0.339   4.442  24.617  0.00  0.00    +0.043 C 
ATOM     17  C   UNL     1      -4.739   2.079  23.575  0.00  0.00    +0.131 C 
ATOM     18  C   UNL     1      -2.256   2.107  23.580  0.00  0.00    +0.239 C 
ATOM     19  C   UNL     1       0.957   3.529  23.569  0.00  0.00    +0.111 C 
ATOM     20  C   UNL     1      -3.086   3.982  26.198  0.00  0.00    +0.234 C 
ATOM     21  C   UNL     1       0.716   0.997  23.508  0.00  0.00    +0.264 C 
ATOM     30  H   UNL     1      -1.529   5.285  26.224  0.00  0.00    +0.149 HD
ENDROOT
BRANCH  21  22
ATOM     10  N   UNL     1       2.546   0.129  22.011  0.00  0.00    -0.346 N 
ATOM     22  C   UNL     1       2.122   0.867  23.085  0.00  0.00    +0.104 A 
ATOM     24  C   UNL     1       3.229   1.444  23.665  0.00  0.00    +0.032 A 
ATOM     26  C   UNL     1       3.909   0.227  21.897  0.00  0.00    +0.086 A 
ATOM     27  C   UNL     1       4.360   1.039  22.914  0.00  0.00    +0.020 A 
ATOM     28  C   UNL     1       1.702  -0.640  21.124  0.00  0.00    +0.149 C 
ENDBRANCH  21  22
BRANCH  15   9
ATOM      4  O   UNL     1      -4.041  -0.287  23.366  0.00  0.00    -0.273 OA
ATOM      9  N   UNL     1      -5.519   0.293  25.065  0.00  0.00    -0.309 N 
ATOM     23  C   UNL     1      -4.716  -0.582  24.349  0.00  0.00    +0.239 C 
ATOM     31  H   UNL     1      -6.077  -0.069  25.833  0.00  0.00    +0.149 HD
BRANCH  23  25
ATOM     25  C   UNL     1      -4.758  -1.982  24.924  0.00  0.00    +0.255 C 
BRANCH  25   5
ATOM      5  O   UNL     1      -3.777  -2.798  24.321  0.00  0.00    -0.374 OA
ATOM     29  C   UNL     1      -2.464  -2.465  24.764  0.00  0.00    +0.194 C 
ENDBRANCH  25   5
ENDBRANCH  23  25
ENDBRANCH  15   9
TORSDOF 4
ENDMDL
MODEL 2
REMARK VINA RESULT:       6.1      1.897      4.217
REMARK  Name = 26763158
REMARK  6 active torsions:
REMARK  status: ('A' for Active; 'I' for Inactive)
REMARK    1  A    between atoms: O_5  and  C_25
REMARK    2  A    between atoms: O_5  and  C_29
REMARK    3  A    between atoms: N_9  and  C_15
REMARK    4  A    between atoms: N_10  and  C_28
REMARK    5  A    between atoms: C_21  and  C_22
REMARK    6  A    between atoms: C_23  and  C_25
REMARK                            x       y       z     vdW  Elec       q    Type
REMARK                         _______ _______ _______ _____ _____    ______ ____
ROOT
ATOM      1  O   UNL     1      -1.332   1.321  25.928  0.00  0.00    -0.273 OA
ATOM      2  O   UNL     1      -5.372  -2.152  23.836  0.00  0.00    -0.274 OA
ATOM      3  O   UNL     1       0.087   1.973  23.335  0.00  0.00    -0.268 OA
ATOM      6  N   UNL     1      -3.445   0.541  25.370  0.00  0.00    -0.287 N 
ATOM      7  N   UNL     1      -0.070  -0.240  24.031  0.00  0.00    -0.283 N 
ATOM      8  N   UNL     1      -3.127  -2.199  24.095  0.00  0.00    -0.309 N 
ATOM     11  C   UNL     1      -1.527  -0.281  24.135  0.00  0.00    +0.182 C 
ATOM     12  C   UNL     1      -1.847  -1.715  24.562  0.00  0.00    +0.104 C 
ATOM     13  C   UNL     1      -4.372  -0.035  24.391  0.00  0.00    +0.164 C 
ATOM     14  C   UNL     1      -5.762   0.393  24.904  0.00  0.00    +0.055 C 
ATOM     15  C   UNL     1      -5.491   1.649  25.728  0.00  0.00    +0.092 C 
ATOM     16  C   UNL     1      -0.666  -2.511  24.015  0.00  0.00    +0.043 C 
ATOM     17  C   UNL     1      -4.151   1.329  26.374  0.00  0.00    +0.131 C 
ATOM     18  C   UNL     1      -2.064   0.626  25.227  0.00  0.00    +0.239 C 
ATOM     19  C   UNL     1       0.503  -1.567  24.252  0.00  0.00    +0.111 C 
ATOM     20  C   UNL     1      -4.340  -1.550  24.158  0.00  0.00    +0.234 C 
ATOM     21  C   UNL     1       0.594   0.866  23.511  0.00  0.00    +0.264 C 
ATOM     30  H   UNL     1      -3.176  -3.190  23.880  0.00  0.00    +0.149 HD
ENDROOT
BRANCH  21  22
ATOM     10  N   UNL     1       2.472   0.025  22.059  0.00  0.00    -0.346 N 
ATOM     22  C   UNL     1       2.016   0.710  23.155  0.00  0.00    +0.104 A 
ATOM     24  C   UNL     1       3.110   1.206  23.828  0.00  0.00    +0.032 A 
ATOM     26  C   UNL     1       3.841   0.078  22.022  0.00  0.00    +0.086 A 
ATOM     27  C   UNL     1       4.265   0.807  23.112  0.00  0.00    +0.020 A 
ATOM     28  C   UNL     1       1.651  -0.654  21.081  0.00  0.00    +0.149 C 
ENDBRANCH  21  22
BRANCH  15   9
ATOM      4  O   UNL     1      -3.717   3.910  26.058  0.00  0.00    -0.273 OA
ATOM      9  N   UNL     1      -5.410   2.823  24.892  0.00  0.00    -0.309 N 
ATOM     23  C   UNL     1      -4.522   3.861  25.131  0.00  0.00    +0.239 C 
ATOM     31  H   UNL     1      -6.070   2.909  24.123  0.00  0.00    +0.149 HD
BRANCH  23  25
ATOM     25  C   UNL     1      -4.650   4.961  24.099  0.00  0.00    +0.255 C 
BRANCH  25   5
ATOM      5  O   UNL     1      -3.893   4.655  22.948  0.00  0.00    -0.374 OA
ATOM     29  C   UNL     1      -3.485   3.290  22.929  0.00  0.00    +0.194 C 
ENDBRANCH  25   5
ENDBRANCH  23  25
ENDBRANCH  15   9
TORSDOF 4
ENDMDL
MODEL 3
REMARK VINA RESULT:       7.8      2.222      6.154
REMARK  Name = 26763158
REMARK  6 active torsions:
REMARK  status: ('A' for Active; 'I' for Inactive)
REMARK    1  A    between atoms: O_5  and  C_25
REMARK    2  A    between atoms: O_5  and  C_29
REMARK    3  A    between atoms: N_9  and  C_15
REMARK    4  A    between atoms: N_10  and  C_28
REMARK    5  A    between atoms: C_21  and  C_22
REMARK    6  A    between atoms: C_23  and  C_25
REMARK                            x       y       z     vdW  Elec       q    Type
REMARK                         _______ _______ _______ _____ _____    ______ ____
ROOT
ATOM      1  O   UNL     1      -2.371   0.497  26.376  0.00  0.00    -0.273 OA
ATOM      2  O   UNL     1       2.180   0.790  22.917  0.00  0.00    -0.274 OA
ATOM      3  O   UNL     1      -4.449   1.615  24.480  0.00  0.00    -0.268 OA
ATOM      6  N   UNL     1      -0.582  -0.214  25.081  0.00  0.00    -0.287 N 
ATOM      7  N   UNL     1      -2.598   2.904  25.041  0.00  0.00    -0.283 N 
ATOM      8  N   UNL     1       0.809   2.247  23.968  0.00  0.00    -0.309 N 
ATOM     11  C   UNL     1      -1.586   1.943  24.610  0.00  0.00    +0.182 C 
ATOM     12  C   UNL     1      -0.249   2.640  24.874  0.00  0.00    +0.104 C 
ATOM     13  C   UNL     1       0.175  -0.180  23.825  0.00  0.00    +0.164 C 
ATOM     14  C   UNL     1       0.919  -1.531  23.807  0.00  0.00    +0.055 C 
ATOM     15  C   UNL     1       0.072  -2.442  24.691  0.00  0.00    +0.092 C 
ATOM     16  C   UNL     1      -0.606   4.120  24.778  0.00  0.00    +0.043 C 
ATOM     17  C   UNL     1      -0.409  -1.487  25.773  0.00  0.00    +0.131 C 
ATOM     18  C   UNL     1      -1.586   0.677  25.448  0.00  0.00    +0.239 C 
ATOM     19  C   UNL     1      -1.978   4.168  25.435  0.00  0.00    +0.111 C 
ATOM     20  C   UNL     1       1.163   0.970  23.598  0.00  0.00    +0.234 C 
ATOM     21  C   UNL     1      -3.953   2.691  24.811  0.00  0.00    +0.264 C 
ATOM     30  H   UNL     1       1.485   2.970  23.736  0.00  0.00    +0.149 HD
ENDROOT
BRANCH  21  22
ATOM     10  N   UNL     1      -5.986   3.814  25.785  0.00  0.00    -0.346 N 
ATOM     22  C   UNL     1      -4.869   3.831  24.991  0.00  0.00    +0.104 A 
ATOM     24  C   UNL     1      -4.778   5.080  24.419  0.00  0.00    +0.032 A 
ATOM     26  C   UNL     1      -6.608   5.034  25.729  0.00  0.00    +0.086 A 
ATOM     27  C   UNL     1      -5.877   5.841  24.886  0.00  0.00    +0.020 A 
ATOM     28  C   UNL     1      -6.452   2.690  26.569  0.00  0.00    +0.149 C 
ENDBRANCH  21  22
BRANCH  15   9
ATOM      4  O   UNL     1      -2.680  -2.647  25.557  0.00  0.00    -0.273 OA
ATOM      9  N   UNL     1      -1.033  -3.013  23.957  0.00  0.00    -0.309 N 
ATOM     23  C   UNL     1      -2.325  -3.066  24.458  0.00  0.00    +0.239 C 
ATOM     31  H   UNL     1      -0.838  -3.437  23.054  0.00  0.00    +0.149 HD
BRANCH  23  25
ATOM     25  C   UNL     1      -3.281  -3.713  23.479  0.00  0.00    +0.255 C 
BRANCH  25   5
ATOM      5  O   UNL     1      -4.503  -3.009  23.437  0.00  0.00    -0.374 OA
ATOM     29  C   UNL     1      -4.332  -1.630  23.755  0.00  0.00    +0.194 C 
ENDBRANCH  25   5
ENDBRANCH  23  25
ENDBRANCH  15   9
TORSDOF 4
ENDMDL
MODEL 4
REMARK VINA RESULT:       8.3      2.364      7.411
REMARK  Name = 26763158
REMARK  6 active torsions:
REMARK  status: ('A' for Active; 'I' for Inactive)
REMARK    1  A    between atoms: O_5  and  C_25
REMARK    2  A    between atoms: O_5  and  C_29
REMARK    3  A    between atoms: N_9  and  C_15
REMARK    4  A    between atoms: N_10  and  C_28
REMARK    5  A    between atoms: C_21  and  C_22
REMARK    6  A    between atoms: C_23  and  C_25
REMARK                            x       y       z     vdW  Elec       q    Type
REMARK                         _______ _______ _______ _____ _____    ______ ____
ROOT
ATOM      1  O   UNL     1      -1.838   1.595  22.278  0.00  0.00    -0.273 OA
ATOM      2  O   UNL     1      -0.748  -3.129  25.321  0.00  0.00    -0.274 OA
ATOM      3  O   UNL     1      -2.182   3.539  24.573  0.00  0.00    -0.268 OA
ATOM      6  N   UNL     1      -0.669  -0.231  23.102  0.00  0.00    -0.287 N 
ATOM      7  N   UNL     1      -3.565   1.676  24.431  0.00  0.00    -0.283 N 
ATOM      8  N   UNL     1      -2.511  -1.757  24.977  0.00  0.00    -0.309 N 
ATOM     11  C   UNL     1      -2.500   0.676  24.408  0.00  0.00    +0.182 C 
ATOM     12  C   UNL     1      -3.229  -0.669  24.349  0.00  0.00    +0.104 C 
ATOM     13  C   UNL     1      -0.217  -1.050  24.233  0.00  0.00    +0.164 C 
ATOM     14  C   UNL     1       1.049  -1.749  23.697  0.00  0.00    +0.055 C 
ATOM     15  C   UNL     1       1.549  -0.830  22.587  0.00  0.00    +0.092 C 
ATOM     16  C   UNL     1      -4.568  -0.366  25.016  0.00  0.00    +0.043 C 
ATOM     17  C   UNL     1       0.249  -0.327  21.974  0.00  0.00    +0.131 C 
ATOM     18  C   UNL     1      -1.644   0.759  23.157  0.00  0.00    +0.239 C 
ATOM     19  C   UNL     1      -4.877   1.034  24.507  0.00  0.00    +0.111 C 
ATOM     20  C   UNL     1      -1.185  -2.086  24.818  0.00  0.00    +0.234 C 
ATOM     21  C   UNL     1      -3.297   3.024  24.642  0.00  0.00    +0.264 C 
ATOM     30  H   UNL     1      -3.084  -2.467  25.424  0.00  0.00    +0.149 HD
ENDROOT
BRANCH  21  22
ATOM     10  N   UNL     1      -5.411   3.623  25.874  0.00  0.00    -0.346 N 
ATOM     22  C   UNL     1      -4.432   3.910  24.959  0.00  0.00    +0.104 A 
ATOM     24  C   UNL     1      -4.709   5.146  24.419  0.00  0.00    +0.032 A 
ATOM     26  C   UNL     1      -6.308   4.658  25.927  0.00  0.00    +0.086 A 
ATOM     27  C   UNL     1      -5.895   5.619  25.031  0.00  0.00    +0.020 A 
ATOM     28  C   UNL     1      -5.499   2.419  26.672  0.00  0.00    +0.149 C 
ENDBRANCH  21  22
BRANCH  15   9
ATOM      4  O   UNL     1       4.023   0.213  21.509  0.00  0.00    -0.273 OA
ATOM      9  N   UNL     1       2.341   0.256  23.115  0.00  0.00    -0.309 N 
ATOM     23  C   UNL     1       3.519   0.687  22.525  0.00  0.00    +0.239 C 
ATOM     31  H   UNL     1       2.041   0.686  23.986  0.00  0.00    +0.149 HD
BRANCH  23  25
ATOM     25  C   UNL     1       4.140   1.839  23.286  0.00  0.00    +0.255 C 
BRANCH  25   5
ATOM      5  O   UNL     1       5.378   1.456  23.846  0.00  0.00    -0.374 OA
ATOM     29  C   UNL     1       5.410   0.068  24.163  0.00  0.00    +0.194 C 
ENDBRANCH  25   5
ENDBRANCH  23  25
ENDBRANCH  15   9
TORSDOF 4
ENDMDL
MODEL 5
REMARK VINA RESULT:       9.4      2.603      5.680
REMARK  Name = 26763158
REMARK  6 active torsions:
REMARK  status: ('A' for Active; 'I' for Inactive)
REMARK    1  A    between atoms: O_5  and  C_25
REMARK    2  A    between atoms: O_5  and  C_29
REMARK    3  A    between atoms: N_9  and  C_15
REMARK    4  A    between atoms: N_10  and  C_28
REMARK    5  A    between atoms: C_21  and  C_22
REMARK    6  A    between atoms: C_23  and  C_25
REMARK                            x       y       z     vdW  Elec       q    Type
REMARK                         _______ _______ _______ _____ _____    ______ ____
ROOT
ATOM      1  O   UNL     1      -2.837   1.822  22.829  0.00  0.00    -0.273 OA
ATOM      2  O   UNL     1       1.111   3.112  26.768  0.00  0.00    -0.274 OA
ATOM      3  O   UNL     1      -4.506  -0.092  24.476  0.00  0.00    -0.268 OA
ATOM      6  N   UNL     1      -1.595   3.096  24.318  0.00  0.00    -0.287 N 
ATOM      7  N   UNL     1      -2.256  -0.553  24.114  0.00  0.00    -0.283 N 
ATOM      8  N   UNL     1       0.514   1.296  25.561  0.00  0.00    -0.309 N 
ATOM     11  C   UNL     1      -1.738   0.699  24.660  0.00  0.00    +0.182 C 
ATOM     12  C   UNL     1      -0.217   0.576  24.541  0.00  0.00    +0.104 C 
ATOM     13  C   UNL     1      -1.012   3.291  25.650  0.00  0.00    +0.164 C 
ATOM     14  C   UNL     1      -0.847   4.820  25.760  0.00  0.00    +0.055 C 
ATOM     15  C   UNL     1      -1.886   5.383  24.794  0.00  0.00    +0.092 C 
ATOM     16  C   UNL     1       0.013  -0.932  24.587  0.00  0.00    +0.043 C 
ATOM     17  C   UNL     1      -1.855   4.371  23.658  0.00  0.00    +0.131 C 
ATOM     18  C   UNL     1      -2.139   1.910  23.837  0.00  0.00    +0.239 C 
ATOM     19  C   UNL     1      -1.163  -1.465  23.782  0.00  0.00    +0.111 C 
ATOM     20  C   UNL     1       0.313   2.593  25.977  0.00  0.00    +0.234 C 
ATOM     21  C   UNL     1      -3.605  -0.881  24.194  0.00  0.00    +0.264 C 
ATOM     30  H   UNL     1       1.389   0.875  25.861  0.00  0.00    +0.149 HD
ENDROOT
BRANCH  21  22
ATOM     10  N   UNL     1      -3.695  -3.345  24.708  0.00  0.00    -0.346 N 
ATOM     22  C   UNL     1      -3.992  -2.274  23.906  0.00  0.00    +0.104 A 
ATOM     24  C   UNL     1      -4.701  -2.742  22.823  0.00  0.00    +0.032 A 
ATOM     26  C   UNL     1      -4.204  -4.490  24.152  0.00  0.00    +0.086 A 
ATOM     27  C   UNL     1      -4.835  -4.144  22.978  0.00  0.00    +0.020 A 
ATOM     28  C   UNL     1      -2.960  -3.294  25.953  0.00  0.00    +0.149 C 
ENDBRANCH  21  22
BRANCH  15   9
ATOM      4  O   UNL     1      -4.349   4.242  23.793  0.00  0.00    -0.273 OA
ATOM      9  N   UNL     1      -3.192   5.455  25.405  0.00  0.00    -0.309 N 
ATOM     23  C   UNL     1      -4.320   4.873  24.847  0.00  0.00    +0.239 C 
ATOM     31  H   UNL     1      -3.292   6.000  26.258  0.00  0.00    +0.149 HD
BRANCH  23  25
ATOM     25  C   UNL     1      -5.551   5.101  25.698  0.00  0.00    +0.255 C 
BRANCH  25   5
ATOM      5  O   UNL     1      -6.342   3.934  25.754  0.00  0.00    -0.374 OA
ATOM     29  C   UNL     1      -5.565   2.781  26.066  0.00  0.00    +0.194 C 
ENDBRANCH  25   5
ENDBRANCH  23  25
ENDBRANCH  15   9
TORSDOF 4
ENDMDL
