MODEL 1
REMARK VINA RESULT:      -3.7      0.000      0.000
REMARK  Name = 45784123
REMARK  11 active torsions:
REMARK  status: ('A' for Active; 'I' for Inactive)
REMARK    1  A    between atoms: O_1  and  C_14
REMARK    2  A    between atoms: O_3  and  C_25
REMARK    3  A    between atoms: O_3  and  C_26
REMARK    4  A    between atoms: C_6  and  C_10
REMARK    5  A    between atoms: C_8  and  C_14
REMARK    6  A    between atoms: C_9  and  C_13
REMARK    7  A    between atoms: C_10  and  C_15
REMARK    8  A    between atoms: C_10  and  C_16
REMARK    9  A    between atoms: C_11  and  C_17
REMARK   10  A    between atoms: C_13  and  C_18
REMARK   11  A    between atoms: C_19  and  C_20
REMARK                            x       y       z     vdW  Elec       q    Type
REMARK                         _______ _______ _______ _____ _____    ______ ____
ROOT
ATOM     13  C   UNL     1      14.369  -7.233  28.906  0.00  0.00    +0.105 C 
ENDROOT
BRANCH  13   9
ATOM      6  C   UNL     1      12.602  -7.853  31.522  0.00  0.00    +0.001 C 
ATOM      7  C   UNL     1      13.920  -8.494  31.059  0.00  0.00    +0.012 C 
ATOM      8  C   UNL     1      12.885  -6.675  32.489  0.00  0.00    +0.040 C 
ATOM      9  C   UNL     1      14.838  -7.484  30.343  0.00  0.00    +0.024 C 
ATOM     11  C   UNL     1      14.952  -6.185  31.113  0.00  0.00    -0.073 C 
ATOM     12  C   UNL     1      14.078  -5.846  32.076  0.00  0.00    -0.022 C 
ATOM     17  C   UNL     1      16.123  -5.301  30.778  0.00  0.00    +0.039 C 
BRANCH   6  10
ATOM     10  C   UNL     1      11.708  -8.916  32.167  0.00  0.00    -0.013 C 
ATOM     15  C   UNL     1      12.144 -10.312  31.735  0.00  0.00    +0.007 C 
ATOM     16  C   UNL     1      10.246  -8.670  31.807  0.00  0.00    +0.007 C 
ENDBRANCH   6  10
BRANCH   8  14
ATOM     14  C   UNL     1      11.657  -5.769  32.630  0.00  0.00    +0.163 C 
BRANCH  14   1
ATOM      1  O   UNL     1      12.027  -4.460  32.248  0.00  0.00    -0.394 OA
ATOM     27  H   UNL     1      12.930  -4.308  32.577  0.00  0.00    +0.209 HD
ENDBRANCH  14   1
ENDBRANCH   8  14
ENDBRANCH  13   9
BRANCH  13  18
ATOM      2  O   UNL     1      15.403  -6.050  27.038  0.00  0.00    -0.420 OA
ATOM      4  N   UNL     1      16.683  -7.654  27.927  0.00  0.00    -0.112 NA
ATOM      5  N   UNL     1      17.386  -7.073  26.889  0.00  0.00    -0.107 NA
ATOM     18  C   UNL     1      15.532  -7.026  27.978  0.00  0.00    +0.218 A 
ATOM     19  C   UNL     1      16.601  -6.143  26.399  0.00  0.00    +0.248 A 
BRANCH  19  20
ATOM     20  C   UNL     1      16.806  -5.226  25.316  0.00  0.00    +0.039 A 
ATOM     21  C   UNL     1      16.718  -3.851  25.539  0.00  0.00    +0.017 A 
ATOM     22  C   UNL     1      17.095  -5.707  24.039  0.00  0.00    +0.017 A 
ATOM     23  C   UNL     1      16.917  -2.959  24.486  0.00  0.00    +0.046 A 
ATOM     24  C   UNL     1      17.295  -4.816  22.986  0.00  0.00    +0.046 A 
ATOM     25  C   UNL     1      17.207  -3.441  23.209  0.00  0.00    +0.120 A 
BRANCH  25   3
ATOM      3  O   UNL     1      17.405  -2.571  22.182  0.00  0.00    -0.495 OA
ATOM     26  C   UNL     1      17.012  -1.216  22.394  0.00  0.00    +0.277 C 
ENDBRANCH  25   3
ENDBRANCH  19  20
ENDBRANCH  13  18
TORSDOF 7
ENDMDL
MODEL 2
REMARK VINA RESULT:      -3.0     17.688     19.246
REMARK  Name = 45784123
REMARK  11 active torsions:
REMARK  status: ('A' for Active; 'I' for Inactive)
REMARK    1  A    between atoms: O_1  and  C_14
REMARK    2  A    between atoms: O_3  and  C_25
REMARK    3  A    between atoms: O_3  and  C_26
REMARK    4  A    between atoms: C_6  and  C_10
REMARK    5  A    between atoms: C_8  and  C_14
REMARK    6  A    between atoms: C_9  and  C_13
REMARK    7  A    between atoms: C_10  and  C_15
REMARK    8  A    between atoms: C_10  and  C_16
REMARK    9  A    between atoms: C_11  and  C_17
REMARK   10  A    between atoms: C_13  and  C_18
REMARK   11  A    between atoms: C_19  and  C_20
REMARK                            x       y       z     vdW  Elec       q    Type
REMARK                         _______ _______ _______ _____ _____    ______ ____
ROOT
ATOM     13  C   UNL     1      -4.212  -0.078  25.922  0.00  0.00    +0.105 C 
ENDROOT
BRANCH  13   9
ATOM      6  C   UNL     1      -3.238   2.569  24.373  0.00  0.00    +0.001 C 
ATOM      7  C   UNL     1      -4.187   1.455  23.903  0.00  0.00    +0.012 C 
ATOM      8  C   UNL     1      -4.041   3.729  25.014  0.00  0.00    +0.040 C 
ATOM      9  C   UNL     1      -5.034   0.885  25.058  0.00  0.00    +0.024 C 
ATOM     11  C   UNL     1      -5.645   1.984  25.903  0.00  0.00    -0.073 C 
ATOM     12  C   UNL     1      -5.198   3.251  25.860  0.00  0.00    -0.022 C 
ATOM     17  C   UNL     1      -6.815   1.601  26.767  0.00  0.00    +0.039 C 
BRANCH   6  10
ATOM     10  C   UNL     1      -2.382   3.050  23.199  0.00  0.00    -0.013 C 
ATOM     15  C   UNL     1      -2.417   2.033  22.063  0.00  0.00    +0.007 C 
ATOM     16  C   UNL     1      -0.948   3.303  23.654  0.00  0.00    +0.007 C 
ENDBRANCH   6  10
BRANCH   8  14
ATOM     14  C   UNL     1      -3.132   4.633  25.853  0.00  0.00    +0.163 C 
BRANCH  14   1
ATOM      1  O   UNL     1      -2.309   3.811  26.655  0.00  0.00    -0.394 OA
ATOM     27  H   UNL     1      -2.405   4.114  27.574  0.00  0.00    +0.209 HD
ENDBRANCH  14   1
ENDBRANCH   8  14
ENDBRANCH  13   9
BRANCH  13  18
ATOM      2  O   UNL     1      -2.012   0.043  24.873  0.00  0.00    -0.420 OA
ATOM      4  N   UNL     1      -3.033  -1.932  24.632  0.00  0.00    -0.112 NA
ATOM      5  N   UNL     1      -1.809  -2.004  23.994  0.00  0.00    -0.107 NA
ATOM     18  C   UNL     1      -3.109  -0.720  25.129  0.00  0.00    +0.218 A 
ATOM     19  C   UNL     1      -1.247  -0.829  24.161  0.00  0.00    +0.248 A 
BRANCH  19  20
ATOM     20  C   UNL     1       0.023  -0.333  23.717  0.00  0.00    +0.039 A 
ATOM     21  C   UNL     1       0.587   0.787  24.330  0.00  0.00    +0.017 A 
ATOM     22  C   UNL     1       0.695  -0.969  22.674  0.00  0.00    +0.017 A 
ATOM     23  C   UNL     1       1.822   1.270  23.899  0.00  0.00    +0.046 A 
ATOM     24  C   UNL     1       1.930  -0.486  22.242  0.00  0.00    +0.046 A 
ATOM     25  C   UNL     1       2.494   0.633  22.855  0.00  0.00    +0.120 A 
BRANCH  25   3
ATOM      3  O   UNL     1       3.701   1.102  22.437  0.00  0.00    -0.495 OA
ATOM     26  C   UNL     1       4.860   0.585  23.088  0.00  0.00    +0.277 C 
ENDBRANCH  25   3
ENDBRANCH  19  20
ENDBRANCH  13  18
TORSDOF 7
ENDMDL
MODEL 3
REMARK VINA RESULT:      -1.7     17.889     19.414
REMARK  Name = 45784123
REMARK  11 active torsions:
REMARK  status: ('A' for Active; 'I' for Inactive)
REMARK    1  A    between atoms: O_1  and  C_14
REMARK    2  A    between atoms: O_3  and  C_25
REMARK    3  A    between atoms: O_3  and  C_26
REMARK    4  A    between atoms: C_6  and  C_10
REMARK    5  A    between atoms: C_8  and  C_14
REMARK    6  A    between atoms: C_9  and  C_13
REMARK    7  A    between atoms: C_10  and  C_15
REMARK    8  A    between atoms: C_10  and  C_16
REMARK    9  A    between atoms: C_11  and  C_17
REMARK   10  A    between atoms: C_13  and  C_18
REMARK   11  A    between atoms: C_19  and  C_20
REMARK                            x       y       z     vdW  Elec       q    Type
REMARK                         _______ _______ _______ _____ _____    ______ ____
ROOT
ATOM     13  C   UNL     1      -3.405   3.774  26.475  0.00  0.00    +0.105 C 
ENDROOT
BRANCH  13   9
ATOM      6  C   UNL     1      -3.847   0.997  24.912  0.00  0.00    +0.001 C 
ATOM      7  C   UNL     1      -4.850   1.831  25.723  0.00  0.00    +0.012 C 
ATOM      8  C   UNL     1      -3.910   1.383  23.412  0.00  0.00    +0.040 C 
ATOM      9  C   UNL     1      -4.585   3.344  25.597  0.00  0.00    +0.024 C 
ATOM     11  C   UNL     1      -4.370   3.759  24.156  0.00  0.00    -0.073 C 
ATOM     12  C   UNL     1      -4.081   2.868  23.191  0.00  0.00    -0.022 C 
ATOM     17  C   UNL     1      -4.537   5.220  23.840  0.00  0.00    +0.039 C 
BRANCH   6  10
ATOM     10  C   UNL     1      -4.119  -0.495  25.127  0.00  0.00    -0.013 C 
ATOM     15  C   UNL     1      -3.000  -1.127  25.948  0.00  0.00    +0.007 C 
ATOM     16  C   UNL     1      -4.274  -1.206  23.786  0.00  0.00    +0.007 C 
ENDBRANCH   6  10
BRANCH   8  14
ATOM     14  C   UNL     1      -2.665   0.895  22.663  0.00  0.00    +0.163 C 
BRANCH  14   1
ATOM      1  O   UNL     1      -2.246   1.922  21.786  0.00  0.00    -0.394 OA
ATOM     27  H   UNL     1      -2.407   1.610  20.879  0.00  0.00    +0.209 HD
ENDBRANCH  14   1
ENDBRANCH   8  14
ENDBRANCH  13   9
BRANCH  13  18
ATOM      2  O   UNL     1      -1.558   2.609  25.385  0.00  0.00    -0.420 OA
ATOM      4  N   UNL     1      -1.445   4.838  25.244  0.00  0.00    -0.112 NA
ATOM      5  N   UNL     1      -0.346   4.312  24.590  0.00  0.00    -0.107 NA
ATOM     18  C   UNL     1      -2.123   3.808  25.691  0.00  0.00    +0.218 A 
ATOM     19  C   UNL     1      -0.453   3.009  24.698  0.00  0.00    +0.248 A 
BRANCH  19  20
ATOM     20  C   UNL     1       0.397   1.961  24.213  0.00  0.00    +0.039 A 
ATOM     21  C   UNL     1       1.646   2.270  23.673  0.00  0.00    +0.017 A 
ATOM     22  C   UNL     1      -0.024   0.633  24.281  0.00  0.00    +0.017 A 
ATOM     23  C   UNL     1       2.473   1.251  23.202  0.00  0.00    +0.046 A 
ATOM     24  C   UNL     1       0.803  -0.386  23.809  0.00  0.00    +0.046 A 
ATOM     25  C   UNL     1       2.052  -0.078  23.270  0.00  0.00    +0.120 A 
BRANCH  25   3
ATOM      3  O   UNL     1       2.861  -1.072  22.813  0.00  0.00    -0.495 OA
ATOM     26  C   UNL     1       4.030  -1.361  23.578  0.00  0.00    +0.277 C 
ENDBRANCH  25   3
ENDBRANCH  19  20
ENDBRANCH  13  18
TORSDOF 7
ENDMDL
MODEL 4
REMARK VINA RESULT:      -1.5     18.254     20.405
REMARK  Name = 45784123
REMARK  11 active torsions:
REMARK  status: ('A' for Active; 'I' for Inactive)
REMARK    1  A    between atoms: O_1  and  C_14
REMARK    2  A    between atoms: O_3  and  C_25
REMARK    3  A    between atoms: O_3  and  C_26
REMARK    4  A    between atoms: C_6  and  C_10
REMARK    5  A    between atoms: C_8  and  C_14
REMARK    6  A    between atoms: C_9  and  C_13
REMARK    7  A    between atoms: C_10  and  C_15
REMARK    8  A    between atoms: C_10  and  C_16
REMARK    9  A    between atoms: C_11  and  C_17
REMARK   10  A    between atoms: C_13  and  C_18
REMARK   11  A    between atoms: C_19  and  C_20
REMARK                            x       y       z     vdW  Elec       q    Type
REMARK                         _______ _______ _______ _____ _____    ______ ____
ROOT
ATOM     13  C   UNL     1      -0.834   3.464  26.721  0.00  0.00    +0.105 C 
ENDROOT
BRANCH  13   9
ATOM      6  C   UNL     1      -3.792   3.186  25.484  0.00  0.00    +0.001 C 
ATOM      7  C   UNL     1      -3.198   4.304  26.355  0.00  0.00    +0.012 C 
ATOM      8  C   UNL     1      -3.634   3.529  23.981  0.00  0.00    +0.040 C 
ATOM      9  C   UNL     1      -1.703   4.540  26.061  0.00  0.00    +0.024 C 
ATOM     11  C   UNL     1      -1.429   4.622  24.573  0.00  0.00    -0.073 C 
ATOM     12  C   UNL     1      -2.309   4.177  23.659  0.00  0.00    -0.022 C 
ATOM     17  C   UNL     1      -0.136   5.269  24.158  0.00  0.00    +0.039 C 
BRANCH   6  10
ATOM     10  C   UNL     1      -5.257   2.955  25.865  0.00  0.00    -0.013 C 
ATOM     15  C   UNL     1      -5.833   1.783  25.077  0.00  0.00    +0.007 C 
ATOM     16  C   UNL     1      -6.074   4.221  25.627  0.00  0.00    +0.007 C 
ENDBRANCH   6  10
BRANCH   8  14
ATOM     14  C   UNL     1      -3.821   2.283  23.108  0.00  0.00    +0.163 C 
BRANCH  14   1
ATOM      1  O   UNL     1      -2.658   2.117  22.321  0.00  0.00    -0.394 OA
ATOM     27  H   UNL     1      -2.950   1.922  21.414  0.00  0.00    +0.209 HD
ENDBRANCH  14   1
ENDBRANCH   8  14
ENDBRANCH  13   9
BRANCH  13  18
ATOM      2  O   UNL     1      -1.630   1.357  25.781  0.00  0.00    -0.420 OA
ATOM      4  N   UNL     1       0.371   2.002  25.018  0.00  0.00    -0.112 NA
ATOM      5  N   UNL     1       0.047   0.804  24.408  0.00  0.00    -0.107 NA
ATOM     18  C   UNL     1      -0.635   2.285  25.810  0.00  0.00    +0.218 A 
ATOM     19  C   UNL     1      -1.129   0.465  24.883  0.00  0.00    +0.248 A 
BRANCH  19  20
ATOM     20  C   UNL     1      -1.951  -0.677  24.607  0.00  0.00    +0.039 A 
ATOM     21  C   UNL     1      -3.324  -0.519  24.419  0.00  0.00    +0.017 A 
ATOM     22  C   UNL     1      -1.377  -1.946  24.527  0.00  0.00    +0.017 A 
ATOM     23  C   UNL     1      -4.124  -1.629  24.151  0.00  0.00    +0.046 A 
ATOM     24  C   UNL     1      -2.177  -3.057  24.259  0.00  0.00    +0.046 A 
ATOM     25  C   UNL     1      -3.550  -2.899  24.070  0.00  0.00    +0.120 A 
BRANCH  25   3
ATOM      3  O   UNL     1      -4.330  -3.982  23.805  0.00  0.00    -0.495 OA
ATOM     26  C   UNL     1      -5.491  -3.766  23.004  0.00  0.00    +0.277 C 
ENDBRANCH  25   3
ENDBRANCH  19  20
ENDBRANCH  13  18
TORSDOF 7
ENDMDL
MODEL 5
REMARK VINA RESULT:      -1.2     17.640     19.102
REMARK  Name = 45784123
REMARK  11 active torsions:
REMARK  status: ('A' for Active; 'I' for Inactive)
REMARK    1  A    between atoms: O_1  and  C_14
REMARK    2  A    between atoms: O_3  and  C_25
REMARK    3  A    between atoms: O_3  and  C_26
REMARK    4  A    between atoms: C_6  and  C_10
REMARK    5  A    between atoms: C_8  and  C_14
REMARK    6  A    between atoms: C_9  and  C_13
REMARK    7  A    between atoms: C_10  and  C_15
REMARK    8  A    between atoms: C_10  and  C_16
REMARK    9  A    between atoms: C_11  and  C_17
REMARK   10  A    between atoms: C_13  and  C_18
REMARK   11  A    between atoms: C_19  and  C_20
REMARK                            x       y       z     vdW  Elec       q    Type
REMARK                         _______ _______ _______ _____ _____    ______ ____
ROOT
ATOM     13  C   UNL     1      -4.105   2.108  23.154  0.00  0.00    +0.105 C 
ENDROOT
BRANCH  13   9
ATOM      6  C   UNL     1      -2.062   3.898  24.877  0.00  0.00    +0.001 C 
ATOM      7  C   UNL     1      -3.238   4.338  23.992  0.00  0.00    +0.012 C 
ATOM      8  C   UNL     1      -2.523   3.735  26.348  0.00  0.00    +0.040 C 
ATOM      9  C   UNL     1      -4.404   3.330  24.029  0.00  0.00    +0.024 C 
ATOM     11  C   UNL     1      -4.742   2.914  25.446  0.00  0.00    -0.073 C 
ATOM     12  C   UNL     1      -3.895   3.114  26.471  0.00  0.00    -0.022 C 
ATOM     17  C   UNL     1      -6.097   2.301  25.665  0.00  0.00    +0.039 C 
BRANCH   6  10
ATOM     10  C   UNL     1      -0.913   4.903  24.750  0.00  0.00    -0.013 C 
ATOM     15  C   UNL     1      -1.438   6.329  24.876  0.00  0.00    +0.007 C 
ATOM     16  C   UNL     1      -0.182   4.710  23.425  0.00  0.00    +0.007 C 
ENDBRANCH   6  10
BRANCH   8  14
ATOM     14  C   UNL     1      -1.515   2.910  27.155  0.00  0.00    +0.163 C 
BRANCH  14   1
ATOM      1  O   UNL     1      -0.455   2.543  26.296  0.00  0.00    -0.394 OA
ATOM     27  H   UNL     1      -0.646   1.647  25.969  0.00  0.00    +0.209 HD
ENDBRANCH  14   1
ENDBRANCH   8  14
ENDBRANCH  13   9
BRANCH  13  18
ATOM      2  O   UNL     1      -1.744   1.495  23.084  0.00  0.00    -0.420 OA
ATOM      4  N   UNL     1      -2.912   0.459  24.686  0.00  0.00    -0.112 NA
ATOM      5  N   UNL     1      -1.603   0.021  24.761  0.00  0.00    -0.107 NA
ATOM     18  C   UNL     1      -2.948   1.317  23.694  0.00  0.00    +0.218 A 
ATOM     19  C   UNL     1      -0.958   0.652  23.807  0.00  0.00    +0.248 A 
BRANCH  19  20
ATOM     20  C   UNL     1       0.421   0.591  23.417  0.00  0.00    +0.039 A 
ATOM     21  C   UNL     1       1.311   1.576  23.847  0.00  0.00    +0.017 A 
ATOM     22  C   UNL     1       0.872  -0.452  22.609  0.00  0.00    +0.017 A 
ATOM     23  C   UNL     1       2.652   1.517  23.468  0.00  0.00    +0.046 A 
ATOM     24  C   UNL     1       2.213  -0.511  22.230  0.00  0.00    +0.046 A 
ATOM     25  C   UNL     1       3.104   0.473  22.660  0.00  0.00    +0.120 A 
BRANCH  25   3
ATOM      3  O   UNL     1       4.413   0.413  22.293  0.00  0.00    -0.495 OA
ATOM     26  C   UNL     1       5.362   0.132  23.320  0.00  0.00    +0.277 C 
ENDBRANCH  25   3
ENDBRANCH  19  20
ENDBRANCH  13  18
TORSDOF 7
ENDMDL
MODEL 6
REMARK VINA RESULT:      -0.8     16.750     18.087
REMARK  Name = 45784123
REMARK  11 active torsions:
REMARK  status: ('A' for Active; 'I' for Inactive)
REMARK    1  A    between atoms: O_1  and  C_14
REMARK    2  A    between atoms: O_3  and  C_25
REMARK    3  A    between atoms: O_3  and  C_26
REMARK    4  A    between atoms: C_6  and  C_10
REMARK    5  A    between atoms: C_8  and  C_14
REMARK    6  A    between atoms: C_9  and  C_13
REMARK    7  A    between atoms: C_10  and  C_15
REMARK    8  A    between atoms: C_10  and  C_16
REMARK    9  A    between atoms: C_11  and  C_17
REMARK   10  A    between atoms: C_13  and  C_18
REMARK   11  A    between atoms: C_19  and  C_20
REMARK                            x       y       z     vdW  Elec       q    Type
REMARK                         _______ _______ _______ _____ _____    ______ ____
ROOT
ATOM     13  C   UNL     1      -1.606   0.122  24.380  0.00  0.00    +0.105 C 
ENDROOT
BRANCH  13   9
ATOM      6  C   UNL     1      -3.523   2.669  24.814  0.00  0.00    +0.001 C 
ATOM      7  C   UNL     1      -2.994   2.055  23.508  0.00  0.00    +0.012 C 
ATOM      8  C   UNL     1      -4.910   2.075  25.169  0.00  0.00    +0.040 C 
ATOM      9  C   UNL     1      -2.861   0.522  23.597  0.00  0.00    +0.024 C 
ATOM     11  C   UNL     1      -4.099  -0.116  24.193  0.00  0.00    -0.073 C 
ATOM     12  C   UNL     1      -5.010   0.595  24.881  0.00  0.00    -0.022 C 
ATOM     17  C   UNL     1      -4.289  -1.587  23.942  0.00  0.00    +0.039 C 
BRANCH   6  10
ATOM     10  C   UNL     1      -3.573   4.194  24.686  0.00  0.00    -0.013 C 
ATOM     15  C   UNL     1      -3.934   4.596  23.260  0.00  0.00    +0.007 C 
ATOM     16  C   UNL     1      -2.239   4.807  25.100  0.00  0.00    +0.007 C 
ENDBRANCH   6  10
BRANCH   8  14
ATOM     14  C   UNL     1      -5.263   2.335  26.637  0.00  0.00    +0.163 C 
BRANCH  14   1
ATOM      1  O   UNL     1      -6.614   1.972  26.838  0.00  0.00    -0.394 OA
ATOM     27  H   UNL     1      -6.942   2.490  27.593  0.00  0.00    +0.209 HD
ENDBRANCH  14   1
ENDBRANCH   8  14
ENDBRANCH  13   9
BRANCH  13  18
ATOM      2  O   UNL     1       0.806   0.003  24.030  0.00  0.00    -0.420 OA
ATOM      4  N   UNL     1      -0.405  -0.323  22.178  0.00  0.00    -0.112 NA
ATOM      5  N   UNL     1       0.932  -0.416  21.837  0.00  0.00    -0.107 NA
ATOM     18  C   UNL     1      -0.430  -0.077  23.467  0.00  0.00    +0.218 A 
ATOM     19  C   UNL     1       1.601  -0.218  22.948  0.00  0.00    +0.248 A 
BRANCH  19  20
ATOM     20  C   UNL     1       3.014  -0.202  23.194  0.00  0.00    +0.039 A 
ATOM     21  C   UNL     1       3.757   0.946  22.914  0.00  0.00    +0.017 A 
ATOM     22  C   UNL     1       3.645  -1.332  23.713  0.00  0.00    +0.017 A 
ATOM     23  C   UNL     1       5.131   0.962  23.153  0.00  0.00    +0.046 A 
ATOM     24  C   UNL     1       5.019  -1.316  23.951  0.00  0.00    +0.046 A 
ATOM     25  C   UNL     1       5.763  -0.169  23.672  0.00  0.00    +0.120 A 
BRANCH  25   3
ATOM      3  O   UNL     1       7.102  -0.151  23.909  0.00  0.00    -0.495 OA
ATOM     26  C   UNL     1       7.956  -0.549  22.837  0.00  0.00    +0.277 C 
ENDBRANCH  25   3
ENDBRANCH  19  20
ENDBRANCH  13  18
TORSDOF 7
ENDMDL
MODEL 7
REMARK VINA RESULT:       0.0     18.530     20.793
REMARK  Name = 45784123
REMARK  11 active torsions:
REMARK  status: ('A' for Active; 'I' for Inactive)
REMARK    1  A    between atoms: O_1  and  C_14
REMARK    2  A    between atoms: O_3  and  C_25
REMARK    3  A    between atoms: O_3  and  C_26
REMARK    4  A    between atoms: C_6  and  C_10
REMARK    5  A    between atoms: C_8  and  C_14
REMARK    6  A    between atoms: C_9  and  C_13
REMARK    7  A    between atoms: C_10  and  C_15
REMARK    8  A    between atoms: C_10  and  C_16
REMARK    9  A    between atoms: C_11  and  C_17
REMARK   10  A    between atoms: C_13  and  C_18
REMARK   11  A    between atoms: C_19  and  C_20
REMARK                            x       y       z     vdW  Elec       q    Type
REMARK                         _______ _______ _______ _____ _____    ______ ____
ROOT
ATOM     13  C   UNL     1      -3.872   4.491  25.766  0.00  0.00    +0.105 C 
ENDROOT
BRANCH  13   9
ATOM      6  C   UNL     1      -1.778   2.462  24.406  0.00  0.00    +0.001 C 
ATOM      7  C   UNL     1      -2.824   3.374  23.746  0.00  0.00    +0.012 C 
ATOM      8  C   UNL     1      -0.408   3.182  24.488  0.00  0.00    +0.040 C 
ATOM      9  C   UNL     1      -3.012   4.697  24.514  0.00  0.00    +0.024 C 
ATOM     11  C   UNL     1      -1.684   5.335  24.867  0.00  0.00    -0.073 C 
ATOM     12  C   UNL     1      -0.530   4.647  24.838  0.00  0.00    -0.022 C 
ATOM     17  C   UNL     1      -1.708   6.799  25.214  0.00  0.00    +0.039 C 
BRANCH   6  10
ATOM     10  C   UNL     1      -1.682   1.141  23.637  0.00  0.00    -0.013 C 
ATOM     15  C   UNL     1      -0.228   0.697  23.525  0.00  0.00    +0.007 C 
ATOM     16  C   UNL     1      -2.313   1.283  22.256  0.00  0.00    +0.007 C 
ENDBRANCH   6  10
BRANCH   8  14
ATOM     14  C   UNL     1       0.520   2.491  25.494  0.00  0.00    +0.163 C 
BRANCH  14   1
ATOM      1  O   UNL     1      -0.212   2.253  26.679  0.00  0.00    -0.394 OA
ATOM     27  H   UNL     1      -1.156   2.322  26.454  0.00  0.00    +0.209 HD
ENDBRANCH  14   1
ENDBRANCH   8  14
ENDBRANCH  13   9
BRANCH  13  18
ATOM      2  O   UNL     1      -3.889   2.083  25.373  0.00  0.00    -0.420 OA
ATOM      4  N   UNL     1      -5.876   2.930  25.952  0.00  0.00    -0.112 NA
ATOM      5  N   UNL     1      -6.031   1.569  25.762  0.00  0.00    -0.107 NA
ATOM     18  C   UNL     1      -4.612   3.184  25.714  0.00  0.00    +0.218 A 
ATOM     19  C   UNL     1      -4.846   1.116  25.425  0.00  0.00    +0.248 A 
BRANCH  19  20
ATOM     20  C   UNL     1      -4.412  -0.214  25.110  0.00  0.00    +0.039 A 
ATOM     21  C   UNL     1      -4.765  -0.792  23.890  0.00  0.00    +0.017 A 
ATOM     22  C   UNL     1      -3.637  -0.929  26.023  0.00  0.00    +0.017 A 
ATOM     23  C   UNL     1      -4.344  -2.085  23.584  0.00  0.00    +0.046 A 
ATOM     24  C   UNL     1      -3.215  -2.222  25.717  0.00  0.00    +0.046 A 
ATOM     25  C   UNL     1      -3.567  -2.801  24.497  0.00  0.00    +0.120 A 
BRANCH  25   3
ATOM      3  O   UNL     1      -3.153  -4.062  24.197  0.00  0.00    -0.495 OA
ATOM     26  C   UNL     1      -2.147  -4.193  23.193  0.00  0.00    +0.277 C 
ENDBRANCH  25   3
ENDBRANCH  19  20
ENDBRANCH  13  18
TORSDOF 7
ENDMDL
