MODEL 1
REMARK VINA RESULT:       5.8      0.000      0.000
REMARK  Name = 44716630
REMARK  7 active torsions:
REMARK  status: ('A' for Active; 'I' for Inactive)
REMARK    1  A    between atoms: O_3  and  C_10
REMARK    2  A    between atoms: N_7  and  C_28
REMARK    3  A    between atoms: C_8  and  C_16
REMARK    4  A    between atoms: C_11  and  C_17
REMARK    5  A    between atoms: C_13  and  C_20
REMARK    6  A    between atoms: C_17  and  C_21
REMARK    7  A    between atoms: C_17  and  C_22
REMARK                            x       y       z     vdW  Elec       q    Type
REMARK                         _______ _______ _______ _____ _____    ______ ____
ROOT
ATOM      1  S   UNL     1      -5.989   1.981  25.997  0.00  0.00    -0.057 S 
ATOM      5  N   UNL     1      -4.603   3.948  25.051  0.00  0.00    -0.229 NA
ATOM      7  N   UNL     1      -6.727   4.535  25.910  0.00  0.00    -0.327 N 
ATOM      8  C   UNL     1      -2.714   0.231  24.228  0.00  0.00    -0.022 C 
ATOM      9  C   UNL     1      -1.736   1.451  24.450  0.00  0.00    +0.033 C 
ATOM     10  C   UNL     1      -0.454   1.316  23.583  0.00  0.00    +0.123 C 
ATOM     11  C   UNL     1       0.243  -0.052  23.754  0.00  0.00    +0.029 C 
ATOM     12  C   UNL     1      -1.947  -1.096  24.439  0.00  0.00    +0.008 C 
ATOM     13  C   UNL     1      -2.474   2.841  24.273  0.00  0.00    +0.042 C 
ATOM     14  C   UNL     1      -0.717  -1.225  23.553  0.00  0.00    +0.007 C 
ATOM     15  C   UNL     1      -3.865   0.278  25.280  0.00  0.00    +0.051 C 
ATOM     16  C   UNL     1      -3.332   0.233  22.805  0.00  0.00    +0.012 C 
ATOM     18  C   UNL     1      -3.840   2.802  24.916  0.00  0.00    +0.057 A 
ATOM     19  C   UNL     1      -4.450   1.644  25.352  0.00  0.00    +0.015 A 
ATOM     20  C   UNL     1      -1.670   4.029  24.824  0.00  0.00    +0.014 C 
ATOM     23  C   UNL     1      -5.748   3.638  25.618  0.00  0.00    +0.158 A 
ATOM     28  C   UNL     1      -6.646   5.966  25.636  0.00  0.00    +0.127 C 
ATOM     30  H   UNL     1      -7.585   4.214  26.349  0.00  0.00    +0.148 HD
ENDROOT
BRANCH  10   3
ATOM      3  O   UNL     1       0.485   2.319  23.965  0.00  0.00    -0.391 OA
ATOM     29  H   UNL     1       0.447   3.035  23.309  0.00  0.00    +0.210 HD
ENDBRANCH  10   3
BRANCH  11  17
ATOM     17  C   UNL     1       1.443  -0.203  22.811  0.00  0.00    +0.078 C 
ATOM     21  C   UNL     1       1.027  -0.825  21.491  0.00  0.00    +0.017 C 
BRANCH  17  22
ATOM      2  S   UNL     1       6.480   0.639  23.950  0.00  0.00    -0.158 S 
ATOM      4  O   UNL     1       2.115  -1.933  24.283  0.00  0.00    -0.275 OA
ATOM      6  N   UNL     1       3.812  -0.815  23.155  0.00  0.00    -0.300 N 
ATOM     22  C   UNL     1       2.480  -1.064  23.486  0.00  0.00    +0.219 C 
ATOM     24  C   UNL     1       4.876  -1.613  23.771  0.00  0.00    +0.118 C 
ATOM     25  C   UNL     1       4.282   0.284  22.304  0.00  0.00    +0.118 C 
ATOM     26  C   UNL     1       5.684  -0.785  24.763  0.00  0.00    +0.088 C 
ATOM     27  C   UNL     1       5.015   1.340  23.124  0.00  0.00    +0.088 C 
ENDBRANCH  17  22
ENDBRANCH  11  17
TORSDOF 3
ENDMDL
