MODEL 1
REMARK VINA RESULT:       3.5      0.000      0.000
REMARK  Name = 26763589
REMARK  4 active torsions:
REMARK  status: ('A' for Active; 'I' for Inactive)
REMARK    1  A    between atoms: S_1  and  N_8
REMARK    2  A    between atoms: S_1  and  C_25
REMARK    3  A    between atoms: N_10  and  C_18
REMARK    4  A    between atoms: C_13  and  C_17
REMARK                            x       y       z     vdW  Elec       q    Type
REMARK                         _______ _______ _______ _____ _____    ______ ____
ROOT
ATOM      5  O   UNL     1       5.545   0.016  24.007  0.00  0.00    -0.377 OA
ATOM      6  O   UNL     1       1.560  -0.023  21.019  0.00  0.00    -0.252 OA
ATOM      8  N   UNL     1      -1.692  -0.688  24.641  0.00  0.00    -0.167 NA
ATOM      9  N   UNL     1       0.709  -0.808  23.011  0.00  0.00    -0.282 N 
ATOM     11  N   UNL     1       3.038  -0.301  22.760  0.00  0.00    -0.281 N 
ATOM     13  C   UNL     1      -0.364  -0.360  25.229  0.00  0.00    +0.182 C 
ATOM     14  C   UNL     1       0.803  -0.988  24.468  0.00  0.00    +0.139 C 
ATOM     15  C   UNL     1      -1.646  -1.481  23.384  0.00  0.00    +0.129 C 
ATOM     16  C   UNL     1      -0.634  -0.854  22.439  0.00  0.00    +0.126 C 
ATOM     19  C   UNL     1       1.760  -0.366  22.192  0.00  0.00    +0.305 C 
ATOM     22  C   UNL     1       3.978   0.716  22.290  0.00  0.00    +0.137 C 
ATOM     23  C   UNL     1       3.688  -1.426  23.442  0.00  0.00    +0.137 C 
ATOM     27  C   UNL     1       4.890   1.150  23.430  0.00  0.00    +0.179 C 
ATOM     28  C   UNL     1       4.599  -0.912  24.546  0.00  0.00    +0.179 C 
ENDROOT
BRANCH   8   1
ATOM      1  S   UNL     1      -2.946  -1.080  25.734  0.00  0.00    +0.030 S 
ATOM      3  O   UNL     1      -4.064  -0.192  25.498  0.00  0.00    -0.158 OA
ATOM      4  O   UNL     1      -2.377  -1.253  27.053  0.00  0.00    -0.158 OA
ATOM     25  C   UNL     1      -3.378  -2.682  25.108  0.00  0.00    +0.215 C 
ENDBRANCH   8   1
BRANCH  13  17
ATOM      2  O   UNL     1       0.707   1.733  24.839  0.00  0.00    -0.274 OA
ATOM     10  N   UNL     1      -1.472   1.716  25.661  0.00  0.00    -0.303 N 
ATOM     17  C   UNL     1      -0.300   1.134  25.208  0.00  0.00    +0.234 C 
ATOM     29  H   UNL     1      -2.247   1.118  25.931  0.00  0.00    +0.149 HD
BRANCH  10  18
ATOM      7  O   UNL     1      -4.025   2.689  25.663  0.00  0.00    -0.274 OA
ATOM     12  N   UNL     1      -3.326   4.693  24.817  0.00  0.00    -0.314 N 
ATOM     18  C   UNL     1      -1.656   3.141  25.759  0.00  0.00    +0.159 C 
ATOM     20  C   UNL     1      -0.617   3.879  24.927  0.00  0.00    +0.033 C 
ATOM     21  C   UNL     1      -0.942   5.364  24.907  0.00  0.00    +0.021 C 
ATOM     24  C   UNL     1      -3.100   3.454  25.382  0.00  0.00    +0.233 C 
ATOM     26  C   UNL     1      -2.303   5.565  24.269  0.00  0.00    +0.104 C 
ATOM     30  H   UNL     1      -4.291   4.936  24.615  0.00  0.00    +0.149 HD
ENDBRANCH  10  18
ENDBRANCH  13  17
TORSDOF 3
ENDMDL
MODEL 2
REMARK VINA RESULT:       4.9      2.156      5.671
REMARK  Name = 26763589
REMARK  4 active torsions:
REMARK  status: ('A' for Active; 'I' for Inactive)
REMARK    1  A    between atoms: S_1  and  N_8
REMARK    2  A    between atoms: S_1  and  C_25
REMARK    3  A    between atoms: N_10  and  C_18
REMARK    4  A    between atoms: C_13  and  C_17
REMARK                            x       y       z     vdW  Elec       q    Type
REMARK                         _______ _______ _______ _____ _____    ______ ____
ROOT
ATOM      5  O   UNL     1      -5.428  -0.909  23.993  0.00  0.00    -0.377 OA
ATOM      6  O   UNL     1      -1.468  -1.358  26.981  0.00  0.00    -0.252 OA
ATOM      8  N   UNL     1       1.809  -0.068  23.557  0.00  0.00    -0.167 NA
ATOM      9  N   UNL     1      -0.512  -1.193  24.891  0.00  0.00    -0.282 N 
ATOM     11  N   UNL     1      -2.891  -1.226  25.178  0.00  0.00    -0.281 N 
ATOM     13  C   UNL     1       0.437   0.219  23.055  0.00  0.00    +0.182 C 
ATOM     14  C   UNL     1      -0.588  -0.837  23.466  0.00  0.00    +0.139 C 
ATOM     15  C   UNL     1       1.922  -1.263  24.434  0.00  0.00    +0.129 C 
ATOM     16  C   UNL     1       0.824  -1.215  25.482  0.00  0.00    +0.126 C 
ATOM     19  C   UNL     1      -1.616  -1.273  25.755  0.00  0.00    +0.305 C 
ATOM     22  C   UNL     1      -3.994  -0.633  25.932  0.00  0.00    +0.137 C 
ATOM     23  C   UNL     1      -3.334  -2.113  24.097  0.00  0.00    +0.137 C 
ATOM     27  C   UNL     1      -4.983   0.026  24.979  0.00  0.00    +0.179 C 
ATOM     28  C   UNL     1      -4.335  -1.395  23.206  0.00  0.00    +0.179 C 
ENDROOT
BRANCH   8   1
ATOM      1  S   UNL     1       3.101   0.194  22.469  0.00  0.00    +0.030 S 
ATOM      3  O   UNL     1       3.682   1.492  22.739  0.00  0.00    -0.158 OA
ATOM      4  O   UNL     1       2.675  -0.187  21.140  0.00  0.00    -0.158 OA
ATOM     25  C   UNL     1       4.226  -1.043  23.060  0.00  0.00    +0.215 C 
ENDBRANCH   8   1
BRANCH  13  17
ATOM      2  O   UNL     1       0.975   2.361  23.953  0.00  0.00    -0.274 OA
ATOM     10  N   UNL     1      -1.263   1.766  23.714  0.00  0.00    -0.303 N 
ATOM     17  C   UNL     1       0.103   1.564  23.615  0.00  0.00    +0.234 C 
ATOM     29  H   UNL     1      -1.894   1.038  23.393  0.00  0.00    +0.149 HD
BRANCH  10  18
ATOM      7  O   UNL     1      -0.726   2.424  26.312  0.00  0.00    -0.274 OA
ATOM     12  N   UNL     1      -2.677   3.602  26.479  0.00  0.00    -0.314 N 
ATOM     18  C   UNL     1      -1.844   2.972  24.244  0.00  0.00    +0.159 C 
ATOM     20  C   UNL     1      -3.274   3.147  23.750  0.00  0.00    +0.033 C 
ATOM     21  C   UNL     1      -3.918   4.327  24.460  0.00  0.00    +0.021 C 
ATOM     24  C   UNL     1      -1.706   2.932  25.763  0.00  0.00    +0.233 C 
ATOM     26  C   UNL     1      -3.952   4.049  25.951  0.00  0.00    +0.104 C 
ATOM     30  H   UNL     1      -2.563   3.632  27.488  0.00  0.00    +0.149 HD
ENDBRANCH  10  18
ENDBRANCH  13  17
TORSDOF 3
ENDMDL
MODEL 3
REMARK VINA RESULT:       6.1      2.512      6.583
REMARK  Name = 26763589
REMARK  4 active torsions:
REMARK  status: ('A' for Active; 'I' for Inactive)
REMARK    1  A    between atoms: S_1  and  N_8
REMARK    2  A    between atoms: S_1  and  C_25
REMARK    3  A    between atoms: N_10  and  C_18
REMARK    4  A    between atoms: C_13  and  C_17
REMARK                            x       y       z     vdW  Elec       q    Type
REMARK                         _______ _______ _______ _____ _____    ______ ____
ROOT
ATOM      5  O   UNL     1      -3.044  -3.391  26.045  0.00  0.00    -0.377 OA
ATOM      6  O   UNL     1      -4.992   0.140  23.120  0.00  0.00    -0.252 OA
ATOM      8  N   UNL     1      -1.794   3.622  24.455  0.00  0.00    -0.167 NA
ATOM      9  N   UNL     1      -3.589   1.339  24.500  0.00  0.00    -0.282 N 
ATOM     11  N   UNL     1      -3.887  -1.023  24.769  0.00  0.00    -0.281 N 
ATOM     13  C   UNL     1      -1.327   2.306  24.968  0.00  0.00    +0.182 C 
ATOM     14  C   UNL     1      -2.466   1.407  25.448  0.00  0.00    +0.139 C 
ATOM     15  C   UNL     1      -3.271   3.795  24.414  0.00  0.00    +0.129 C 
ATOM     16  C   UNL     1      -3.896   2.568  23.771  0.00  0.00    +0.126 C 
ATOM     19  C   UNL     1      -4.209   0.151  24.079  0.00  0.00    +0.305 C 
ATOM     22  C   UNL     1      -3.899  -2.298  24.052  0.00  0.00    +0.137 C 
ATOM     23  C   UNL     1      -3.987  -1.172  26.225  0.00  0.00    +0.137 C 
ATOM     27  C   UNL     1      -2.849  -3.235  24.635  0.00  0.00    +0.179 C 
ATOM     28  C   UNL     1      -2.926  -2.138  26.727  0.00  0.00    +0.179 C 
ENDROOT
BRANCH   8   1
ATOM      1  S   UNL     1      -0.887   4.997  24.912  0.00  0.00    +0.030 S 
ATOM      3  O   UNL     1       0.136   4.589  25.850  0.00  0.00    -0.158 OA
ATOM      4  O   UNL     1      -1.800   6.081  25.204  0.00  0.00    -0.158 OA
ATOM     25  C   UNL     1      -0.100   5.347  23.361  0.00  0.00    +0.215 C 
ENDBRANCH   8   1
BRANCH  13  17
ATOM      2  O   UNL     1      -1.143   1.410  22.766  0.00  0.00    -0.274 OA
ATOM     10  N   UNL     1       0.753   1.488  24.116  0.00  0.00    -0.303 N 
ATOM     17  C   UNL     1      -0.584   1.695  23.823  0.00  0.00    +0.234 C 
ATOM     29  H   UNL     1       1.110   1.774  25.022  0.00  0.00    +0.149 HD
BRANCH  10  18
ATOM      7  O   UNL     1       0.868  -1.239  23.980  0.00  0.00    -0.274 OA
ATOM     12  N   UNL     1       3.030  -1.171  23.245  0.00  0.00    -0.314 N 
ATOM     18  C   UNL     1       1.679   0.892  23.187  0.00  0.00    +0.159 C 
ATOM     20  C   UNL     1       2.994   1.658  23.167  0.00  0.00    +0.033 C 
ATOM     21  C   UNL     1       4.007   0.909  22.317  0.00  0.00    +0.021 C 
ATOM     24  C   UNL     1       1.818  -0.584  23.546  0.00  0.00    +0.233 C 
ATOM     26  C   UNL     1       4.253  -0.457  22.929  0.00  0.00    +0.104 C 
ATOM     30  H   UNL     1       3.115  -2.167  23.425  0.00  0.00    +0.149 HD
ENDBRANCH  10  18
ENDBRANCH  13  17
TORSDOF 3
ENDMDL
MODEL 4
REMARK VINA RESULT:       6.3      2.139      5.689
REMARK  Name = 26763589
REMARK  4 active torsions:
REMARK  status: ('A' for Active; 'I' for Inactive)
REMARK    1  A    between atoms: S_1  and  N_8
REMARK    2  A    between atoms: S_1  and  C_25
REMARK    3  A    between atoms: N_10  and  C_18
REMARK    4  A    between atoms: C_13  and  C_17
REMARK                            x       y       z     vdW  Elec       q    Type
REMARK                         _______ _______ _______ _____ _____    ______ ____
ROOT
ATOM      5  O   UNL     1      -6.054   1.398  24.496  0.00  0.00    -0.377 OA
ATOM      6  O   UNL     1      -2.653  -1.315  26.922  0.00  0.00    -0.252 OA
ATOM      8  N   UNL     1       0.981  -0.398  23.745  0.00  0.00    -0.167 NA
ATOM      9  N   UNL     1      -1.636  -0.922  24.892  0.00  0.00    -0.282 N 
ATOM     11  N   UNL     1      -3.861  -0.157  25.344  0.00  0.00    -0.281 N 
ATOM     13  C   UNL     1      -0.165   0.505  23.452  0.00  0.00    +0.182 C 
ATOM     14  C   UNL     1      -1.526  -0.169  23.633  0.00  0.00    +0.139 C 
ATOM     15  C   UNL     1       0.608  -1.749  24.243  0.00  0.00    +0.129 C 
ATOM     16  C   UNL     1      -0.425  -1.602  25.347  0.00  0.00    +0.126 C 
ATOM     19  C   UNL     1      -2.718  -0.834  25.783  0.00  0.00    +0.305 C 
ATOM     22  C   UNL     1      -4.686   0.558  26.318  0.00  0.00    +0.137 C 
ATOM     23  C   UNL     1      -4.569  -0.468  24.097  0.00  0.00    +0.137 C 
ATOM     27  C   UNL     1      -5.323   1.779  25.667  0.00  0.00    +0.179 C 
ATOM     28  C   UNL     1      -5.197   0.792  23.523  0.00  0.00    +0.179 C 
ENDROOT
BRANCH   8   1
ATOM      1  S   UNL     1       2.312  -0.330  22.676  0.00  0.00    +0.030 S 
ATOM      3  O   UNL     1       1.821  -0.381  21.316  0.00  0.00    -0.158 OA
ATOM      4  O   UNL     1       3.337  -1.235  23.150  0.00  0.00    -0.158 OA
ATOM     25  C   UNL     1       2.853   1.328  23.000  0.00  0.00    +0.215 C 
ENDBRANCH   8   1
BRANCH  13  17
ATOM      2  O   UNL     1       0.860   1.646  25.276  0.00  0.00    -0.274 OA
ATOM     10  N   UNL     1      -0.891   2.678  24.140  0.00  0.00    -0.303 N 
ATOM     17  C   UNL     1       0.011   1.657  24.389  0.00  0.00    +0.234 C 
ATOM     29  H   UNL     1      -1.545   2.582  23.369  0.00  0.00    +0.149 HD
BRANCH  10  18
ATOM      7  O   UNL     1      -2.624   2.783  26.250  0.00  0.00    -0.274 OA
ATOM     12  N   UNL     1      -2.767   5.058  26.097  0.00  0.00    -0.314 N 
ATOM     18  C   UNL     1      -0.942   3.889  24.918  0.00  0.00    +0.159 C 
ATOM     20  C   UNL     1      -0.845   5.114  24.019  0.00  0.00    +0.033 C 
ATOM     21  C   UNL     1      -1.079   6.370  24.843  0.00  0.00    +0.021 C 
ATOM     24  C   UNL     1      -2.201   3.841  25.778  0.00  0.00    +0.233 C 
ATOM     26  C   UNL     1      -2.472   6.318  25.441  0.00  0.00    +0.104 C 
ATOM     30  H   UNL     1      -3.571   5.042  26.717  0.00  0.00    +0.149 HD
ENDBRANCH  10  18
ENDBRANCH  13  17
TORSDOF 3
ENDMDL
MODEL 5
REMARK VINA RESULT:       7.0      2.017      5.855
REMARK  Name = 26763589
REMARK  4 active torsions:
REMARK  status: ('A' for Active; 'I' for Inactive)
REMARK    1  A    between atoms: S_1  and  N_8
REMARK    2  A    between atoms: S_1  and  C_25
REMARK    3  A    between atoms: N_10  and  C_18
REMARK    4  A    between atoms: C_13  and  C_17
REMARK                            x       y       z     vdW  Elec       q    Type
REMARK                         _______ _______ _______ _____ _____    ______ ____
ROOT
ATOM      5  O   UNL     1      -1.923   6.059  24.374  0.00  0.00    -0.377 OA
ATOM      6  O   UNL     1       0.523   2.606  27.003  0.00  0.00    -0.252 OA
ATOM      8  N   UNL     1      -1.764  -1.216  24.932  0.00  0.00    -0.167 NA
ATOM      9  N   UNL     1      -1.197   1.401  26.056  0.00  0.00    -0.282 N 
ATOM     11  N   UNL     1      -1.004   3.767  25.734  0.00  0.00    -0.281 N 
ATOM     13  C   UNL     1      -2.083   0.019  24.165  0.00  0.00    +0.182 C 
ATOM     14  C   UNL     1      -2.263   1.250  25.053  0.00  0.00    +0.139 C 
ATOM     15  C   UNL     1      -1.589  -1.023  26.396  0.00  0.00    +0.129 C 
ATOM     16  C   UNL     1      -0.671   0.165  26.632  0.00  0.00    +0.126 C 
ATOM     19  C   UNL     1      -0.504   2.595  26.312  0.00  0.00    +0.305 C 
ATOM     22  C   UNL     1      -0.075   4.833  25.362  0.00  0.00    +0.137 C 
ATOM     23  C   UNL     1      -2.390   4.227  25.882  0.00  0.00    +0.137 C 
ATOM     27  C   UNL     1      -0.595   5.579  24.140  0.00  0.00    +0.179 C 
ATOM     28  C   UNL     1      -2.827   4.981  24.636  0.00  0.00    +0.179 C 
ENDROOT
BRANCH   8   1
ATOM      1  S   UNL     1      -2.559  -2.651  24.452  0.00  0.00    +0.030 S 
ATOM      3  O   UNL     1      -3.063  -3.322  25.630  0.00  0.00    -0.158 OA
ATOM      4  O   UNL     1      -1.735  -3.337  23.480  0.00  0.00    -0.158 OA
ATOM     25  C   UNL     1      -3.939  -1.939  23.595  0.00  0.00    +0.215 C 
ENDBRANCH   8   1
BRANCH  13  17
ATOM      2  O   UNL     1      -1.093   0.631  22.085  0.00  0.00    -0.274 OA
ATOM     10  N   UNL     1       0.261  -0.245  23.764  0.00  0.00    -0.303 N 
ATOM     17  C   UNL     1      -0.938   0.182  23.217  0.00  0.00    +0.234 C 
ATOM     29  H   UNL     1       0.272  -0.591  24.719  0.00  0.00    +0.149 HD
BRANCH  10  18
ATOM      7  O   UNL     1       2.055  -2.257  24.210  0.00  0.00    -0.274 OA
ATOM     12  N   UNL     1       3.804  -0.907  23.627  0.00  0.00    -0.314 N 
ATOM     18  C   UNL     1       1.509  -0.214  23.047  0.00  0.00    +0.159 C 
ATOM     20  C   UNL     1       2.046   1.208  22.958  0.00  0.00    +0.033 C 
ATOM     21  C   UNL     1       3.441   1.189  22.355  0.00  0.00    +0.021 C 
ATOM     24  C   UNL     1       2.459  -1.202  23.715  0.00  0.00    +0.233 C 
ATOM     26  C   UNL     1       4.358   0.381  23.254  0.00  0.00    +0.104 C 
ATOM     30  H   UNL     1       4.449  -1.588  24.017  0.00  0.00    +0.149 HD
ENDBRANCH  10  18
ENDBRANCH  13  17
TORSDOF 3
ENDMDL
