MODEL 1
REMARK VINA RESULT:      -2.7      0.000      0.000
REMARK  Name = 11912450
REMARK  5 active torsions:
REMARK  status: ('A' for Active; 'I' for Inactive)
REMARK    1  A    between atoms: N_5  and  C_15
REMARK    2  A    between atoms: C_8  and  C_13
REMARK    3  A    between atoms: C_9  and  C_14
REMARK    4  A    between atoms: C_13  and  C_22
REMARK    5  A    between atoms: C_14  and  C_23
REMARK                            x       y       z     vdW  Elec       q    Type
REMARK                         _______ _______ _______ _____ _____    ______ ____
ROOT
ATOM      2  O   UNL     1      16.951  -8.388  30.233  0.00  0.00    -0.253 OA
ATOM      4  N   UNL     1      14.770  -8.632  30.984  0.00  0.00    -0.285 N 
ATOM      5  N   UNL     1      15.368  -9.142  28.754  0.00  0.00    -0.296 N 
ATOM      8  C   UNL     1      12.447  -7.777  31.103  0.00  0.00    +0.010 C 
ATOM      9  C   UNL     1      12.761  -7.224  32.518  0.00  0.00    +0.004 C 
ATOM     10  C   UNL     1      14.264  -6.950  32.705  0.00  0.00    +0.023 C 
ATOM     11  C   UNL     1      13.354  -8.984  30.809  0.00  0.00    +0.113 C 
ATOM     12  C   UNL     1      15.105  -8.170  32.332  0.00  0.00    +0.109 C 
ATOM     18  C   UNL     1      15.777  -8.702  30.007  0.00  0.00    +0.302 C 
ATOM     27  H   UNL     1      14.450  -9.540  28.622  0.00  0.00    +0.151 HD
ENDROOT
BRANCH   5  15
ATOM     15  C   UNL     1      16.286  -9.259  27.643  0.00  0.00    +0.074 C 
ATOM     16  C   UNL     1      16.158 -10.628  26.966  0.00  0.00    +0.022 C 
ATOM     17  C   UNL     1      16.083  -8.120  26.638  0.00  0.00    +0.022 C 
ATOM     19  C   UNL     1      14.860 -10.769  26.172  0.00  0.00    +0.002 C 
ATOM     20  C   UNL     1      14.784  -8.266  25.845  0.00  0.00    +0.002 C 
ATOM     21  C   UNL     1      14.685  -9.631  25.171  0.00  0.00    +0.000 C 
ENDBRANCH   5  15
BRANCH   8  13
ATOM     13  C   UNL     1      12.563  -6.735  29.986  0.00  0.00    +0.002 C 
ATOM     22  C   UNL     1      13.785  -5.860  30.176  0.00  0.00    +0.004 C 
ENDBRANCH   8  13
BRANCH   9  14
ATOM     14  C   UNL     1      11.940  -5.984  32.873  0.00  0.00    +0.100 C 
BRANCH  14  23
ATOM      1  S   UNL     1       8.969  -9.956  32.814  0.00  0.00    -0.061 S 
ATOM      3  O   UNL     1       9.622  -5.342  32.827  0.00  0.00    -0.275 OA
ATOM      6  N   UNL     1      10.208  -7.621  32.840  0.00  0.00    -0.265 N 
ATOM      7  N   UNL     1       7.775  -7.663  32.791  0.00  0.00    -0.233 NA
ATOM     23  C   UNL     1      10.446  -6.250  32.844  0.00  0.00    +0.219 C 
ATOM     24  C   UNL     1       8.956  -8.240  32.815  0.00  0.00    +0.164 A 
ATOM     25  C   UNL     1       7.254  -9.945  32.780  0.00  0.00    +0.068 A 
ATOM     26  C   UNL     1       6.801  -8.643  32.770  0.00  0.00    +0.120 A 
ATOM     28  H   UNL     1      10.999  -8.261  32.856  0.00  0.00    +0.157 HD
ENDBRANCH  14  23
ENDBRANCH   9  14
TORSDOF 4
ENDMDL
