MODEL 1
REMARK VINA RESULT:      -4.6      0.000      0.000
REMARK  Name = 56774794
REMARK  9 active torsions:
REMARK  status: ('A' for Active; 'I' for Inactive)
REMARK    1  A    between atoms: O_2  and  C_10
REMARK    2  A    between atoms: O_5  and  C_27
REMARK    3  A    between atoms: O_5  and  C_28
REMARK    4  A    between atoms: N_6  and  C_12
REMARK    5  A    between atoms: N_7  and  C_21
REMARK    6  A    between atoms: C_9  and  C_10
REMARK    7  A    between atoms: C_10  and  C_14
REMARK    8  A    between atoms: C_12  and  C_16
REMARK    9  A    between atoms: C_26  and  C_27
REMARK                            x       y       z     vdW  Elec       q    Type
REMARK                         _______ _______ _______ _____ _____    ______ ____
ROOT
ATOM     10  C   UNL     1      -2.852   2.170  23.813  0.00  0.00    +0.167 C 
ENDROOT
BRANCH  10   9
ATOM      1  O   UNL     1      -4.390   4.036  25.474  0.00  0.00    -0.369 OA
ATOM      3  O   UNL     1      -7.040   1.663  24.845  0.00  0.00    -0.273 OA
ATOM      6  N   UNL     1      -4.758   1.281  25.102  0.00  0.00    -0.287 N 
ATOM      9  C   UNL     1      -3.417   1.869  25.204  0.00  0.00    +0.135 C 
ATOM     11  C   UNL     1      -3.464   3.129  26.061  0.00  0.00    +0.185 C 
ATOM     13  C   UNL     1      -5.905   2.073  25.099  0.00  0.00    +0.242 C 
ATOM     15  C   UNL     1      -5.703   3.521  25.526  0.00  0.00    +0.255 C 
BRANCH   6  12
ATOM     12  C   UNL     1      -4.847  -0.145  24.817  0.00  0.00    +0.145 C 
BRANCH  12  16
ATOM      8  N   UNL     1      -1.941  -2.502  24.268  0.00  0.00    -0.263 NA
ATOM     16  C   UNL     1      -3.530  -0.840  25.014  0.00  0.00    -0.012 A 
ATOM     22  C   UNL     1      -2.694  -0.503  26.072  0.00  0.00    +0.008 A 
ATOM     23  C   UNL     1      -3.112  -1.836  24.147  0.00  0.00    +0.115 A 
ATOM     24  C   UNL     1      -1.481  -1.164  26.229  0.00  0.00    +0.020 A 
ATOM     25  C   UNL     1      -1.154  -2.147  25.309  0.00  0.00    +0.111 A 
ENDBRANCH  12  16
ENDBRANCH   6  12
ENDBRANCH  10   9
BRANCH  10  14
ATOM     14  C   UNL     1      -1.369   1.905  23.740  0.00  0.00    -0.017 A 
ATOM     17  C   UNL     1      -0.898   0.736  23.143  0.00  0.00    +0.008 A 
ATOM     18  C   UNL     1      -0.469   2.829  24.272  0.00  0.00    +0.008 A 
ATOM     19  C   UNL     1       0.474   0.492  23.077  0.00  0.00    +0.023 A 
ATOM     20  C   UNL     1       0.902   2.584  24.205  0.00  0.00    +0.023 A 
ATOM     21  C   UNL     1       1.374   1.415  23.607  0.00  0.00    +0.033 A 
BRANCH  21   7
ATOM      4  O   UNL     1       3.020   0.092  21.463  0.00  0.00    -0.273 OA
ATOM      7  N   UNL     1       2.746   1.171  23.540  0.00  0.00    -0.284 N 
ATOM     26  C   UNL     1       3.466   0.550  22.511  0.00  0.00    +0.243 C 
ATOM     30  H   UNL     1       3.283   1.488  24.345  0.00  0.00    +0.155 HD
BRANCH  26  27
ATOM     27  C   UNL     1       4.946   0.472  22.815  0.00  0.00    +0.255 C 
BRANCH  27   5
ATOM      5  O   UNL     1       5.125  -0.206  24.041  0.00  0.00    -0.374 OA
ATOM     28  C   UNL     1       4.756  -1.578  23.946  0.00  0.00    +0.194 C 
ENDBRANCH  27   5
ENDBRANCH  26  27
ENDBRANCH  21   7
ENDBRANCH  10  14
BRANCH  10   2
ATOM      2  O   UNL     1      -3.525   1.368  22.848  0.00  0.00    -0.385 OA
ATOM     29  H   UNL     1      -3.284   0.436  22.982  0.00  0.00    +0.210 HD
ENDBRANCH  10   2
TORSDOF 8
ENDMDL
MODEL 2
REMARK VINA RESULT:      -3.6      1.575      2.362
REMARK  Name = 56774794
REMARK  9 active torsions:
REMARK  status: ('A' for Active; 'I' for Inactive)
REMARK    1  A    between atoms: O_2  and  C_10
REMARK    2  A    between atoms: O_5  and  C_27
REMARK    3  A    between atoms: O_5  and  C_28
REMARK    4  A    between atoms: N_6  and  C_12
REMARK    5  A    between atoms: N_7  and  C_21
REMARK    6  A    between atoms: C_9  and  C_10
REMARK    7  A    between atoms: C_10  and  C_14
REMARK    8  A    between atoms: C_12  and  C_16
REMARK    9  A    between atoms: C_26  and  C_27
REMARK                            x       y       z     vdW  Elec       q    Type
REMARK                         _______ _______ _______ _____ _____    ______ ____
ROOT
ATOM     10  C   UNL     1      -3.041   3.403  26.251  0.00  0.00    +0.167 C 
ENDROOT
BRANCH  10   9
ATOM      1  O   UNL     1      -3.480   4.056  23.425  0.00  0.00    -0.369 OA
ATOM      3  O   UNL     1      -3.316   0.466  23.063  0.00  0.00    -0.273 OA
ATOM      6  N   UNL     1      -4.159   1.726  24.829  0.00  0.00    -0.287 N 
ATOM      9  C   UNL     1      -4.291   3.055  25.439  0.00  0.00    +0.135 C 
ATOM     11  C   UNL     1      -4.552   4.099  24.360  0.00  0.00    +0.185 C 
ATOM     13  C   UNL     1      -3.611   1.555  23.559  0.00  0.00    +0.242 C 
ATOM     15  C   UNL     1      -3.464   2.827  22.733  0.00  0.00    +0.255 C 
BRANCH   6  12
ATOM     12  C   UNL     1      -4.449   0.570  25.667  0.00  0.00    +0.145 C 
BRANCH  12  16
ATOM      8  N   UNL     1      -1.867  -2.135  25.100  0.00  0.00    -0.263 NA
ATOM     16  C   UNL     1      -3.797  -0.679  25.146  0.00  0.00    -0.012 A 
ATOM     22  C   UNL     1      -4.463  -1.520  24.262  0.00  0.00    +0.008 A 
ATOM     23  C   UNL     1      -2.513  -1.028  25.532  0.00  0.00    +0.115 A 
ATOM     24  C   UNL     1      -3.833  -2.669  23.796  0.00  0.00    +0.020 A 
ATOM     25  C   UNL     1      -2.546  -2.929  24.241  0.00  0.00    +0.111 A 
ENDBRANCH  12  16
ENDBRANCH   6  12
ENDBRANCH  10   9
BRANCH  10  14
ATOM     14  C   UNL     1      -1.781   2.923  25.575  0.00  0.00    -0.017 A 
ATOM     17  C   UNL     1      -1.289   1.646  25.841  0.00  0.00    +0.008 A 
ATOM     18  C   UNL     1      -1.107   3.759  24.684  0.00  0.00    +0.008 A 
ATOM     19  C   UNL     1      -0.123   1.203  25.215  0.00  0.00    +0.023 A 
ATOM     20  C   UNL     1       0.057   3.317  24.058  0.00  0.00    +0.023 A 
ATOM     21  C   UNL     1       0.549   2.038  24.324  0.00  0.00    +0.033 A 
BRANCH  21   7
ATOM      4  O   UNL     1       1.029  -0.346  22.550  0.00  0.00    -0.273 OA
ATOM      7  N   UNL     1       1.715   1.595  23.698  0.00  0.00    -0.284 N 
ATOM     26  C   UNL     1       1.884   0.474  22.875  0.00  0.00    +0.243 C 
ATOM     30  H   UNL     1       2.541   2.166  23.864  0.00  0.00    +0.155 HD
BRANCH  26  27
ATOM     27  C   UNL     1       3.309   0.332  22.386  0.00  0.00    +0.255 C 
BRANCH  27   5
ATOM      5  O   UNL     1       4.176   0.913  23.337  0.00  0.00    -0.374 OA
ATOM     28  C   UNL     1       5.381   0.167  23.481  0.00  0.00    +0.194 C 
ENDBRANCH  27   5
ENDBRANCH  26  27
ENDBRANCH  21   7
ENDBRANCH  10  14
BRANCH  10   2
ATOM      2  O   UNL     1      -2.975   4.814  26.432  0.00  0.00    -0.385 OA
ATOM     29  H   UNL     1      -3.000   5.249  25.564  0.00  0.00    +0.210 HD
ENDBRANCH  10   2
TORSDOF 8
ENDMDL
MODEL 3
REMARK VINA RESULT:      -1.5      1.798      3.406
REMARK  Name = 56774794
REMARK  9 active torsions:
REMARK  status: ('A' for Active; 'I' for Inactive)
REMARK    1  A    between atoms: O_2  and  C_10
REMARK    2  A    between atoms: O_5  and  C_27
REMARK    3  A    between atoms: O_5  and  C_28
REMARK    4  A    between atoms: N_6  and  C_12
REMARK    5  A    between atoms: N_7  and  C_21
REMARK    6  A    between atoms: C_9  and  C_10
REMARK    7  A    between atoms: C_10  and  C_14
REMARK    8  A    between atoms: C_12  and  C_16
REMARK    9  A    between atoms: C_26  and  C_27
REMARK                            x       y       z     vdW  Elec       q    Type
REMARK                         _______ _______ _______ _____ _____    ______ ____
ROOT
ATOM     10  C   UNL     1      -3.495   0.479  24.603  0.00  0.00    +0.167 C 
ENDROOT
BRANCH  10   9
ATOM      1  O   UNL     1      -6.187   1.381  23.868  0.00  0.00    -0.369 OA
ATOM      3  O   UNL     1      -6.153   2.682  27.238  0.00  0.00    -0.273 OA
ATOM      6  N   UNL     1      -4.397   2.483  25.724  0.00  0.00    -0.287 N 
ATOM      9  C   UNL     1      -3.934   1.936  24.442  0.00  0.00    +0.135 C 
ATOM     11  C   UNL     1      -5.034   2.065  23.394  0.00  0.00    +0.185 C 
ATOM     13  C   UNL     1      -5.733   2.401  26.113  0.00  0.00    +0.242 C 
ATOM     15  C   UNL     1      -6.713   2.014  25.014  0.00  0.00    +0.255 C 
BRANCH   6  12
ATOM     12  C   UNL     1      -3.384   2.949  26.661  0.00  0.00    +0.145 C 
BRANCH  12  16
ATOM      8  N   UNL     1       0.112   3.516  25.334  0.00  0.00    -0.263 NA
ATOM     16  C   UNL     1      -2.222   3.592  25.958  0.00  0.00    -0.012 A 
ATOM     22  C   UNL     1      -2.367   4.807  25.300  0.00  0.00    +0.008 A 
ATOM     23  C   UNL     1      -0.974   2.991  25.946  0.00  0.00    +0.115 A 
ATOM     24  C   UNL     1      -1.274   5.379  24.658  0.00  0.00    +0.020 A 
ATOM     25  C   UNL     1      -0.067   4.699  24.704  0.00  0.00    +0.111 A 
ENDBRANCH  12  16
ENDBRANCH   6  12
ENDBRANCH  10   9
BRANCH  10  14
ATOM     14  C   UNL     1      -2.055   0.279  24.202  0.00  0.00    -0.017 A 
ATOM     17  C   UNL     1      -1.316  -0.768  24.751  0.00  0.00    +0.008 A 
ATOM     18  C   UNL     1      -1.462   1.144  23.281  0.00  0.00    +0.008 A 
ATOM     19  C   UNL     1       0.016  -0.952  24.379  0.00  0.00    +0.023 A 
ATOM     20  C   UNL     1      -0.131   0.960  22.909  0.00  0.00    +0.023 A 
ATOM     21  C   UNL     1       0.608  -0.088  23.458  0.00  0.00    +0.033 A 
BRANCH  21   7
ATOM      4  O   UNL     1       2.853   1.898  23.192  0.00  0.00    -0.273 OA
ATOM      7  N   UNL     1       1.940  -0.272  23.086  0.00  0.00    -0.284 N 
ATOM     26  C   UNL     1       2.951   0.692  22.980  0.00  0.00    +0.243 C 
ATOM     30  H   UNL     1       2.201  -1.231  22.867  0.00  0.00    +0.155 HD
BRANCH  26  27
ATOM     27  C   UNL     1       4.271   0.093  22.545  0.00  0.00    +0.255 C 
BRANCH  27   5
ATOM      5  O   UNL     1       5.258   0.426  23.499  0.00  0.00    -0.374 OA
ATOM     28  C   UNL     1       5.622  -0.694  24.298  0.00  0.00    +0.194 C 
ENDBRANCH  27   5
ENDBRANCH  26  27
ENDBRANCH  21   7
ENDBRANCH  10  14
BRANCH  10   2
ATOM      2  O   UNL     1      -3.669   0.082  25.960  0.00  0.00    -0.385 OA
ATOM     29  H   UNL     1      -2.911  -0.461  26.235  0.00  0.00    +0.210 HD
ENDBRANCH  10   2
TORSDOF 8
ENDMDL
MODEL 4
REMARK VINA RESULT:      -1.4     17.218     19.355
REMARK  Name = 56774794
REMARK  9 active torsions:
REMARK  status: ('A' for Active; 'I' for Inactive)
REMARK    1  A    between atoms: O_2  and  C_10
REMARK    2  A    between atoms: O_5  and  C_27
REMARK    3  A    between atoms: O_5  and  C_28
REMARK    4  A    between atoms: N_6  and  C_12
REMARK    5  A    between atoms: N_7  and  C_21
REMARK    6  A    between atoms: C_9  and  C_10
REMARK    7  A    between atoms: C_10  and  C_14
REMARK    8  A    between atoms: C_12  and  C_16
REMARK    9  A    between atoms: C_26  and  C_27
REMARK                            x       y       z     vdW  Elec       q    Type
REMARK                         _______ _______ _______ _____ _____    ______ ____
ROOT
ATOM     10  C   UNL     1      15.035  -9.382  28.070  0.00  0.00    +0.167 C 
ENDROOT
BRANCH  10   9
ATOM      1  O   UNL     1      17.094  -9.663  30.141  0.00  0.00    -0.369 OA
ATOM      3  O   UNL     1      16.783  -6.067  30.265  0.00  0.00    -0.273 OA
ATOM      6  N   UNL     1      15.148  -7.667  29.840  0.00  0.00    -0.287 N 
ATOM      9  C   UNL     1      14.851  -9.077  29.559  0.00  0.00    +0.135 C 
ATOM     11  C   UNL     1      15.734  -9.977  30.416  0.00  0.00    +0.185 C 
ATOM     13  C   UNL     1      16.430  -7.246  30.185  0.00  0.00    +0.242 C 
ATOM     15  C   UNL     1      17.405  -8.354  30.562  0.00  0.00    +0.255 C 
BRANCH   6  12
ATOM     12  C   UNL     1      14.101  -6.692  29.567  0.00  0.00    +0.145 C 
BRANCH  12  16
ATOM      8  N   UNL     1      12.186  -5.398  32.561  0.00  0.00    -0.263 NA
ATOM     16  C   UNL     1      13.098  -6.617  30.684  0.00  0.00    -0.012 A 
ATOM     22  C   UNL     1      12.181  -7.641  30.892  0.00  0.00    +0.008 A 
ATOM     23  C   UNL     1      13.060  -5.527  31.537  0.00  0.00    +0.115 A 
ATOM     24  C   UNL     1      11.265  -7.544  31.934  0.00  0.00    +0.020 A 
ATOM     25  C   UNL     1      11.309  -6.413  32.733  0.00  0.00    +0.111 A 
ENDBRANCH  12  16
ENDBRANCH   6  12
ENDBRANCH  10   9
BRANCH  10  14
ATOM     14  C   UNL     1      15.601  -8.202  27.322  0.00  0.00    -0.017 A 
ATOM     17  C   UNL     1      16.871  -8.281  26.750  0.00  0.00    +0.008 A 
ATOM     18  C   UNL     1      14.854  -7.029  27.203  0.00  0.00    +0.008 A 
ATOM     19  C   UNL     1      17.393  -7.188  26.058  0.00  0.00    +0.023 A 
ATOM     20  C   UNL     1      15.377  -5.936  26.512  0.00  0.00    +0.023 A 
ATOM     21  C   UNL     1      16.647  -6.017  25.938  0.00  0.00    +0.033 A 
BRANCH  21   7
ATOM      4  O   UNL     1      15.259  -3.820  24.420  0.00  0.00    -0.273 OA
ATOM      7  N   UNL     1      17.170  -4.924  25.246  0.00  0.00    -0.284 N 
ATOM     26  C   UNL     1      16.475  -3.923  24.555  0.00  0.00    +0.243 C 
ATOM     30  H   UNL     1      18.186  -4.853  25.251  0.00  0.00    +0.155 HD
BRANCH  26  27
ATOM     27  C   UNL     1      17.405  -2.905  23.932  0.00  0.00    +0.255 C 
BRANCH  27   5
ATOM      5  O   UNL     1      16.779  -1.639  23.961  0.00  0.00    -0.374 OA
ATOM     28  C   UNL     1      17.360  -0.783  24.940  0.00  0.00    +0.194 C 
ENDBRANCH  27   5
ENDBRANCH  26  27
ENDBRANCH  21   7
ENDBRANCH  10  14
BRANCH  10   2
ATOM      2  O   UNL     1      15.906 -10.499  27.922  0.00  0.00    -0.385 OA
ATOM     29  H   UNL     1      16.720 -10.214  27.475  0.00  0.00    +0.210 HD
ENDBRANCH  10   2
TORSDOF 8
ENDMDL
