MODEL 1
REMARK VINA RESULT:      17.9      0.000      0.000
REMARK  Name = 7113944
REMARK  5 active torsions:
REMARK  status: ('A' for Active; 'I' for Inactive)
REMARK    1  A    between atoms: S_1  and  N_9
REMARK    2  A    between atoms: S_1  and  C_28
REMARK    3  A    between atoms: N_9  and  C_20
REMARK    4  A    between atoms: C_19  and  C_22
REMARK    5  A    between atoms: C_27  and  C_29
REMARK                            x       y       z     vdW  Elec       q    Type
REMARK                         _______ _______ _______ _____ _____    ______ ____
ROOT
ATOM      3  O   UNL     1      -4.348   3.103  25.710  0.00  0.00    -0.266 OA
ATOM      4  O   UNL     1      -1.902  -1.232  27.151  0.00  0.00    -0.270 OA
ATOM      7  N   UNL     1      -2.940  -1.653  25.096  0.00  0.00    -0.297 N 
ATOM      8  N   UNL     1      -4.192   1.175  24.388  0.00  0.00    -0.310 N 
ATOM     10  C   UNL     1      -5.348  -1.029  24.992  0.00  0.00    +0.027 C 
ATOM     11  C   UNL     1      -3.959  -0.892  22.963  0.00  0.00    +0.054 C 
ATOM     12  C   UNL     1      -5.339  -1.282  23.488  0.00  0.00    +0.018 C 
ATOM     13  C   UNL     1      -4.261  -1.872  25.684  0.00  0.00    +0.113 C 
ATOM     14  C   UNL     1      -5.160   0.472  25.242  0.00  0.00    +0.130 C 
ATOM     15  C   UNL     1      -2.885  -1.774  23.630  0.00  0.00    +0.117 C 
ATOM     16  C   UNL     1      -3.662   0.571  23.239  0.00  0.00    +0.027 A 
ATOM     17  C   UNL     1      -2.866   1.267  22.408  0.00  0.00    +0.024 A 
ATOM     18  C   UNL     1      -3.903   2.513  24.726  0.00  0.00    +0.274 A 
ATOM     19  C   UNL     1      -1.862  -1.334  25.926  0.00  0.00    +0.247 C 
ATOM     20  C   UNL     1      -3.000   3.222  23.783  0.00  0.00    +0.112 A 
ATOM     21  C   UNL     1      -2.521   2.635  22.686  0.00  0.00    +0.031 A 
ENDROOT
BRANCH  19  22
ATOM     22  C   UNL     1      -0.562  -1.078  25.297  0.00  0.00    +0.037 A 
ATOM     23  C   UNL     1       0.449  -2.031  25.385  0.00  0.00    +0.013 A 
ATOM     24  C   UNL     1      -0.345   0.118  24.616  0.00  0.00    +0.013 A 
ATOM     25  C   UNL     1       1.686  -1.787  24.787  0.00  0.00    +0.009 A 
ATOM     26  C   UNL     1       0.891   0.361  24.019  0.00  0.00    +0.009 A 
ATOM     27  C   UNL     1       1.906  -0.591  24.104  0.00  0.00    -0.018 A 
BRANCH  27  29
ATOM     29  C   UNL     1       3.189  -0.339  23.484  0.00  0.00    -0.018 A 
ATOM     32  C   UNL     1       3.303   0.623  22.481  0.00  0.00    +0.008 A 
ATOM     33  C   UNL     1       4.313  -1.059  23.889  0.00  0.00    +0.008 A 
ATOM     35  C   UNL     1       4.540   0.865  21.883  0.00  0.00    +0.001 A 
ATOM     36  C   UNL     1       5.550  -0.817  23.292  0.00  0.00    +0.001 A 
ATOM     37  C   UNL     1       5.664   0.146  22.289  0.00  0.00    +0.000 A 
ENDBRANCH  27  29
ENDBRANCH  19  22
BRANCH  20   9
ATOM      9  N   UNL     1      -2.631   4.556  24.026  0.00  0.00    -0.211 N 
ATOM     38  H   UNL     1      -3.080   5.237  23.397  0.00  0.00    +0.174 HD
BRANCH   9   1
ATOM      1  S   UNL     1      -1.000   4.855  24.368  0.00  0.00    +0.079 S 
ATOM      5  O   UNL     1      -0.180   4.419  23.254  0.00  0.00    -0.149 OA
ATOM      6  O   UNL     1      -0.851   6.194  24.903  0.00  0.00    -0.149 OA
BRANCH   1  28
ATOM      2  S   UNL     1       0.866   3.122  25.803  0.00  0.00    -0.077 S 
ATOM     28  C   UNL     1      -0.730   3.721  25.697  0.00  0.00    +0.146 A 
ATOM     30  C   UNL     1      -1.549   3.218  26.674  0.00  0.00    +0.036 A 
ATOM     31  C   UNL     1      -0.854   2.317  27.533  0.00  0.00    +0.010 A 
ATOM     34  C   UNL     1       0.467   2.174  27.172  0.00  0.00    +0.047 A 
ENDBRANCH   1  28
ENDBRANCH   9   1
ENDBRANCH  20   9
TORSDOF 5
ENDMDL
MODEL 2
REMARK VINA RESULT:      18.3      2.425      5.032
REMARK  Name = 7113944
REMARK  5 active torsions:
REMARK  status: ('A' for Active; 'I' for Inactive)
REMARK    1  A    between atoms: S_1  and  N_9
REMARK    2  A    between atoms: S_1  and  C_28
REMARK    3  A    between atoms: N_9  and  C_20
REMARK    4  A    between atoms: C_19  and  C_22
REMARK    5  A    between atoms: C_27  and  C_29
REMARK                            x       y       z     vdW  Elec       q    Type
REMARK                         _______ _______ _______ _____ _____    ______ ____
ROOT
ATOM      3  O   UNL     1      -5.708  -0.335  24.400  0.00  0.00    -0.266 OA
ATOM      4  O   UNL     1      -2.768   2.742  21.443  0.00  0.00    -0.270 OA
ATOM      7  N   UNL     1      -2.755   3.619  23.613  0.00  0.00    -0.297 N 
ATOM      8  N   UNL     1      -4.462   1.475  25.211  0.00  0.00    -0.310 N 
ATOM     10  C   UNL     1      -5.004   3.912  24.639  0.00  0.00    +0.027 C 
ATOM     11  C   UNL     1      -3.066   3.392  26.066  0.00  0.00    +0.054 C 
ATOM     12  C   UNL     1      -4.343   4.225  25.978  0.00  0.00    +0.018 C 
ATOM     13  C   UNL     1      -4.058   4.268  23.477  0.00  0.00    +0.113 C 
ATOM     14  C   UNL     1      -5.408   2.432  24.622  0.00  0.00    +0.130 C 
ATOM     15  C   UNL     1      -2.109   3.790  24.924  0.00  0.00    +0.117 C 
ATOM     16  C   UNL     1      -3.373   1.909  25.981  0.00  0.00    +0.027 A 
ATOM     17  C   UNL     1      -2.583   1.017  26.606  0.00  0.00    +0.024 A 
ATOM     18  C   UNL     1      -4.760   0.106  25.049  0.00  0.00    +0.274 A 
ATOM     19  C   UNL     1      -2.235   2.889  22.541  0.00  0.00    +0.247 C 
ATOM     20  C   UNL     1      -3.839  -0.828  25.743  0.00  0.00    +0.112 A 
ATOM     21  C   UNL     1      -2.819  -0.396  26.486  0.00  0.00    +0.031 A 
ENDROOT
BRANCH  19  22
ATOM     22  C   UNL     1      -0.945   2.216  22.729  0.00  0.00    +0.037 A 
ATOM     23  C   UNL     1      -0.026   2.723  23.644  0.00  0.00    +0.013 A 
ATOM     24  C   UNL     1      -0.645   1.074  21.990  0.00  0.00    +0.013 A 
ATOM     25  C   UNL     1       1.201   2.083  23.823  0.00  0.00    +0.009 A 
ATOM     26  C   UNL     1       0.581   0.435  22.169  0.00  0.00    +0.009 A 
ATOM     27  C   UNL     1       1.503   0.938  23.084  0.00  0.00    -0.018 A 
BRANCH  27  29
ATOM     29  C   UNL     1       2.776   0.275  23.270  0.00  0.00    -0.018 A 
ATOM     32  C   UNL     1       2.816  -1.084  23.579  0.00  0.00    +0.008 A 
ATOM     33  C   UNL     1       3.963   0.996  23.142  0.00  0.00    +0.008 A 
ATOM     35  C   UNL     1       4.043  -1.723  23.758  0.00  0.00    +0.001 A 
ATOM     36  C   UNL     1       5.191   0.357  23.320  0.00  0.00    +0.001 A 
ATOM     37  C   UNL     1       5.231  -1.003  23.629  0.00  0.00    +0.000 A 
ENDBRANCH  27  29
ENDBRANCH  19  22
BRANCH  20   9
ATOM      9  N   UNL     1      -4.029  -2.217  25.640  0.00  0.00    -0.211 N 
ATOM     38  H   UNL     1      -3.979  -2.715  26.540  0.00  0.00    +0.174 HD
BRANCH   9   1
ATOM      1  S   UNL     1      -3.289  -3.002  24.337  0.00  0.00    +0.079 S 
ATOM      5  O   UNL     1      -3.582  -4.422  24.390  0.00  0.00    -0.149 OA
ATOM      6  O   UNL     1      -3.527  -2.254  23.117  0.00  0.00    -0.149 OA
BRANCH   1  28
ATOM      2  S   UNL     1      -0.954  -1.245  24.429  0.00  0.00    -0.077 S 
ATOM     28  C   UNL     1      -1.583  -2.799  24.757  0.00  0.00    +0.146 A 
ATOM     30  C   UNL     1      -0.650  -3.643  25.298  0.00  0.00    +0.036 A 
ATOM     31  C   UNL     1       0.615  -3.004  25.451  0.00  0.00    +0.010 A 
ATOM     34  C   UNL     1       0.589  -1.697  25.017  0.00  0.00    +0.047 A 
ENDBRANCH   1  28
ENDBRANCH   9   1
ENDBRANCH  20   9
TORSDOF 5
ENDMDL
MODEL 3
REMARK VINA RESULT:      19.3      2.577      5.654
REMARK  Name = 7113944
REMARK  5 active torsions:
REMARK  status: ('A' for Active; 'I' for Inactive)
REMARK    1  A    between atoms: S_1  and  N_9
REMARK    2  A    between atoms: S_1  and  C_28
REMARK    3  A    between atoms: N_9  and  C_20
REMARK    4  A    between atoms: C_19  and  C_22
REMARK    5  A    between atoms: C_27  and  C_29
REMARK                            x       y       z     vdW  Elec       q    Type
REMARK                         _______ _______ _______ _____ _____    ______ ____
ROOT
ATOM      3  O   UNL     1      -4.279  -0.886  22.737  0.00  0.00    -0.266 OA
ATOM      4  O   UNL     1      -2.846   4.026  23.562  0.00  0.00    -0.270 OA
ATOM      7  N   UNL     1      -4.443   3.470  25.181  0.00  0.00    -0.297 N 
ATOM      8  N   UNL     1      -5.000   0.412  24.549  0.00  0.00    -0.310 N 
ATOM     10  C   UNL     1      -6.530   2.449  24.287  0.00  0.00    +0.027 C 
ATOM     11  C   UNL     1      -5.714   1.811  26.521  0.00  0.00    +0.054 C 
ATOM     12  C   UNL     1      -6.970   2.124  25.711  0.00  0.00    +0.018 C 
ATOM     13  C   UNL     1      -5.581   3.662  24.282  0.00  0.00    +0.113 C 
ATOM     14  C   UNL     1      -5.877   1.203  23.676  0.00  0.00    +0.130 C 
ATOM     15  C   UNL     1      -4.794   3.048  26.546  0.00  0.00    +0.117 C 
ATOM     16  C   UNL     1      -4.965   0.629  25.935  0.00  0.00    +0.027 A 
ATOM     17  C   UNL     1      -4.242  -0.178  26.733  0.00  0.00    +0.024 A 
ATOM     18  C   UNL     1      -4.277  -0.635  23.942  0.00  0.00    +0.274 A 
ATOM     19  C   UNL     1      -3.146   3.672  24.701  0.00  0.00    +0.247 C 
ATOM     20  C   UNL     1      -3.480  -1.476  24.872  0.00  0.00    +0.112 A 
ATOM     21  C   UNL     1      -3.474  -1.264  26.188  0.00  0.00    +0.031 A 
ENDROOT
BRANCH  19  22
ATOM     22  C   UNL     1      -2.028   3.429  25.619  0.00  0.00    +0.037 A 
ATOM     23  C   UNL     1      -0.731   3.342  25.121  0.00  0.00    +0.013 A 
ATOM     24  C   UNL     1      -2.269   3.284  26.983  0.00  0.00    +0.013 A 
ATOM     25  C   UNL     1       0.333   3.110  25.993  0.00  0.00    +0.009 A 
ATOM     26  C   UNL     1      -1.206   3.053  27.854  0.00  0.00    +0.009 A 
ATOM     27  C   UNL     1       0.095   2.965  27.360  0.00  0.00    -0.018 A 
BRANCH  27  29
ATOM     29  C   UNL     1       1.199   2.725  28.264  0.00  0.00    -0.018 A 
ATOM     32  C   UNL     1       0.966   2.146  29.511  0.00  0.00    +0.008 A 
ATOM     33  C   UNL     1       2.496   3.074  27.889  0.00  0.00    +0.008 A 
ATOM     35  C   UNL     1       2.031   1.915  30.383  0.00  0.00    +0.001 A 
ATOM     36  C   UNL     1       3.561   2.843  28.760  0.00  0.00    +0.001 A 
ATOM     37  C   UNL     1       3.328   2.263  30.008  0.00  0.00    +0.000 A 
ENDBRANCH  27  29
ENDBRANCH  19  22
BRANCH  20   9
ATOM      9  N   UNL     1      -2.707  -2.541  24.377  0.00  0.00    -0.211 N 
ATOM     38  H   UNL     1      -3.142  -3.467  24.500  0.00  0.00    +0.174 HD
BRANCH   9   1
ATOM      1  S   UNL     1      -1.040  -2.480  24.662  0.00  0.00    +0.079 S 
ATOM      5  O   UNL     1      -0.791  -2.401  26.089  0.00  0.00    -0.149 OA
ATOM      6  O   UNL     1      -0.372  -3.486  23.859  0.00  0.00    -0.149 OA
BRANCH   1  28
ATOM      2  S   UNL     1       0.983  -0.733  23.480  0.00  0.00    -0.077 S 
ATOM     28  C   UNL     1      -0.645  -0.903  23.969  0.00  0.00    +0.146 A 
ATOM     30  C   UNL     1      -1.386   0.227  23.739  0.00  0.00    +0.036 A 
ATOM     31  C   UNL     1      -0.603   1.261  23.148  0.00  0.00    +0.010 A 
ATOM     34  C   UNL     1       0.704   0.872  22.952  0.00  0.00    +0.047 A 
ENDBRANCH   1  28
ENDBRANCH   9   1
ENDBRANCH  20   9
TORSDOF 5
ENDMDL
MODEL 4
REMARK VINA RESULT:      20.1      2.767      6.153
REMARK  Name = 7113944
REMARK  5 active torsions:
REMARK  status: ('A' for Active; 'I' for Inactive)
REMARK    1  A    between atoms: S_1  and  N_9
REMARK    2  A    between atoms: S_1  and  C_28
REMARK    3  A    between atoms: N_9  and  C_20
REMARK    4  A    between atoms: C_19  and  C_22
REMARK    5  A    between atoms: C_27  and  C_29
REMARK                            x       y       z     vdW  Elec       q    Type
REMARK                         _______ _______ _______ _____ _____    ______ ____
ROOT
ATOM      3  O   UNL     1      -0.465   0.803  21.671  0.00  0.00    -0.266 OA
ATOM      4  O   UNL     1      -1.666   4.858  24.665  0.00  0.00    -0.270 OA
ATOM      7  N   UNL     1      -3.289   3.209  25.019  0.00  0.00    -0.297 N 
ATOM      8  N   UNL     1      -2.221   0.824  23.221  0.00  0.00    -0.310 N 
ATOM     10  C   UNL     1      -4.309   2.282  22.946  0.00  0.00    +0.027 C 
ATOM     11  C   UNL     1      -4.068   0.853  24.937  0.00  0.00    +0.054 C 
ATOM     12  C   UNL     1      -4.998   1.204  23.777  0.00  0.00    +0.018 C 
ATOM     13  C   UNL     1      -4.038   3.531  23.804  0.00  0.00    +0.113 C 
ATOM     14  C   UNL     1      -3.020   1.699  22.352  0.00  0.00    +0.130 C 
ATOM     15  C   UNL     1      -3.841   2.101  25.814  0.00  0.00    +0.117 C 
ATOM     16  C   UNL     1      -2.734   0.335  24.431  0.00  0.00    +0.027 A 
ATOM     17  C   UNL     1      -2.034  -0.554  25.158  0.00  0.00    +0.024 A 
ATOM     18  C   UNL     1      -0.962   0.423  22.730  0.00  0.00    +0.274 A 
ATOM     19  C   UNL     1      -2.132   3.931  25.325  0.00  0.00    +0.247 C 
ATOM     20  C   UNL     1      -0.227  -0.541  23.588  0.00  0.00    +0.112 A 
ATOM     21  C   UNL     1      -0.740  -1.008  24.728  0.00  0.00    +0.031 A 
ENDROOT
BRANCH  19  22
ATOM     22  C   UNL     1      -1.383   3.551  26.528  0.00  0.00    +0.037 A 
ATOM     23  C   UNL     1      -1.947   3.749  27.785  0.00  0.00    +0.013 A 
ATOM     24  C   UNL     1      -0.112   2.997  26.406  0.00  0.00    +0.013 A 
ATOM     25  C   UNL     1      -1.235   3.389  28.930  0.00  0.00    +0.009 A 
ATOM     26  C   UNL     1       0.600   2.636  27.549  0.00  0.00    +0.009 A 
ATOM     27  C   UNL     1       0.039   2.832  28.811  0.00  0.00    -0.018 A 
BRANCH  27  29
ATOM     29  C   UNL     1       0.778   2.459  29.998  0.00  0.00    -0.018 A 
ATOM     32  C   UNL     1       2.058   1.919  29.882  0.00  0.00    +0.008 A 
ATOM     33  C   UNL     1       0.208   2.638  31.258  0.00  0.00    +0.008 A 
ATOM     35  C   UNL     1       2.769   1.558  31.027  0.00  0.00    +0.001 A 
ATOM     36  C   UNL     1       0.919   2.278  32.403  0.00  0.00    +0.001 A 
ATOM     37  C   UNL     1       2.200   1.738  32.288  0.00  0.00    +0.000 A 
ENDBRANCH  27  29
ENDBRANCH  19  22
BRANCH  20   9
ATOM      9  N   UNL     1       1.046  -1.000  23.208  0.00  0.00    -0.211 N 
ATOM     38  H   UNL     1       1.443  -1.709  23.841  0.00  0.00    +0.174 HD
BRANCH   9   1
ATOM      1  S   UNL     1       2.143   0.155  22.637  0.00  0.00    +0.079 S 
ATOM      5  O   UNL     1       2.238   0.068  21.193  0.00  0.00    -0.149 OA
ATOM      6  O   UNL     1       1.884   1.431  23.276  0.00  0.00    -0.149 OA
BRANCH   1  28
ATOM      2  S   UNL     1       4.967   0.621  23.231  0.00  0.00    -0.077 S 
ATOM     28  C   UNL     1       3.656  -0.471  23.304  0.00  0.00    +0.146 A 
ATOM     30  C   UNL     1       3.998  -1.668  23.876  0.00  0.00    +0.036 A 
ATOM     31  C   UNL     1       5.369  -1.696  24.265  0.00  0.00    +0.010 A 
ATOM     34  C   UNL     1       6.013  -0.514  23.972  0.00  0.00    +0.047 A 
ENDBRANCH   1  28
ENDBRANCH   9   1
ENDBRANCH  20   9
TORSDOF 5
ENDMDL
