MODEL 1
REMARK VINA RESULT:      11.7      0.000      0.000
REMARK  Name = 11882933
REMARK  15 active torsions:
REMARK  status: ('A' for Active; 'I' for Inactive)
REMARK    1  A    between atoms: O_2  and  C_16
REMARK    2  A    between atoms: O_3  and  C_21
REMARK    3  A    between atoms: O_6  and  C_37
REMARK    4  A    between atoms: O_6  and  C_38
REMARK    5  A    between atoms: N_8  and  C_27
REMARK    6  A    between atoms: N_10  and  C_29
REMARK    7  A    between atoms: N_10  and  C_33
REMARK    8  A    between atoms: N_10  and  C_34
REMARK    9  A    between atoms: C_11  and  C_19
REMARK   10  A    between atoms: C_13  and  C_21
REMARK   11  A    between atoms: C_13  and  C_22
REMARK   12  A    between atoms: C_14  and  C_24
REMARK   13  A    between atoms: C_24  and  C_25
REMARK   14  A    between atoms: C_27  and  C_29
REMARK   15  A    between atoms: C_28  and  C_30
REMARK                            x       y       z     vdW  Elec       q    Type
REMARK                         _______ _______ _______ _____ _____    ______ ____
ROOT
ATOM      1  S   UNL     1       0.299   2.138  25.832  0.00  0.00    -0.057 S 
ATOM      5  O   UNL     1       1.785  -0.137  22.053  0.00  0.00    -0.270 OA
ATOM      7  N   UNL     1      -0.410   1.174  23.539  0.00  0.00    -0.229 NA
ATOM      9  N   UNL     1       1.898   0.891  24.171  0.00  0.00    -0.261 N 
ATOM     11  C   UNL     1      -4.049   2.096  24.423  0.00  0.00    -0.019 C 
ATOM     12  C   UNL     1      -3.601   3.347  25.300  0.00  0.00    +0.011 C 
ATOM     13  C   UNL     1      -4.736   4.118  26.079  0.00  0.00    +0.021 C 
ATOM     14  C   UNL     1      -2.861   1.756  23.408  0.00  0.00    +0.054 C 
ATOM     15  C   UNL     1      -5.305   2.471  23.595  0.00  0.00    +0.010 C 
ATOM     16  C   UNL     1      -5.934   4.371  25.119  0.00  0.00    +0.123 C 
ATOM     17  C   UNL     1      -2.358   3.012  26.176  0.00  0.00    +0.049 C 
ATOM     18  C   UNL     1      -6.418   3.108  24.416  0.00  0.00    +0.032 C 
ATOM     19  C   UNL     1      -4.370   0.846  25.276  0.00  0.00    +0.012 C 
ATOM     20  C   UNL     1      -1.531   1.741  24.117  0.00  0.00    +0.058 A 
ATOM     22  C   UNL     1      -4.195   5.508  26.518  0.00  0.00    +0.016 C 
ATOM     23  C   UNL     1      -1.323   2.327  25.349  0.00  0.00    +0.015 A 
ATOM     26  C   UNL     1       0.610   1.317  24.357  0.00  0.00    +0.165 A 
ATOM     28  C   UNL     1       2.404   0.203  23.056  0.00  0.00    +0.250 C 
ATOM     42  H   UNL     1       2.523   1.160  24.924  0.00  0.00    +0.157 HD
ENDROOT
BRANCH  28  30
ATOM     30  C   UNL     1       3.856  -0.111  23.106  0.00  0.00    +0.037 A 
ATOM     31  C   UNL     1       4.253  -1.341  23.588  0.00  0.00    +0.016 A 
ATOM     32  C   UNL     1       4.758   0.835  22.668  0.00  0.00    +0.016 A 
ATOM     35  C   UNL     1       5.616  -1.636  23.634  0.00  0.00    +0.046 A 
ATOM     36  C   UNL     1       6.120   0.540  22.715  0.00  0.00    +0.046 A 
ATOM     37  C   UNL     1       6.549  -0.697  23.198  0.00  0.00    +0.120 A 
BRANCH  37   6
ATOM      6  O   UNL     1       7.878  -0.985  23.242  0.00  0.00    -0.495 OA
ATOM     38  C   UNL     1       8.783   0.110  23.106  0.00  0.00    +0.277 C 
ENDBRANCH  37   6
ENDBRANCH  28  30
BRANCH  16   2
ATOM      2  O   UNL     1      -7.030   4.952  25.825  0.00  0.00    -0.391 OA
ATOM     39  H   UNL     1      -7.199   4.412  26.615  0.00  0.00    +0.210 HD
ENDBRANCH  16   2
BRANCH  13  21
ATOM     21  C   UNL     1      -5.207   3.427  27.376  0.00  0.00    +0.165 C 
BRANCH  21   3
ATOM      3  O   UNL     1      -6.250   2.539  27.039  0.00  0.00    -0.394 OA
ATOM     40  H   UNL     1      -6.285   1.844  27.718  0.00  0.00    +0.209 HD
ENDBRANCH  21   3
ENDBRANCH  13  21
BRANCH  14  24
ATOM     24  C   UNL     1      -3.073   0.480  22.584  0.00  0.00    +0.106 C 
BRANCH  24  25
ATOM      4  O   UNL     1      -4.703  -0.728  23.904  0.00  0.00    -0.276 OA
ATOM      8  N   UNL     1      -2.579  -1.623  23.604  0.00  0.00    -0.314 N 
ATOM     25  C   UNL     1      -3.570  -0.668  23.433  0.00  0.00    +0.214 C 
ATOM     41  H   UNL     1      -1.687  -1.516  23.131  0.00  0.00    +0.149 HD
BRANCH   8  27
ATOM     27  C   UNL     1      -2.770  -2.830  24.375  0.00  0.00    +0.119 C 
BRANCH  27  29
ATOM     29  C   UNL     1      -1.735  -2.945  25.484  0.00  0.00    +0.102 C 
BRANCH  29  10
ATOM     10  N   UNL     1      -0.824  -1.808  25.449  0.00  0.00    -0.307 NA
ATOM     33  C   UNL     1      -1.071  -0.912  26.580  0.00  0.00    +0.104 C 
ATOM     34  C   UNL     1       0.569  -2.263  25.456  0.00  0.00    +0.104 C 
ENDBRANCH  29  10
ENDBRANCH  27  29
ENDBRANCH   8  27
ENDBRANCH  24  25
ENDBRANCH  14  24
TORSDOF 10
ENDMDL
