MODEL 1
REMARK VINA RESULT:       1.6      0.000      0.000
REMARK  Name = 11912250
REMARK  5 active torsions:
REMARK  status: ('A' for Active; 'I' for Inactive)
REMARK    1  A    between atoms: S_1  and  N_9
REMARK    2  A    between atoms: S_1  and  C_26
REMARK    3  A    between atoms: N_10  and  C_24
REMARK    4  A    between atoms: C_12  and  C_18
REMARK    5  A    between atoms: C_13  and  C_23
REMARK                            x       y       z     vdW  Elec       q    Type
REMARK                         _______ _______ _______ _____ _____    ______ ____
ROOT
ATOM      3  O   UNL     1       1.712  -0.202  21.256  0.00  0.00    -0.275 OA
ATOM      8  N   UNL     1       0.513  -0.738  23.176  0.00  0.00    -0.298 N 
ATOM      9  N   UNL     1      -1.969  -0.722  24.622  0.00  0.00    -0.162 NA
ATOM     13  C   UNL     1      -1.963  -0.456  23.155  0.00  0.00    +0.183 C 
ATOM     16  C   UNL     1      -0.727  -1.006  22.449  0.00  0.00    +0.137 C 
ATOM     17  C   UNL     1       0.474  -0.919  24.629  0.00  0.00    +0.125 C 
ATOM     18  C   UNL     1       1.662  -0.358  22.478  0.00  0.00    +0.219 C 
ATOM     19  C   UNL     1      -0.829  -1.542  25.109  0.00  0.00    +0.129 C 
ENDROOT
BRANCH  18  12
ATOM     12  C   UNL     1       2.894  -0.142  23.305  0.00  0.00    +0.075 C 
ATOM     14  C   UNL     1       3.748   0.969  22.690  0.00  0.00    +0.013 C 
ATOM     15  C   UNL     1       3.679  -1.450  23.425  0.00  0.00    +0.013 C 
ATOM     20  C   UNL     1       5.058   1.159  23.447  0.00  0.00    +0.001 C 
ATOM     21  C   UNL     1       4.990  -1.254  24.181  0.00  0.00    +0.001 C 
ATOM     22  C   UNL     1       5.837  -0.147  23.560  0.00  0.00    +0.000 C 
ENDBRANCH  18  12
BRANCH  13  23
ATOM      6  O   UNL     1      -2.837   1.596  22.313  0.00  0.00    -0.274 OA
ATOM     10  N   UNL     1      -1.085   1.660  23.845  0.00  0.00    -0.303 N 
ATOM     23  C   UNL     1      -2.030   1.035  23.049  0.00  0.00    +0.234 C 
ATOM     35  H   UNL     1      -0.488   1.093  24.440  0.00  0.00    +0.149 HD
BRANCH  10  24
ATOM      7  O   UNL     1       0.487   2.702  25.823  0.00  0.00    -0.274 OA
ATOM     11  N   UNL     1      -0.657   4.678  25.771  0.00  0.00    -0.314 N 
ATOM     24  C   UNL     1      -0.927   3.089  23.906  0.00  0.00    +0.159 C 
ATOM     25  C   UNL     1      -2.242   3.793  23.601  0.00  0.00    +0.033 C 
ATOM     27  C   UNL     1      -2.089   5.287  23.843  0.00  0.00    +0.021 C 
ATOM     28  C   UNL     1      -0.327   3.439  25.263  0.00  0.00    +0.233 C 
ATOM     29  C   UNL     1      -1.743   5.519  25.302  0.00  0.00    +0.104 C 
ATOM     36  H   UNL     1      -0.218   4.946  26.647  0.00  0.00    +0.149 HD
ENDBRANCH  10  24
ENDBRANCH  13  23
BRANCH   9   1
ATOM      1  S   UNL     1      -3.487  -1.044  25.338  0.00  0.00    +0.062 S 
ATOM      4  O   UNL     1      -3.286  -1.458  26.711  0.00  0.00    -0.153 OA
ATOM      5  O   UNL     1      -4.277  -1.845  24.427  0.00  0.00    -0.153 OA
BRANCH   1  26
ATOM      2  F   UNL     1      -5.764   4.392  25.420  0.00  0.00    -0.205 F 
ATOM     26  C   UNL     1      -4.170   0.584  25.362  0.00  0.00    +0.106 A 
ATOM     30  C   UNL     1      -3.468   1.625  25.972  0.00  0.00    +0.031 A 
ATOM     31  C   UNL     1      -5.409   0.830  24.773  0.00  0.00    +0.031 A 
ATOM     32  C   UNL     1      -4.007   2.912  25.991  0.00  0.00    +0.040 A 
ATOM     33  C   UNL     1      -5.948   2.116  24.793  0.00  0.00    +0.040 A 
ATOM     34  C   UNL     1      -5.247   3.157  25.402  0.00  0.00    +0.124 A 
ENDBRANCH   1  26
ENDBRANCH   9   1
TORSDOF 5
ENDMDL
