MODEL 1
REMARK VINA RESULT:      -5.7      0.000      0.000
REMARK  Name = 75536065
REMARK  6 active torsions:
REMARK  status: ('A' for Active; 'I' for Inactive)
REMARK    1  A    between atoms: O_1  and  C_10
REMARK    2  A    between atoms: O_2  and  C_12
REMARK    3  A    between atoms: N_5  and  C_9
REMARK    4  A    between atoms: C_8  and  C_13
REMARK    5  A    between atoms: C_16  and  C_18
REMARK    6  A    between atoms: C_21  and  C_22
REMARK                            x       y       z     vdW  Elec       q    Type
REMARK                         _______ _______ _______ _____ _____    ______ ____
ROOT
ATOM      8  C   UNL     1      -1.939   0.149  25.436  0.00  0.00    +0.046 C 
ATOM      9  C   UNL     1      -1.226  -0.595  24.285  0.00  0.00    +0.112 C 
ATOM     10  C   UNL     1      -1.446  -2.069  24.622  0.00  0.00    +0.164 C 
ATOM     11  C   UNL     1      -2.985  -0.848  25.998  0.00  0.00    +0.044 C 
ATOM     12  C   UNL     1      -2.885  -2.097  25.125  0.00  0.00    +0.145 C 
ENDROOT
BRANCH   8  13
ATOM      6  N   UNL     1      -2.341   3.895  24.995  0.00  0.00    -0.263 NA
ATOM     13  C   UNL     1      -2.515   1.484  25.012  0.00  0.00    -0.024 A 
ATOM     14  C   UNL     1      -3.695   1.556  24.281  0.00  0.00    +0.007 A 
ATOM     15  C   UNL     1      -1.882   2.672  25.341  0.00  0.00    +0.114 A 
ATOM     17  C   UNL     1      -4.200   2.796  23.906  0.00  0.00    +0.020 A 
ATOM     19  C   UNL     1      -3.492   3.925  24.284  0.00  0.00    +0.111 A 
ENDBRANCH   8  13
BRANCH   9   5
ATOM      3  O   UNL     1       0.397  -0.504  21.918  0.00  0.00    -0.268 OA
ATOM      5  N   UNL     1       0.175  -0.263  24.214  0.00  0.00    -0.304 N 
ATOM     16  C   UNL     1       0.879  -0.245  23.017  0.00  0.00    +0.266 C 
ATOM     23  H   UNL     1       0.654   0.001  25.069  0.00  0.00    +0.149 HD
BRANCH  16  18
ATOM      4  O   UNL     1       4.100   1.321  23.176  0.00  0.00    -0.359 OA
ATOM      7  N   UNL     1       2.717   1.366  23.054  0.00  0.00    -0.073 NA
ATOM     18  C   UNL     1       2.323   0.091  23.116  0.00  0.00    +0.168 A 
ATOM     20  C   UNL     1       3.403  -0.794  23.277  0.00  0.00    +0.080 A 
ATOM     21  C   UNL     1       4.497   0.029  23.308  0.00  0.00    +0.135 A 
ATOM     22  C   UNL     1       5.940  -0.203  23.449  0.00  0.00    +0.089 C 
ENDBRANCH  16  18
ENDBRANCH   9   5
BRANCH  10   1
ATOM      1  O   UNL     1      -1.282  -2.908  23.495  0.00  0.00    -0.387 OA
ATOM     24  H   UNL     1      -1.229  -2.336  22.710  0.00  0.00    +0.210 HD
ENDBRANCH  10   1
BRANCH  12   2
ATOM      2  O   UNL     1      -3.805  -1.974  24.044  0.00  0.00    -0.389 OA
ATOM     25  H   UNL     1      -4.114  -1.052  24.028  0.00  0.00    +0.210 HD
ENDBRANCH  12   2
TORSDOF 5
ENDMDL
MODEL 2
REMARK VINA RESULT:      -4.7      2.502      3.954
REMARK  Name = 75536065
REMARK  6 active torsions:
REMARK  status: ('A' for Active; 'I' for Inactive)
REMARK    1  A    between atoms: O_1  and  C_10
REMARK    2  A    between atoms: O_2  and  C_12
REMARK    3  A    between atoms: N_5  and  C_9
REMARK    4  A    between atoms: C_8  and  C_13
REMARK    5  A    between atoms: C_16  and  C_18
REMARK    6  A    between atoms: C_21  and  C_22
REMARK                            x       y       z     vdW  Elec       q    Type
REMARK                         _______ _______ _______ _____ _____    ______ ____
ROOT
ATOM      8  C   UNL     1      -3.163   1.389  23.759  0.00  0.00    +0.046 C 
ATOM      9  C   UNL     1      -1.975   2.054  24.491  0.00  0.00    +0.112 C 
ATOM     10  C   UNL     1      -2.330   3.539  24.471  0.00  0.00    +0.164 C 
ATOM     11  C   UNL     1      -4.349   2.379  23.894  0.00  0.00    +0.044 C 
ATOM     12  C   UNL     1      -3.830   3.540  24.741  0.00  0.00    +0.145 C 
ENDROOT
BRANCH   8  13
ATOM      6  N   UNL     1      -3.542  -1.569  26.103  0.00  0.00    -0.263 NA
ATOM     13  C   UNL     1      -3.458  -0.010  24.258  0.00  0.00    -0.024 A 
ATOM     14  C   UNL     1      -3.901  -1.002  23.389  0.00  0.00    +0.007 A 
ATOM     15  C   UNL     1      -3.296  -0.342  25.593  0.00  0.00    +0.114 A 
ATOM     17  C   UNL     1      -4.164  -2.277  23.876  0.00  0.00    +0.020 A 
ATOM     19  C   UNL     1      -3.970  -2.508  25.228  0.00  0.00    +0.111 A 
ENDBRANCH   8  13
BRANCH   9   5
ATOM      3  O   UNL     1      -0.468  -0.389  24.582  0.00  0.00    -0.268 OA
ATOM      5  N   UNL     1      -0.721   1.791  23.833  0.00  0.00    -0.304 N 
ATOM     16  C   UNL     1      -0.062   0.573  23.935  0.00  0.00    +0.266 C 
ATOM     23  H   UNL     1      -0.322   2.516  23.243  0.00  0.00    +0.149 HD
BRANCH  16  18
ATOM      4  O   UNL     1       2.632  -0.071  21.659  0.00  0.00    -0.359 OA
ATOM      7  N   UNL     1       1.299  -0.158  22.042  0.00  0.00    -0.073 NA
ATOM     18  C   UNL     1       1.235   0.471  23.219  0.00  0.00    +0.168 A 
ATOM     20  C   UNL     1       2.483   0.972  23.624  0.00  0.00    +0.080 A 
ATOM     21  C   UNL     1       3.327   0.605  22.609  0.00  0.00    +0.135 A 
ATOM     22  C   UNL     1       4.763   0.790  22.364  0.00  0.00    +0.089 C 
ENDBRANCH  16  18
ENDBRANCH   9   5
BRANCH  10   1
ATOM      1  O   UNL     1      -1.633   4.271  25.461  0.00  0.00    -0.387 OA
ATOM     24  H   UNL     1      -0.711   4.360  25.164  0.00  0.00    +0.210 HD
ENDBRANCH  10   1
BRANCH  12   2
ATOM      2  O   UNL     1      -4.103   3.262  26.111  0.00  0.00    -0.389 OA
ATOM     25  H   UNL     1      -4.470   2.364  26.160  0.00  0.00    +0.210 HD
ENDBRANCH  12   2
TORSDOF 5
ENDMDL
MODEL 3
REMARK VINA RESULT:      -2.0      3.603      5.276
REMARK  Name = 75536065
REMARK  6 active torsions:
REMARK  status: ('A' for Active; 'I' for Inactive)
REMARK    1  A    between atoms: O_1  and  C_10
REMARK    2  A    between atoms: O_2  and  C_12
REMARK    3  A    between atoms: N_5  and  C_9
REMARK    4  A    between atoms: C_8  and  C_13
REMARK    5  A    between atoms: C_16  and  C_18
REMARK    6  A    between atoms: C_21  and  C_22
REMARK                            x       y       z     vdW  Elec       q    Type
REMARK                         _______ _______ _______ _____ _____    ______ ____
ROOT
ATOM      8  C   UNL     1      -2.079   1.310  24.083  0.00  0.00    +0.046 C 
ATOM      9  C   UNL     1      -2.569   2.182  25.262  0.00  0.00    +0.112 C 
ATOM     10  C   UNL     1      -2.829   3.541  24.616  0.00  0.00    +0.164 C 
ATOM     11  C   UNL     1      -2.631   1.986  22.801  0.00  0.00    +0.044 C 
ATOM     12  C   UNL     1      -3.463   3.175  23.279  0.00  0.00    +0.145 C 
ENDROOT
BRANCH   8  13
ATOM      6  N   UNL     1      -1.768  -2.419  24.707  0.00  0.00    -0.263 NA
ATOM     13  C   UNL     1      -2.453  -0.150  24.230  0.00  0.00    -0.024 A 
ATOM     14  C   UNL     1      -3.761  -0.578  24.036  0.00  0.00    +0.007 A 
ATOM     15  C   UNL     1      -1.502  -1.102  24.561  0.00  0.00    +0.114 A 
ATOM     17  C   UNL     1      -4.075  -1.925  24.177  0.00  0.00    +0.020 A 
ATOM     19  C   UNL     1      -3.051  -2.797  24.510  0.00  0.00    +0.111 A 
ENDBRANCH   8  13
BRANCH   9   5
ATOM      3  O   UNL     1       0.243   2.675  24.955  0.00  0.00    -0.268 OA
ATOM      5  N   UNL     1      -1.590   2.264  26.316  0.00  0.00    -0.304 N 
ATOM     16  C   UNL     1      -0.245   2.508  26.069  0.00  0.00    +0.266 C 
ATOM     23  H   UNL     1      -1.905   2.175  27.277  0.00  0.00    +0.149 HD
BRANCH  16  18
ATOM      4  O   UNL     1       2.400   2.952  28.448  0.00  0.00    -0.359 OA
ATOM      7  N   UNL     1       1.851   3.096  27.180  0.00  0.00    -0.073 NA
ATOM     18  C   UNL     1       0.641   2.536  27.261  0.00  0.00    +0.168 A 
ATOM     20  C   UNL     1       0.373   2.028  28.544  0.00  0.00    +0.080 A 
ATOM     21  C   UNL     1       1.511   2.315  29.252  0.00  0.00    +0.135 A 
ATOM     22  C   UNL     1       1.932   2.077  30.638  0.00  0.00    +0.089 C 
ENDBRANCH  16  18
ENDBRANCH   9   5
BRANCH  10   1
ATOM      1  O   UNL     1      -3.697   4.346  25.389  0.00  0.00    -0.387 OA
ATOM     24  H   UNL     1      -4.165   3.760  26.009  0.00  0.00    +0.210 HD
ENDBRANCH  10   1
BRANCH  12   2
ATOM      2  O   UNL     1      -4.810   2.748  23.453  0.00  0.00    -0.389 OA
ATOM     25  H   UNL     1      -5.303   3.003  22.656  0.00  0.00    +0.210 HD
ENDBRANCH  12   2
TORSDOF 5
ENDMDL
