MODEL 1
REMARK VINA RESULT:       1.8      0.000      0.000
REMARK  Name = 51136978
REMARK  9 active torsions:
REMARK  status: ('A' for Active; 'I' for Inactive)
REMARK    1  A    between atoms: O_6  and  C_14
REMARK    2  A    between atoms: O_7  and  C_21
REMARK    3  A    between atoms: N_9  and  C_12
REMARK    4  A    between atoms: N_10  and  C_22
REMARK    5  A    between atoms: N_11  and  C_18
REMARK    6  A    between atoms: C_13  and  C_18
REMARK    7  A    between atoms: C_15  and  C_21
REMARK    8  A    between atoms: C_24  and  C_28
REMARK    9  A    between atoms: C_26  and  C_30
REMARK                            x       y       z     vdW  Elec       q    Type
REMARK                         _______ _______ _______ _____ _____    ______ ____
ROOT
ATOM      5  O   UNL     1      -4.946   4.181  24.854  0.00  0.00    -0.365 OA
ATOM     12  C   UNL     1      -2.661   4.079  25.510  0.00  0.00    +0.118 C 
ATOM     13  C   UNL     1      -3.607   4.273  24.319  0.00  0.00    +0.155 C 
ATOM     14  C   UNL     1      -3.496   3.259  26.483  0.00  0.00    +0.165 C 
ATOM     15  C   UNL     1      -4.872   3.877  26.260  0.00  0.00    +0.174 C 
ENDROOT
BRANCH  12   9
ATOM      9  N   UNL     1      -1.349   3.532  25.207  0.00  0.00    -0.292 NA
ATOM     10  N   UNL     1       0.523   1.833  23.879  0.00  0.00    -0.327 N 
ATOM     16  C   UNL     1      -1.308   2.095  25.508  0.00  0.00    +0.104 C 
ATOM     17  C   UNL     1      -1.012   3.757  23.796  0.00  0.00    +0.104 C 
ATOM     19  C   UNL     1       0.086   1.519  25.246  0.00  0.00    +0.120 C 
ATOM     20  C   UNL     1       0.391   3.236  23.477  0.00  0.00    +0.120 C 
BRANCH  10  22
ATOM     22  C   UNL     1       1.528   1.039  23.313  0.00  0.00    +0.030 A 
ATOM     23  C   UNL     1       2.840   1.137  23.777  0.00  0.00    +0.035 A 
ATOM     25  C   UNL     1       1.217   0.150  22.284  0.00  0.00    +0.023 A 
ATOM     26  C   UNL     1       3.840   0.346  23.213  0.00  0.00    +0.057 A 
ATOM     27  C   UNL     1       2.217  -0.640  21.720  0.00  0.00    +0.002 A 
ATOM     29  C   UNL     1       3.528  -0.543  22.184  0.00  0.00    +0.012 A 
BRANCH  26  30
ATOM      2  F   UNL     1       6.137  -0.176  22.891  0.00  0.00    -0.166 F 
ATOM      3  F   UNL     1       5.688   1.737  23.821  0.00  0.00    -0.166 F 
ATOM      4  F   UNL     1       5.428  -0.099  24.945  0.00  0.00    -0.166 F 
ATOM     30  C   UNL     1       5.242   0.452  23.709  0.00  0.00    +0.417 C 
ENDBRANCH  26  30
ENDBRANCH  10  22
ENDBRANCH  12   9
BRANCH  14   6
ATOM      6  O   UNL     1      -3.508   1.883  26.126  0.00  0.00    -0.388 OA
ATOM     36  H   UNL     1      -4.098   1.423  26.748  0.00  0.00    +0.210 HD
ENDBRANCH  14   6
BRANCH  13  18
ATOM     18  C   UNL     1      -3.501   3.256  23.188  0.00  0.00    +0.137 C 
BRANCH  18  11
ATOM      8  O   UNL     1      -2.215   1.007  21.952  0.00  0.00    -0.270 OA
ATOM     11  N   UNL     1      -3.437   1.920  23.700  0.00  0.00    -0.309 N 
ATOM     24  C   UNL     1      -2.788   0.885  23.031  0.00  0.00    +0.246 C 
ATOM     37  H   UNL     1      -3.878   1.731  24.596  0.00  0.00    +0.149 HD
BRANCH  24  28
ATOM      1 CL   UNL     1      -5.488  -0.073  24.186  0.00  0.00    -0.083 Cl
ATOM     28  C   UNL     1      -2.833  -0.450  23.682  0.00  0.00    +0.055 A 
ATOM     31  C   UNL     1      -4.008  -0.963  24.230  0.00  0.00    +0.053 A 
ATOM     32  C   UNL     1      -1.655  -1.194  23.734  0.00  0.00    +0.014 A 
ATOM     33  C   UNL     1      -4.006  -2.222  24.831  0.00  0.00    +0.021 A 
ATOM     34  C   UNL     1      -1.653  -2.453  24.336  0.00  0.00    +0.001 A 
ATOM     35  C   UNL     1      -2.828  -2.968  24.884  0.00  0.00    +0.001 A 
ENDBRANCH  24  28
ENDBRANCH  18  11
ENDBRANCH  13  18
BRANCH  15  21
ATOM     21  C   UNL     1      -6.050   3.003  26.647  0.00  0.00    +0.190 C 
BRANCH  21   7
ATOM      7  O   UNL     1      -6.532   2.343  25.488  0.00  0.00    -0.392 OA
ATOM     38  H   UNL     1      -7.251   1.752  25.772  0.00  0.00    +0.210 HD
ENDBRANCH  21   7
ENDBRANCH  15  21
TORSDOF 9
ENDMDL
MODEL 2
REMARK VINA RESULT:       3.3      1.276      1.611
REMARK  Name = 51136978
REMARK  9 active torsions:
REMARK  status: ('A' for Active; 'I' for Inactive)
REMARK    1  A    between atoms: O_6  and  C_14
REMARK    2  A    between atoms: O_7  and  C_21
REMARK    3  A    between atoms: N_9  and  C_12
REMARK    4  A    between atoms: N_10  and  C_22
REMARK    5  A    between atoms: N_11  and  C_18
REMARK    6  A    between atoms: C_13  and  C_18
REMARK    7  A    between atoms: C_15  and  C_21
REMARK    8  A    between atoms: C_24  and  C_28
REMARK    9  A    between atoms: C_26  and  C_30
REMARK                            x       y       z     vdW  Elec       q    Type
REMARK                         _______ _______ _______ _____ _____    ______ ____
ROOT
ATOM      5  O   UNL     1      -4.854   4.589  24.240  0.00  0.00    -0.365 OA
ATOM     12  C   UNL     1      -2.626   3.825  24.584  0.00  0.00    +0.118 C 
ATOM     13  C   UNL     1      -3.764   3.925  23.562  0.00  0.00    +0.155 C 
ATOM     14  C   UNL     1      -3.358   3.841  25.917  0.00  0.00    +0.165 C 
ATOM     15  C   UNL     1      -4.477   4.830  25.610  0.00  0.00    +0.174 C 
ENDROOT
BRANCH  12   9
ATOM      9  N   UNL     1      -1.693   2.725  24.403  0.00  0.00    -0.292 NA
ATOM     10  N   UNL     1       0.694   1.456  23.483  0.00  0.00    -0.327 N 
ATOM     16  C   UNL     1      -1.509   2.437  22.975  0.00  0.00    +0.104 C 
ATOM     17  C   UNL     1      -0.400   3.040  25.020  0.00  0.00    +0.104 C 
ATOM     19  C   UNL     1      -0.574   1.243  22.772  0.00  0.00    +0.120 C 
ATOM     20  C   UNL     1       0.574   1.867  24.885  0.00  0.00    +0.120 C 
BRANCH  10  22
ATOM     22  C   UNL     1       1.812   0.723  23.067  0.00  0.00    +0.030 A 
ATOM     23  C   UNL     1       3.047   0.926  23.683  0.00  0.00    +0.035 A 
ATOM     25  C   UNL     1       1.690  -0.209  22.037  0.00  0.00    +0.023 A 
ATOM     26  C   UNL     1       4.160   0.195  23.267  0.00  0.00    +0.057 A 
ATOM     27  C   UNL     1       2.804  -0.938  21.622  0.00  0.00    +0.002 A 
ATOM     29  C   UNL     1       4.038  -0.737  22.237  0.00  0.00    +0.012 A 
BRANCH  26  30
ATOM      2  F   UNL     1       5.617  -0.306  25.078  0.00  0.00    -0.166 F 
ATOM      3  F   UNL     1       6.546   0.058  23.146  0.00  0.00    -0.166 F 
ATOM      4  F   UNL     1       5.712   1.712  24.274  0.00  0.00    -0.166 F 
ATOM     30  C   UNL     1       5.481   0.412  23.925  0.00  0.00    +0.417 C 
ENDBRANCH  26  30
ENDBRANCH  10  22
ENDBRANCH  12   9
BRANCH  14   6
ATOM      6  O   UNL     1      -3.898   2.563  26.230  0.00  0.00    -0.388 OA
ATOM     36  H   UNL     1      -4.853   2.675  26.375  0.00  0.00    +0.210 HD
ENDBRANCH  14   6
BRANCH  13  18
ATOM     18  C   UNL     1      -4.308   2.610  23.013  0.00  0.00    +0.137 C 
BRANCH  18  11
ATOM      8  O   UNL     1      -5.208   0.449  24.674  0.00  0.00    -0.270 OA
ATOM     11  N   UNL     1      -3.528   1.499  23.467  0.00  0.00    -0.309 N 
ATOM     24  C   UNL     1      -4.048   0.490  24.274  0.00  0.00    +0.246 C 
ATOM     37  H   UNL     1      -2.556   1.448  23.174  0.00  0.00    +0.149 HD
BRANCH  24  28
ATOM      1 CL   UNL     1      -4.637  -2.397  23.344  0.00  0.00    -0.083 Cl
ATOM     28  C   UNL     1      -3.102  -0.581  24.681  0.00  0.00    +0.055 A 
ATOM     31  C   UNL     1      -3.288  -1.911  24.307  0.00  0.00    +0.053 A 
ATOM     32  C   UNL     1      -2.002  -0.222  25.460  0.00  0.00    +0.014 A 
ATOM     33  C   UNL     1      -2.374  -2.884  24.711  0.00  0.00    +0.021 A 
ATOM     34  C   UNL     1      -1.088  -1.195  25.865  0.00  0.00    +0.001 A 
ATOM     35  C   UNL     1      -1.273  -2.526  25.490  0.00  0.00    +0.001 A 
ENDBRANCH  24  28
ENDBRANCH  18  11
ENDBRANCH  13  18
BRANCH  15  21
ATOM     21  C   UNL     1      -5.706   4.720  26.494  0.00  0.00    +0.190 C 
BRANCH  21   7
ATOM      7  O   UNL     1      -6.431   3.558  26.129  0.00  0.00    -0.392 OA
ATOM     38  H   UNL     1      -6.058   2.815  26.634  0.00  0.00    +0.210 HD
ENDBRANCH  21   7
ENDBRANCH  15  21
TORSDOF 9
ENDMDL
MODEL 3
REMARK VINA RESULT:       3.5      2.021      4.317
REMARK  Name = 51136978
REMARK  9 active torsions:
REMARK  status: ('A' for Active; 'I' for Inactive)
REMARK    1  A    between atoms: O_6  and  C_14
REMARK    2  A    between atoms: O_7  and  C_21
REMARK    3  A    between atoms: N_9  and  C_12
REMARK    4  A    between atoms: N_10  and  C_22
REMARK    5  A    between atoms: N_11  and  C_18
REMARK    6  A    between atoms: C_13  and  C_18
REMARK    7  A    between atoms: C_15  and  C_21
REMARK    8  A    between atoms: C_24  and  C_28
REMARK    9  A    between atoms: C_26  and  C_30
REMARK                            x       y       z     vdW  Elec       q    Type
REMARK                         _______ _______ _______ _____ _____    ______ ____
ROOT
ATOM      5  O   UNL     1      -4.585  -0.378  25.896  0.00  0.00    -0.365 OA
ATOM     12  C   UNL     1      -3.134  -1.073  24.142  0.00  0.00    +0.118 C 
ATOM     13  C   UNL     1      -3.295  -0.988  25.664  0.00  0.00    +0.155 C 
ATOM     14  C   UNL     1      -4.018   0.057  23.638  0.00  0.00    +0.165 C 
ATOM     15  C   UNL     1      -5.174  -0.029  24.628  0.00  0.00    +0.174 C 
ENDROOT
BRANCH  12   9
ATOM      9  N   UNL     1      -1.770  -1.065  23.639  0.00  0.00    -0.292 NA
ATOM     10  N   UNL     1       0.935  -0.169  23.454  0.00  0.00    -0.327 N 
ATOM     16  C   UNL     1      -1.458   0.230  23.020  0.00  0.00    +0.104 C 
ATOM     17  C   UNL     1      -0.820  -1.342  24.722  0.00  0.00    +0.104 C 
ATOM     19  C   UNL     1      -0.044   0.231  22.435  0.00  0.00    +0.120 C 
ATOM     20  C   UNL     1       0.615  -1.392  24.195  0.00  0.00    +0.120 C 
BRANCH  10  22
ATOM     22  C   UNL     1       2.272   0.198  23.261  0.00  0.00    +0.030 A 
ATOM     23  C   UNL     1       3.296  -0.664  23.655  0.00  0.00    +0.035 A 
ATOM     25  C   UNL     1       2.580   1.425  22.674  0.00  0.00    +0.023 A 
ATOM     26  C   UNL     1       4.627  -0.299  23.461  0.00  0.00    +0.057 A 
ATOM     27  C   UNL     1       3.912   1.790  22.481  0.00  0.00    +0.002 A 
ATOM     29  C   UNL     1       4.936   0.928  22.874  0.00  0.00    +0.012 A 
BRANCH  26  30
ATOM      2  F   UNL     1       6.847  -1.080  23.123  0.00  0.00    -0.166 F 
ATOM      3  F   UNL     1       6.126  -1.035  25.174  0.00  0.00    -0.166 F 
ATOM      4  F   UNL     1       5.387  -2.542  23.800  0.00  0.00    -0.166 F 
ATOM     30  C   UNL     1       5.722  -1.220  23.883  0.00  0.00    +0.417 C 
ENDBRANCH  26  30
ENDBRANCH  10  22
ENDBRANCH  12   9
BRANCH  14   6
ATOM      6  O   UNL     1      -3.366   1.316  23.747  0.00  0.00    -0.388 OA
ATOM     36  H   UNL     1      -3.228   1.655  22.846  0.00  0.00    +0.210 HD
ENDBRANCH  14   6
BRANCH  13  18
ATOM     18  C   UNL     1      -2.261  -0.157  26.417  0.00  0.00    +0.137 C 
BRANCH  18  11
ATOM      8  O   UNL     1      -0.005   1.606  26.623  0.00  0.00    -0.270 OA
ATOM     11  N   UNL     1      -2.148   1.156  25.857  0.00  0.00    -0.309 N 
ATOM     24  C   UNL     1      -1.011   1.946  26.007  0.00  0.00    +0.246 C 
ATOM     37  H   UNL     1      -2.933   1.515  25.321  0.00  0.00    +0.149 HD
BRANCH  24  28
ATOM      1 CL   UNL     1      -3.143   3.932  27.033  0.00  0.00    -0.083 Cl
ATOM     28  C   UNL     1      -1.061   3.296  25.388  0.00  0.00    +0.055 A 
ATOM     31  C   UNL     1      -1.990   4.256  25.789  0.00  0.00    +0.053 A 
ATOM     32  C   UNL     1      -0.143   3.590  24.380  0.00  0.00    +0.014 A 
ATOM     33  C   UNL     1      -2.001   5.512  25.181  0.00  0.00    +0.021 A 
ATOM     34  C   UNL     1      -0.155   4.846  23.772  0.00  0.00    +0.001 A 
ATOM     35  C   UNL     1      -1.083   5.807  24.173  0.00  0.00    +0.001 A 
ENDBRANCH  24  28
ENDBRANCH  18  11
ENDBRANCH  13  18
BRANCH  15  21
ATOM     21  C   UNL     1      -5.993   1.238  24.788  0.00  0.00    +0.190 C 
BRANCH  21   7
ATOM      7  O   UNL     1      -5.327   2.103  25.694  0.00  0.00    -0.392 OA
ATOM     38  H   UNL     1      -4.549   1.625  26.028  0.00  0.00    +0.210 HD
ENDBRANCH  21   7
ENDBRANCH  15  21
TORSDOF 9
ENDMDL
MODEL 4
REMARK VINA RESULT:       4.0      1.695      2.279
REMARK  Name = 51136978
REMARK  9 active torsions:
REMARK  status: ('A' for Active; 'I' for Inactive)
REMARK    1  A    between atoms: O_6  and  C_14
REMARK    2  A    between atoms: O_7  and  C_21
REMARK    3  A    between atoms: N_9  and  C_12
REMARK    4  A    between atoms: N_10  and  C_22
REMARK    5  A    between atoms: N_11  and  C_18
REMARK    6  A    between atoms: C_13  and  C_18
REMARK    7  A    between atoms: C_15  and  C_21
REMARK    8  A    between atoms: C_24  and  C_28
REMARK    9  A    between atoms: C_26  and  C_30
REMARK                            x       y       z     vdW  Elec       q    Type
REMARK                         _______ _______ _______ _____ _____    ______ ____
ROOT
ATOM      5  O   UNL     1      -5.634   3.489  24.843  0.00  0.00    -0.365 OA
ATOM     12  C   UNL     1      -3.417   3.117  24.061  0.00  0.00    +0.118 C 
ATOM     13  C   UNL     1      -4.781   2.457  24.298  0.00  0.00    +0.155 C 
ATOM     14  C   UNL     1      -3.405   4.255  25.070  0.00  0.00    +0.165 C 
ATOM     15  C   UNL     1      -4.863   4.695  25.014  0.00  0.00    +0.174 C 
ENDROOT
BRANCH  12   9
ATOM      9  N   UNL     1      -2.262   2.236  24.106  0.00  0.00    -0.292 NA
ATOM     10  N   UNL     1       0.239   1.169  23.231  0.00  0.00    -0.327 N 
ATOM     16  C   UNL     1      -2.189   1.420  22.887  0.00  0.00    +0.104 C 
ATOM     17  C   UNL     1      -1.027   3.014  24.260  0.00  0.00    +0.104 C 
ATOM     19  C   UNL     1      -1.009   0.447  22.948  0.00  0.00    +0.120 C 
ATOM     20  C   UNL     1       0.192   2.095  24.366  0.00  0.00    +0.120 C 
BRANCH  10  22
ATOM     22  C   UNL     1       1.447   0.553  22.887  0.00  0.00    +0.030 A 
ATOM     23  C   UNL     1       2.632   0.940  23.514  0.00  0.00    +0.035 A 
ATOM     25  C   UNL     1       1.467  -0.448  21.916  0.00  0.00    +0.023 A 
ATOM     26  C   UNL     1       3.835   0.325  23.170  0.00  0.00    +0.057 A 
ATOM     27  C   UNL     1       2.671  -1.062  21.572  0.00  0.00    +0.002 A 
ATOM     29  C   UNL     1       3.855  -0.676  22.199  0.00  0.00    +0.012 A 
BRANCH  26  30
ATOM      2  F   UNL     1       6.171  -0.015  23.453  0.00  0.00    -0.166 F 
ATOM      3  F   UNL     1       5.457   2.034  23.589  0.00  0.00    -0.166 F 
ATOM      4  F   UNL     1       5.058   0.639  25.202  0.00  0.00    -0.166 F 
ATOM     30  C   UNL     1       5.102   0.739  23.840  0.00  0.00    +0.417 C 
ENDBRANCH  26  30
ENDBRANCH  10  22
ENDBRANCH  12   9
BRANCH  14   6
ATOM      6  O   UNL     1      -3.077   3.791  26.374  0.00  0.00    -0.388 OA
ATOM     36  H   UNL     1      -2.226   3.325  26.315  0.00  0.00    +0.210 HD
ENDBRANCH  14   6
BRANCH  13  18
ATOM     18  C   UNL     1      -4.814   1.284  25.271  0.00  0.00    +0.137 C 
BRANCH  18  11
ATOM      8  O   UNL     1      -3.606  -0.905  26.682  0.00  0.00    -0.270 OA
ATOM     11  N   UNL     1      -4.223   0.116  24.691  0.00  0.00    -0.309 N 
ATOM     24  C   UNL     1      -3.657  -0.903  25.455  0.00  0.00    +0.246 C 
ATOM     37  H   UNL     1      -4.230   0.030  23.679  0.00  0.00    +0.149 HD
BRANCH  24  28
ATOM      1 CL   UNL     1      -0.592  -1.266  25.569  0.00  0.00    -0.083 Cl
ATOM     28  C   UNL     1      -3.061  -2.036  24.701  0.00  0.00    +0.055 A 
ATOM     31  C   UNL     1      -1.687  -2.276  24.696  0.00  0.00    +0.053 A 
ATOM     32  C   UNL     1      -3.918  -2.871  23.986  0.00  0.00    +0.014 A 
ATOM     33  C   UNL     1      -1.170  -3.353  23.976  0.00  0.00    +0.021 A 
ATOM     34  C   UNL     1      -3.401  -3.948  23.264  0.00  0.00    +0.001 A 
ATOM     35  C   UNL     1      -2.027  -4.189  23.260  0.00  0.00    +0.001 A 
ENDBRANCH  24  28
ENDBRANCH  18  11
ENDBRANCH  13  18
BRANCH  15  21
ATOM     21  C   UNL     1      -5.367   5.442  26.234  0.00  0.00    +0.190 C 
BRANCH  21   7
ATOM      7  O   UNL     1      -6.784   5.489  26.191  0.00  0.00    -0.392 OA
ATOM     38  H   UNL     1      -7.045   6.413  26.347  0.00  0.00    +0.210 HD
ENDBRANCH  21   7
ENDBRANCH  15  21
TORSDOF 9
ENDMDL
MODEL 5
REMARK VINA RESULT:       4.4      4.494      7.530
REMARK  Name = 51136978
REMARK  9 active torsions:
REMARK  status: ('A' for Active; 'I' for Inactive)
REMARK    1  A    between atoms: O_6  and  C_14
REMARK    2  A    between atoms: O_7  and  C_21
REMARK    3  A    between atoms: N_9  and  C_12
REMARK    4  A    between atoms: N_10  and  C_22
REMARK    5  A    between atoms: N_11  and  C_18
REMARK    6  A    between atoms: C_13  and  C_18
REMARK    7  A    between atoms: C_15  and  C_21
REMARK    8  A    between atoms: C_24  and  C_28
REMARK    9  A    between atoms: C_26  and  C_30
REMARK                            x       y       z     vdW  Elec       q    Type
REMARK                         _______ _______ _______ _____ _____    ______ ____
ROOT
ATOM      5  O   UNL     1       3.656  -1.013  23.244  0.00  0.00    -0.365 OA
ATOM     12  C   UNL     1       2.508   0.888  24.103  0.00  0.00    +0.118 C 
ATOM     13  C   UNL     1       2.348  -0.577  23.680  0.00  0.00    +0.155 C 
ATOM     14  C   UNL     1       3.701   1.355  23.282  0.00  0.00    +0.165 C 
ATOM     15  C   UNL     1       4.568   0.101  23.309  0.00  0.00    +0.174 C 
ENDROOT
BRANCH  12   9
ATOM      9  N   UNL     1       1.321   1.720  24.000  0.00  0.00    -0.292 NA
ATOM     10  N   UNL     1      -1.358   2.522  24.577  0.00  0.00    -0.327 N 
ATOM     16  C   UNL     1       0.187   0.938  23.492  0.00  0.00    +0.104 C 
ATOM     17  C   UNL     1       0.984   2.299  25.306  0.00  0.00    +0.104 C 
ATOM     19  C   UNL     1      -1.055   1.817  23.325  0.00  0.00    +0.120 C 
ATOM     20  C   UNL     1      -0.231   3.223  25.200  0.00  0.00    +0.120 C 
BRANCH  10  22
ATOM     22  C   UNL     1      -2.661   2.998  24.764  0.00  0.00    +0.030 A 
ATOM     23  C   UNL     1      -3.727   2.100  24.842  0.00  0.00    +0.035 A 
ATOM     25  C   UNL     1      -2.894   4.369  24.871  0.00  0.00    +0.023 A 
ATOM     26  C   UNL     1      -5.025   2.575  25.028  0.00  0.00    +0.057 A 
ATOM     27  C   UNL     1      -4.192   4.842  25.057  0.00  0.00    +0.002 A 
ATOM     29  C   UNL     1      -5.257   3.946  25.136  0.00  0.00    +0.012 A 
BRANCH  26  30
ATOM      2  F   UNL     1      -6.576   1.403  26.396  0.00  0.00    -0.166 F 
ATOM      3  F   UNL     1      -7.276   2.026  24.434  0.00  0.00    -0.166 F 
ATOM      4  F   UNL     1      -5.876   0.379  24.610  0.00  0.00    -0.166 F 
ATOM     30  C   UNL     1      -6.164   1.616  25.112  0.00  0.00    +0.417 C 
ENDBRANCH  26  30
ENDBRANCH  10  22
ENDBRANCH  12   9
BRANCH  14   6
ATOM      6  O   UNL     1       3.323   1.667  21.947  0.00  0.00    -0.388 OA
ATOM     36  H   UNL     1       2.565   2.274  21.990  0.00  0.00    +0.210 HD
ENDBRANCH  14   6
BRANCH  13  18
ATOM     18  C   UNL     1       1.376  -0.858  22.540  0.00  0.00    +0.137 C 
BRANCH  18  11
ATOM      8  O   UNL     1       0.636  -2.173  24.982  0.00  0.00    -0.270 OA
ATOM     11  N   UNL     1       0.047  -1.061  23.033  0.00  0.00    -0.309 N 
ATOM     24  C   UNL     1      -0.222  -1.712  24.234  0.00  0.00    +0.246 C 
ATOM     37  H   UNL     1      -0.727  -0.701  22.480  0.00  0.00    +0.149 HD
BRANCH  24  28
ATOM      1 CL   UNL     1      -1.313  -0.042  26.593  0.00  0.00    -0.083 Cl
ATOM     28  C   UNL     1      -1.656  -1.865  24.593  0.00  0.00    +0.055 A 
ATOM     31  C   UNL     1      -2.234  -1.151  25.643  0.00  0.00    +0.053 A 
ATOM     32  C   UNL     1      -2.428  -2.753  23.845  0.00  0.00    +0.014 A 
ATOM     33  C   UNL     1      -3.584  -1.325  25.944  0.00  0.00    +0.021 A 
ATOM     34  C   UNL     1      -3.779  -2.928  24.147  0.00  0.00    +0.001 A 
ATOM     35  C   UNL     1      -4.358  -2.214  25.196  0.00  0.00    +0.001 A 
ENDBRANCH  24  28
ENDBRANCH  18  11
ENDBRANCH  13  18
BRANCH  15  21
ATOM     21  C   UNL     1       5.581  -0.016  22.186  0.00  0.00    +0.190 C 
BRANCH  21   7
ATOM      7  O   UNL     1       6.852  -0.310  22.743  0.00  0.00    -0.392 OA
ATOM     38  H   UNL     1       7.511  -0.185  22.039  0.00  0.00    +0.210 HD
ENDBRANCH  21   7
ENDBRANCH  15  21
TORSDOF 9
ENDMDL
