MODEL 1
REMARK VINA RESULT:      -2.5      0.000      0.000
REMARK  Name = 25314544
REMARK  11 active torsions:
REMARK  status: ('A' for Active; 'I' for Inactive)
REMARK    1  A    between atoms: O_3  and  C_9
REMARK    2  A    between atoms: O_4  and  C_23
REMARK    3  A    between atoms: O_4  and  C_24
REMARK    4  A    between atoms: N_5  and  C_7
REMARK    5  A    between atoms: N_5  and  C_13
REMARK    6  A    between atoms: N_5  and  C_14
REMARK    7  A    between atoms: N_6  and  C_8
REMARK    8  A    between atoms: N_6  and  C_15
REMARK    9  A    between atoms: C_13  and  C_16
REMARK   10  A    between atoms: C_14  and  C_17
REMARK   11  A    between atoms: C_15  and  C_18
REMARK                            x       y       z     vdW  Elec       q    Type
REMARK                         _______ _______ _______ _____ _____    ______ ____
ROOT
ATOM      1  O   UNL     1      14.411  -5.495  30.197  0.00  0.00    -0.343 OA
ATOM      2  O   UNL     1      16.417  -4.622  30.967  0.00  0.00    -0.347 OA
ATOM      7  C   UNL     1      16.333  -6.951  30.322  0.00  0.00    +0.143 C 
ATOM      8  C   UNL     1      14.599  -6.770  32.243  0.00  0.00    +0.116 C 
ATOM      9  C   UNL     1      15.949  -7.358  31.763  0.00  0.00    +0.156 C 
ATOM     10  C   UNL     1      14.302  -5.387  31.621  0.00  0.00    +0.166 C 
ATOM     11  C   UNL     1      15.833  -5.528  30.015  0.00  0.00    +0.270 C 
ATOM     12  C   UNL     1      15.363  -4.338  31.898  0.00  0.00    +0.196 C 
ENDROOT
BRANCH   9   3
ATOM      3  O   UNL     1      16.987  -6.890  32.637  0.00  0.00    -0.388 OA
ATOM     26  H   UNL     1      16.886  -5.928  32.730  0.00  0.00    +0.210 HD
ENDBRANCH   9   3
BRANCH   8   6
ATOM      6  N   UNL     1      13.494  -7.673  31.901  0.00  0.00    -0.305 NA
ATOM     25  H   UNL     1      13.835  -8.634  31.869  0.00  0.00    +0.123 HD
BRANCH   6  15
ATOM     15  C   UNL     1      12.420  -7.555  32.873  0.00  0.00    +0.116 C 
BRANCH  15  18
ATOM     18  C   UNL     1      11.219  -8.373  32.483  0.00  0.00    -0.033 A 
ATOM     19  C   UNL     1       9.949  -7.796  32.492  0.00  0.00    +0.008 A 
ATOM     20  C   UNL     1      11.376  -9.707  32.111  0.00  0.00    +0.008 A 
ATOM     21  C   UNL     1       8.836  -8.554  32.128  0.00  0.00    +0.046 A 
ATOM     22  C   UNL     1      10.263 -10.466  31.747  0.00  0.00    +0.046 A 
ATOM     23  C   UNL     1       8.993  -9.888  31.755  0.00  0.00    +0.120 A 
BRANCH  23   4
ATOM      4  O   UNL     1       7.907 -10.628  31.398  0.00  0.00    -0.495 OA
ATOM     24  C   UNL     1       6.912  -9.979  30.607  0.00  0.00    +0.277 C 
ENDBRANCH  23   4
ENDBRANCH  15  18
ENDBRANCH   6  15
ENDBRANCH   8   6
BRANCH   7   5
ATOM      5  N   UNL     1      15.778  -7.895  29.351  0.00  0.00    -0.293 NA
BRANCH   5  13
ATOM     13  C   UNL     1      15.867  -9.263  29.862  0.00  0.00    +0.081 C 
ATOM     16  C   UNL     1      14.658 -10.083  29.463  0.00  0.00    +0.020 C 
ENDBRANCH   5  13
BRANCH   5  14
ATOM     14  C   UNL     1      16.476  -7.781  28.071  0.00  0.00    +0.081 C 
ATOM     17  C   UNL     1      15.526  -7.409  26.953  0.00  0.00    +0.020 C 
ENDBRANCH   5  14
ENDBRANCH   7   5
TORSDOF 8
ENDMDL
MODEL 2
REMARK VINA RESULT:      -2.4     14.845     18.315
REMARK  Name = 25314544
REMARK  11 active torsions:
REMARK  status: ('A' for Active; 'I' for Inactive)
REMARK    1  A    between atoms: O_3  and  C_9
REMARK    2  A    between atoms: O_4  and  C_23
REMARK    3  A    between atoms: O_4  and  C_24
REMARK    4  A    between atoms: N_5  and  C_7
REMARK    5  A    between atoms: N_5  and  C_13
REMARK    6  A    between atoms: N_5  and  C_14
REMARK    7  A    between atoms: N_6  and  C_8
REMARK    8  A    between atoms: N_6  and  C_15
REMARK    9  A    between atoms: C_13  and  C_16
REMARK   10  A    between atoms: C_14  and  C_17
REMARK   11  A    between atoms: C_15  and  C_18
REMARK                            x       y       z     vdW  Elec       q    Type
REMARK                         _______ _______ _______ _____ _____    ______ ____
ROOT
ATOM      1  O   UNL     1      -2.530  -0.304  23.375  0.00  0.00    -0.343 OA
ATOM      2  O   UNL     1      -3.217  -1.406  25.297  0.00  0.00    -0.347 OA
ATOM      7  C   UNL     1      -2.441   0.877  25.478  0.00  0.00    +0.143 C 
ATOM      8  C   UNL     1      -0.400  -0.404  24.515  0.00  0.00    +0.116 C 
ATOM      9  C   UNL     1      -0.992   0.388  25.707  0.00  0.00    +0.156 C 
ATOM     10  C   UNL     1      -1.476  -1.201  23.743  0.00  0.00    +0.166 C 
ATOM     11  C   UNL     1      -3.220  -0.137  24.621  0.00  0.00    +0.270 C 
ATOM     12  C   UNL     1      -2.246  -2.195  24.594  0.00  0.00    +0.196 C 
ENDROOT
BRANCH   9   3
ATOM      3  O   UNL     1      -0.999  -0.464  26.863  0.00  0.00    -0.388 OA
ATOM     26  H   UNL     1      -0.080  -0.720  27.048  0.00  0.00    +0.210 HD
ENDBRANCH   9   3
BRANCH   8   6
ATOM      6  N   UNL     1       0.262   0.504  23.572  0.00  0.00    -0.305 NA
ATOM     25  H   UNL     1       0.855   1.156  24.085  0.00  0.00    +0.123 HD
BRANCH   6  15
ATOM     15  C   UNL     1       1.054  -0.247  22.612  0.00  0.00    +0.116 C 
BRANCH  15  18
ATOM     18  C   UNL     1       2.521  -0.210  22.947  0.00  0.00    -0.033 A 
ATOM     19  C   UNL     1       3.129  -1.316  23.541  0.00  0.00    +0.008 A 
ATOM     20  C   UNL     1       3.272   0.929  22.661  0.00  0.00    +0.008 A 
ATOM     21  C   UNL     1       4.489  -1.283  23.848  0.00  0.00    +0.046 A 
ATOM     22  C   UNL     1       4.633   0.962  22.969  0.00  0.00    +0.046 A 
ATOM     23  C   UNL     1       5.241  -0.144  23.562  0.00  0.00    +0.120 A 
BRANCH  23   4
ATOM      4  O   UNL     1       6.569  -0.112  23.861  0.00  0.00    -0.495 OA
ATOM     24  C   UNL     1       7.471  -0.578  22.858  0.00  0.00    +0.277 C 
ENDBRANCH  23   4
ENDBRANCH  15  18
ENDBRANCH   6  15
ENDBRANCH   8   6
BRANCH   7   5
ATOM      5  N   UNL     1      -2.448   2.189  24.830  0.00  0.00    -0.293 NA
BRANCH   5  13
ATOM     13  C   UNL     1      -1.904   3.206  25.730  0.00  0.00    +0.081 C 
ATOM     16  C   UNL     1      -0.922   4.110  25.015  0.00  0.00    +0.020 C 
ENDBRANCH   5  13
BRANCH   5  14
ATOM     14  C   UNL     1      -3.805   2.547  24.417  0.00  0.00    +0.081 C 
ATOM     17  C   UNL     1      -4.540   3.291  25.512  0.00  0.00    +0.020 C 
ENDBRANCH   5  14
ENDBRANCH   7   5
TORSDOF 8
ENDMDL
MODEL 3
REMARK VINA RESULT:      -2.3     15.319     18.504
REMARK  Name = 25314544
REMARK  11 active torsions:
REMARK  status: ('A' for Active; 'I' for Inactive)
REMARK    1  A    between atoms: O_3  and  C_9
REMARK    2  A    between atoms: O_4  and  C_23
REMARK    3  A    between atoms: O_4  and  C_24
REMARK    4  A    between atoms: N_5  and  C_7
REMARK    5  A    between atoms: N_5  and  C_13
REMARK    6  A    between atoms: N_5  and  C_14
REMARK    7  A    between atoms: N_6  and  C_8
REMARK    8  A    between atoms: N_6  and  C_15
REMARK    9  A    between atoms: C_13  and  C_16
REMARK   10  A    between atoms: C_14  and  C_17
REMARK   11  A    between atoms: C_15  and  C_18
REMARK                            x       y       z     vdW  Elec       q    Type
REMARK                         _______ _______ _______ _____ _____    ______ ____
ROOT
ATOM      1  O   UNL     1      -0.974   2.060  25.840  0.00  0.00    -0.343 OA
ATOM      2  O   UNL     1      -2.173   3.770  24.830  0.00  0.00    -0.347 OA
ATOM      7  C   UNL     1      -2.842   1.482  24.424  0.00  0.00    +0.143 C 
ATOM      8  C   UNL     1      -0.406   1.589  23.537  0.00  0.00    +0.116 C 
ATOM      9  C   UNL     1      -1.906   1.404  23.196  0.00  0.00    +0.156 C 
ATOM     10  C   UNL     1      -0.186   2.533  24.741  0.00  0.00    +0.166 C 
ATOM     11  C   UNL     1      -2.290   2.481  25.458  0.00  0.00    +0.270 C 
ATOM     12  C   UNL     1      -0.772   3.921  24.560  0.00  0.00    +0.196 C 
ENDROOT
BRANCH   9   3
ATOM      3  O   UNL     1      -2.298   2.442  22.285  0.00  0.00    -0.388 OA
ATOM     26  H   UNL     1      -1.602   3.119  22.289  0.00  0.00    +0.210 HD
ENDBRANCH   9   3
BRANCH   8   6
ATOM      6  N   UNL     1       0.214   0.297  23.848  0.00  0.00    -0.305 NA
ATOM     25  H   UNL     1      -0.509  -0.381  24.088  0.00  0.00    +0.123 HD
BRANCH   6  15
ATOM     15  C   UNL     1       0.994  -0.180  22.717  0.00  0.00    +0.116 C 
BRANCH  15  18
ATOM     18  C   UNL     1       2.470  -0.168  23.010  0.00  0.00    -0.033 A 
ATOM     19  C   UNL     1       3.077  -1.287  23.579  0.00  0.00    +0.008 A 
ATOM     20  C   UNL     1       3.230   0.962  22.711  0.00  0.00    +0.008 A 
ATOM     21  C   UNL     1       4.446  -1.277  23.848  0.00  0.00    +0.046 A 
ATOM     22  C   UNL     1       4.600   0.972  22.980  0.00  0.00    +0.046 A 
ATOM     23  C   UNL     1       5.207  -0.148  23.548  0.00  0.00    +0.120 A 
BRANCH  23   4
ATOM      4  O   UNL     1       6.543  -0.138  23.809  0.00  0.00    -0.495 OA
ATOM     24  C   UNL     1       7.409  -0.610  22.777  0.00  0.00    +0.277 C 
ENDBRANCH  23   4
ENDBRANCH  15  18
ENDBRANCH   6  15
ENDBRANCH   8   6
BRANCH   7   5
ATOM      5  N   UNL     1      -3.000   0.164  25.039  0.00  0.00    -0.293 NA
BRANCH   5  13
ATOM     13  C   UNL     1      -2.763  -0.891  24.054  0.00  0.00    +0.081 C 
ATOM     16  C   UNL     1      -3.546  -2.145  24.385  0.00  0.00    +0.020 C 
ENDBRANCH   5  13
BRANCH   5  14
ATOM     14  C   UNL     1      -4.335   0.029  25.622  0.00  0.00    +0.081 C 
ATOM     17  C   UNL     1      -5.267   1.115  25.129  0.00  0.00    +0.020 C 
ENDBRANCH   5  14
ENDBRANCH   7   5
TORSDOF 8
ENDMDL
MODEL 4
REMARK VINA RESULT:      -2.2     16.677     19.886
REMARK  Name = 25314544
REMARK  11 active torsions:
REMARK  status: ('A' for Active; 'I' for Inactive)
REMARK    1  A    between atoms: O_3  and  C_9
REMARK    2  A    between atoms: O_4  and  C_23
REMARK    3  A    between atoms: O_4  and  C_24
REMARK    4  A    between atoms: N_5  and  C_7
REMARK    5  A    between atoms: N_5  and  C_13
REMARK    6  A    between atoms: N_5  and  C_14
REMARK    7  A    between atoms: N_6  and  C_8
REMARK    8  A    between atoms: N_6  and  C_15
REMARK    9  A    between atoms: C_13  and  C_16
REMARK   10  A    between atoms: C_14  and  C_17
REMARK   11  A    between atoms: C_15  and  C_18
REMARK                            x       y       z     vdW  Elec       q    Type
REMARK                         _______ _______ _______ _____ _____    ______ ____
ROOT
ATOM      1  O   UNL     1      -2.634   3.398  26.228  0.00  0.00    -0.343 OA
ATOM      2  O   UNL     1      -3.492   4.912  24.694  0.00  0.00    -0.347 OA
ATOM      7  C   UNL     1      -4.194   2.602  24.565  0.00  0.00    +0.143 C 
ATOM      8  C   UNL     1      -1.624   2.496  24.225  0.00  0.00    +0.116 C 
ATOM      9  C   UNL     1      -3.026   2.278  23.604  0.00  0.00    +0.156 C 
ATOM     10  C   UNL     1      -1.607   3.643  25.260  0.00  0.00    +0.166 C 
ATOM     11  C   UNL     1      -3.814   3.765  25.499  0.00  0.00    +0.270 C 
ATOM     12  C   UNL     1      -2.059   4.984  24.712  0.00  0.00    +0.196 C 
ENDROOT
BRANCH   9   3
ATOM      3  O   UNL     1      -3.157   3.135  22.460  0.00  0.00    -0.388 OA
ATOM     26  H   UNL     1      -3.998   2.921  22.023  0.00  0.00    +0.210 HD
ENDBRANCH   9   3
BRANCH   8   6
ATOM      6  N   UNL     1      -1.159   1.272  24.888  0.00  0.00    -0.305 NA
ATOM     25  H   UNL     1      -1.883   0.931  25.521  0.00  0.00    +0.123 HD
BRANCH   6  15
ATOM     15  C   UNL     1      -0.830   0.253  23.906  0.00  0.00    +0.116 C 
BRANCH  15  18
ATOM     18  C   UNL     1       0.606   0.344  23.464  0.00  0.00    -0.033 A 
ATOM     19  C   UNL     1       1.420   1.370  23.944  0.00  0.00    +0.008 A 
ATOM     20  C   UNL     1       1.123  -0.599  22.576  0.00  0.00    +0.008 A 
ATOM     21  C   UNL     1       2.751   1.453  23.536  0.00  0.00    +0.046 A 
ATOM     22  C   UNL     1       2.455  -0.515  22.168  0.00  0.00    +0.046 A 
ATOM     23  C   UNL     1       3.268   0.510  22.649  0.00  0.00    +0.120 A 
BRANCH  23   4
ATOM      4  O   UNL     1       4.568   0.590  22.252  0.00  0.00    -0.495 OA
ATOM     24  C   UNL     1       5.554   0.093  23.156  0.00  0.00    +0.277 C 
ENDBRANCH  23   4
ENDBRANCH  15  18
ENDBRANCH   6  15
ENDBRANCH   8   6
BRANCH   7   5
ATOM      5  N   UNL     1      -4.554   1.424  25.356  0.00  0.00    -0.293 NA
BRANCH   5  13
ATOM     13  C   UNL     1      -4.411   0.208  24.555  0.00  0.00    +0.081 C 
ATOM     16  C   UNL     1      -3.848  -0.933  25.377  0.00  0.00    +0.020 C 
ENDBRANCH   5  13
BRANCH   5  14
ATOM     14  C   UNL     1      -5.922   1.546  25.859  0.00  0.00    +0.081 C 
ATOM     17  C   UNL     1      -6.900   1.839  24.740  0.00  0.00    +0.020 C 
ENDBRANCH   5  14
ENDBRANCH   7   5
TORSDOF 8
ENDMDL
MODEL 5
REMARK VINA RESULT:      -2.0     17.703     20.152
REMARK  Name = 25314544
REMARK  11 active torsions:
REMARK  status: ('A' for Active; 'I' for Inactive)
REMARK    1  A    between atoms: O_3  and  C_9
REMARK    2  A    between atoms: O_4  and  C_23
REMARK    3  A    between atoms: O_4  and  C_24
REMARK    4  A    between atoms: N_5  and  C_7
REMARK    5  A    between atoms: N_5  and  C_13
REMARK    6  A    between atoms: N_5  and  C_14
REMARK    7  A    between atoms: N_6  and  C_8
REMARK    8  A    between atoms: N_6  and  C_15
REMARK    9  A    between atoms: C_13  and  C_16
REMARK   10  A    between atoms: C_14  and  C_17
REMARK   11  A    between atoms: C_15  and  C_18
REMARK                            x       y       z     vdW  Elec       q    Type
REMARK                         _______ _______ _______ _____ _____    ______ ____
ROOT
ATOM      1  O   UNL     1      -2.411  -1.269  26.182  0.00  0.00    -0.343 OA
ATOM      2  O   UNL     1      -2.055  -2.602  24.318  0.00  0.00    -0.347 OA
ATOM      7  C   UNL     1      -2.015  -0.199  24.054  0.00  0.00    +0.143 C 
ATOM      8  C   UNL     1      -4.404  -0.693  24.939  0.00  0.00    +0.116 C 
ATOM      9  C   UNL     1      -3.534  -0.185  23.763  0.00  0.00    +0.156 C 
ATOM     10  C   UNL     1      -3.688  -1.776  25.778  0.00  0.00    +0.166 C 
ATOM     11  C   UNL     1      -1.655  -1.384  24.969  0.00  0.00    +0.270 C 
ATOM     12  C   UNL     1      -3.261  -2.998  24.986  0.00  0.00    +0.196 C 
ENDROOT
BRANCH   9   3
ATOM      3  O   UNL     1      -3.765  -1.031  22.626  0.00  0.00    -0.388 OA
ATOM     26  H   UNL     1      -4.315  -1.776  22.917  0.00  0.00    +0.210 HD
ENDBRANCH   9   3
BRANCH   8   6
ATOM      6  N   UNL     1      -4.762   0.415  25.830  0.00  0.00    -0.305 NA
ATOM     25  H   UNL     1      -3.940   0.708  26.359  0.00  0.00    +0.123 HD
BRANCH   6  15
ATOM     15  C   UNL     1      -5.292   1.532  25.067  0.00  0.00    +0.116 C 
BRANCH  15  18
ATOM     18  C   UNL     1      -4.342   2.699  25.050  0.00  0.00    -0.033 A 
ATOM     19  C   UNL     1      -3.788   3.166  26.241  0.00  0.00    +0.008 A 
ATOM     20  C   UNL     1      -4.016   3.313  23.841  0.00  0.00    +0.008 A 
ATOM     21  C   UNL     1      -2.905   4.246  26.225  0.00  0.00    +0.046 A 
ATOM     22  C   UNL     1      -3.133   4.394  23.824  0.00  0.00    +0.046 A 
ATOM     23  C   UNL     1      -2.578   4.860  25.016  0.00  0.00    +0.120 A 
BRANCH  23   4
ATOM      4  O   UNL     1      -1.716   5.913  24.999  0.00  0.00    -0.495 OA
ATOM     24  C   UNL     1      -0.362   5.638  24.638  0.00  0.00    +0.277 C 
ENDBRANCH  23   4
ENDBRANCH  15  18
ENDBRANCH   6  15
ENDBRANCH   8   6
BRANCH   7   5
ATOM      5  N   UNL     1      -1.596   1.058  24.677  0.00  0.00    -0.293 NA
BRANCH   5  13
ATOM     13  C   UNL     1      -0.756   1.827  23.759  0.00  0.00    +0.081 C 
ATOM     16  C   UNL     1       0.483   1.052  23.361  0.00  0.00    +0.020 C 
ENDBRANCH   5  13
BRANCH   5  14
ATOM     14  C   UNL     1      -0.882   0.795  25.926  0.00  0.00    +0.081 C 
ATOM     17  C   UNL     1      -0.212   2.046  26.455  0.00  0.00    +0.020 C 
ENDBRANCH   5  14
ENDBRANCH   7   5
TORSDOF 8
ENDMDL
MODEL 6
REMARK VINA RESULT:      -1.6     17.507     19.569
REMARK  Name = 25314544
REMARK  11 active torsions:
REMARK  status: ('A' for Active; 'I' for Inactive)
REMARK    1  A    between atoms: O_3  and  C_9
REMARK    2  A    between atoms: O_4  and  C_23
REMARK    3  A    between atoms: O_4  and  C_24
REMARK    4  A    between atoms: N_5  and  C_7
REMARK    5  A    between atoms: N_5  and  C_13
REMARK    6  A    between atoms: N_5  and  C_14
REMARK    7  A    between atoms: N_6  and  C_8
REMARK    8  A    between atoms: N_6  and  C_15
REMARK    9  A    between atoms: C_13  and  C_16
REMARK   10  A    between atoms: C_14  and  C_17
REMARK   11  A    between atoms: C_15  and  C_18
REMARK                            x       y       z     vdW  Elec       q    Type
REMARK                         _______ _______ _______ _____ _____    ______ ____
ROOT
ATOM      1  O   UNL     1      -2.861   3.970  25.897  0.00  0.00    -0.343 OA
ATOM      2  O   UNL     1      -2.194   5.371  24.174  0.00  0.00    -0.347 OA
ATOM      7  C   UNL     1      -2.488   3.017  23.711  0.00  0.00    +0.143 C 
ATOM      8  C   UNL     1      -0.645   3.071  25.537  0.00  0.00    +0.116 C 
ATOM      9  C   UNL     1      -1.009   2.740  24.068  0.00  0.00    +0.156 C 
ATOM     10  C   UNL     1      -1.471   4.251  26.099  0.00  0.00    +0.166 C 
ATOM     11  C   UNL     1      -3.012   4.233  24.496  0.00  0.00    +0.270 C 
ATOM     12  C   UNL     1      -1.334   5.540  25.310  0.00  0.00    +0.196 C 
ENDROOT
BRANCH   9   3
ATOM      3  O   UNL     1      -0.196   3.549  23.204  0.00  0.00    -0.388 OA
ATOM     26  H   UNL     1       0.690   3.608  23.599  0.00  0.00    +0.210 HD
ENDBRANCH   9   3
BRANCH   8   6
ATOM      6  N   UNL     1      -0.868   1.905  26.398  0.00  0.00    -0.305 NA
ATOM     25  H   UNL     1      -1.868   1.712  26.460  0.00  0.00    +0.123 HD
BRANCH   6  15
ATOM     15  C   UNL     1      -0.165   0.744  25.876  0.00  0.00    +0.116 C 
BRANCH  15  18
ATOM     18  C   UNL     1      -1.114  -0.357  25.488  0.00  0.00    -0.033 A 
ATOM     19  C   UNL     1      -0.745  -1.285  24.514  0.00  0.00    +0.008 A 
ATOM     20  C   UNL     1      -2.363  -0.450  26.103  0.00  0.00    +0.008 A 
ATOM     21  C   UNL     1      -1.624  -2.308  24.156  0.00  0.00    +0.046 A 
ATOM     22  C   UNL     1      -3.242  -1.473  25.744  0.00  0.00    +0.046 A 
ATOM     23  C   UNL     1      -2.872  -2.402  24.771  0.00  0.00    +0.120 A 
BRANCH  23   4
ATOM      4  O   UNL     1      -3.729  -3.400  24.423  0.00  0.00    -0.495 OA
ATOM     24  C   UNL     1      -4.736  -3.085  23.461  0.00  0.00    +0.277 C 
ENDBRANCH  23   4
ENDBRANCH  15  18
ENDBRANCH   6  15
ENDBRANCH   8   6
BRANCH   7   5
ATOM      5  N   UNL     1      -3.316   1.844  23.996  0.00  0.00    -0.293 NA
BRANCH   5  13
ATOM     13  C   UNL     1      -3.202   0.864  22.916  0.00  0.00    +0.081 C 
ATOM     16  C   UNL     1      -2.604   1.480  21.669  0.00  0.00    +0.020 C 
ENDBRANCH   5  13
BRANCH   5  14
ATOM     14  C   UNL     1      -4.713   2.239  24.181  0.00  0.00    +0.081 C 
ATOM     17  C   UNL     1      -5.353   1.487  25.329  0.00  0.00    +0.020 C 
ENDBRANCH   5  14
ENDBRANCH   7   5
TORSDOF 8
ENDMDL
MODEL 7
REMARK VINA RESULT:      -1.6     16.825     19.788
REMARK  Name = 25314544
REMARK  11 active torsions:
REMARK  status: ('A' for Active; 'I' for Inactive)
REMARK    1  A    between atoms: O_3  and  C_9
REMARK    2  A    between atoms: O_4  and  C_23
REMARK    3  A    between atoms: O_4  and  C_24
REMARK    4  A    between atoms: N_5  and  C_7
REMARK    5  A    between atoms: N_5  and  C_13
REMARK    6  A    between atoms: N_5  and  C_14
REMARK    7  A    between atoms: N_6  and  C_8
REMARK    8  A    between atoms: N_6  and  C_15
REMARK    9  A    between atoms: C_13  and  C_16
REMARK   10  A    between atoms: C_14  and  C_17
REMARK   11  A    between atoms: C_15  and  C_18
REMARK                            x       y       z     vdW  Elec       q    Type
REMARK                         _______ _______ _______ _____ _____    ______ ____
ROOT
ATOM      1  O   UNL     1      -2.260  -0.454  25.617  0.00  0.00    -0.343 OA
ATOM      2  O   UNL     1      -0.189  -1.449  25.934  0.00  0.00    -0.347 OA
ATOM      7  C   UNL     1      -0.274   0.853  25.202  0.00  0.00    +0.143 C 
ATOM      8  C   UNL     1      -1.500  -0.447  23.322  0.00  0.00    +0.116 C 
ATOM      9  C   UNL     1      -0.270   0.405  23.722  0.00  0.00    +0.156 C 
ATOM     10  C   UNL     1      -2.028  -1.309  24.491  0.00  0.00    +0.166 C 
ATOM     11  C   UNL     1      -0.926  -0.224  26.088  0.00  0.00    +0.270 C 
ATOM     12  C   UNL     1      -1.003  -2.262  25.076  0.00  0.00    +0.196 C 
ENDROOT
BRANCH   9   3
ATOM      3  O   UNL     1       0.915  -0.376  23.509  0.00  0.00    -0.388 OA
ATOM     26  H   UNL     1       1.205  -0.231  22.593  0.00  0.00    +0.210 HD
ENDBRANCH   9   3
BRANCH   8   6
ATOM      6  N   UNL     1      -2.593   0.413  22.856  0.00  0.00    -0.305 NA
ATOM     25  H   UNL     1      -2.712   0.298  21.849  0.00  0.00    +0.123 HD
BRANCH   6  15
ATOM     15  C   UNL     1      -3.829   0.087  23.548  0.00  0.00    +0.116 C 
BRANCH  15  18
ATOM     18  C   UNL     1      -4.417   1.288  24.239  0.00  0.00    -0.033 A 
ATOM     19  C   UNL     1      -5.378   1.119  25.235  0.00  0.00    +0.008 A 
ATOM     20  C   UNL     1      -3.998   2.570  23.884  0.00  0.00    +0.008 A 
ATOM     21  C   UNL     1      -5.921   2.232  25.877  0.00  0.00    +0.046 A 
ATOM     22  C   UNL     1      -4.542   3.684  24.526  0.00  0.00    +0.046 A 
ATOM     23  C   UNL     1      -5.502   3.514  25.523  0.00  0.00    +0.120 A 
BRANCH  23   4
ATOM      4  O   UNL     1      -6.031   4.600  26.150  0.00  0.00    -0.495 OA
ATOM     24  C   UNL     1      -6.471   5.677  25.323  0.00  0.00    +0.277 C 
ENDBRANCH  23   4
ENDBRANCH  15  18
ENDBRANCH   6  15
ENDBRANCH   8   6
BRANCH   7   5
ATOM      5  N   UNL     1      -0.984   2.124  25.356  0.00  0.00    -0.293 NA
BRANCH   5  13
ATOM     13  C   UNL     1      -0.585   3.063  24.308  0.00  0.00    +0.081 C 
ATOM     16  C   UNL     1      -0.755   4.499  24.756  0.00  0.00    +0.020 C 
ENDBRANCH   5  13
BRANCH   5  14
ATOM     14  C   UNL     1      -0.728   2.695  26.679  0.00  0.00    +0.081 C 
ATOM     17  C   UNL     1       0.721   2.526  27.083  0.00  0.00    +0.020 C 
ENDBRANCH   5  14
ENDBRANCH   7   5
TORSDOF 8
ENDMDL
MODEL 8
REMARK VINA RESULT:      -1.5     17.675     20.225
REMARK  Name = 25314544
REMARK  11 active torsions:
REMARK  status: ('A' for Active; 'I' for Inactive)
REMARK    1  A    between atoms: O_3  and  C_9
REMARK    2  A    between atoms: O_4  and  C_23
REMARK    3  A    between atoms: O_4  and  C_24
REMARK    4  A    between atoms: N_5  and  C_7
REMARK    5  A    between atoms: N_5  and  C_13
REMARK    6  A    between atoms: N_5  and  C_14
REMARK    7  A    between atoms: N_6  and  C_8
REMARK    8  A    between atoms: N_6  and  C_15
REMARK    9  A    between atoms: C_13  and  C_16
REMARK   10  A    between atoms: C_14  and  C_17
REMARK   11  A    between atoms: C_15  and  C_18
REMARK                            x       y       z     vdW  Elec       q    Type
REMARK                         _______ _______ _______ _____ _____    ______ ____
ROOT
ATOM      1  O   UNL     1      -2.800  -1.173  23.300  0.00  0.00    -0.343 OA
ATOM      2  O   UNL     1      -4.127  -2.648  24.501  0.00  0.00    -0.347 OA
ATOM      7  C   UNL     1      -4.057  -0.329  25.181  0.00  0.00    +0.143 C 
ATOM      8  C   UNL     1      -1.595  -1.120  25.395  0.00  0.00    +0.116 C 
ATOM      9  C   UNL     1      -2.867  -0.620  26.124  0.00  0.00    +0.156 C 
ATOM     10  C   UNL     1      -1.925  -1.944  24.130  0.00  0.00    +0.166 C 
ATOM     11  C   UNL     1      -4.050  -1.306  23.991  0.00  0.00    +0.270 C 
ATOM     12  C   UNL     1      -2.793  -3.162  24.388  0.00  0.00    +0.196 C 
ENDROOT
BRANCH   9   3
ATOM      3  O   UNL     1      -3.288  -1.631  27.053  0.00  0.00    -0.388 OA
ATOM     26  H   UNL     1      -3.016  -1.348  27.942  0.00  0.00    +0.210 HD
ENDBRANCH   9   3
BRANCH   8   6
ATOM      6  N   UNL     1      -0.751   0.012  24.998  0.00  0.00    -0.305 NA
ATOM     25  H   UNL     1      -1.188   0.507  24.221  0.00  0.00    +0.123 HD
BRANCH   6  15
ATOM     15  C   UNL     1      -0.548   0.914  26.119  0.00  0.00    +0.116 C 
BRANCH  15  18
ATOM     18  C   UNL     1      -0.845   2.343  25.748  0.00  0.00    -0.033 A 
ATOM     19  C   UNL     1      -1.924   3.005  26.333  0.00  0.00    +0.008 A 
ATOM     20  C   UNL     1      -0.040   3.004  24.821  0.00  0.00    +0.008 A 
ATOM     21  C   UNL     1      -2.198   4.329  25.991  0.00  0.00    +0.046 A 
ATOM     22  C   UNL     1      -0.314   4.328  24.479  0.00  0.00    +0.046 A 
ATOM     23  C   UNL     1      -1.393   4.991  25.065  0.00  0.00    +0.120 A 
BRANCH  23   4
ATOM      4  O   UNL     1      -1.659   6.284  24.732  0.00  0.00    -0.495 OA
ATOM     24  C   UNL     1      -2.689   6.508  23.770  0.00  0.00    +0.277 C 
ENDBRANCH  23   4
ENDBRANCH  15  18
ENDBRANCH   6  15
ENDBRANCH   8   6
BRANCH   7   5
ATOM      5  N   UNL     1      -4.006   1.051  24.695  0.00  0.00    -0.293 NA
BRANCH   5  13
ATOM     13  C   UNL     1      -5.339   1.653  24.727  0.00  0.00    +0.081 C 
ATOM     16  C   UNL     1      -5.493   2.595  25.903  0.00  0.00    +0.020 C 
ENDBRANCH   5  13
BRANCH   5  14
ATOM     14  C   UNL     1      -3.458   1.095  23.339  0.00  0.00    +0.081 C 
ATOM     17  C   UNL     1      -3.225   2.519  22.881  0.00  0.00    +0.020 C 
ENDBRANCH   5  14
ENDBRANCH   7   5
TORSDOF 8
ENDMDL
MODEL 9
REMARK VINA RESULT:      -1.1     17.291     20.588
REMARK  Name = 25314544
REMARK  11 active torsions:
REMARK  status: ('A' for Active; 'I' for Inactive)
REMARK    1  A    between atoms: O_3  and  C_9
REMARK    2  A    between atoms: O_4  and  C_23
REMARK    3  A    between atoms: O_4  and  C_24
REMARK    4  A    between atoms: N_5  and  C_7
REMARK    5  A    between atoms: N_5  and  C_13
REMARK    6  A    between atoms: N_5  and  C_14
REMARK    7  A    between atoms: N_6  and  C_8
REMARK    8  A    between atoms: N_6  and  C_15
REMARK    9  A    between atoms: C_13  and  C_16
REMARK   10  A    between atoms: C_14  and  C_17
REMARK   11  A    between atoms: C_15  and  C_18
REMARK                            x       y       z     vdW  Elec       q    Type
REMARK                         _______ _______ _______ _____ _____    ______ ____
ROOT
ATOM      1  O   UNL     1      -5.273   2.086  26.221  0.00  0.00    -0.343 OA
ATOM      2  O   UNL     1      -6.467   3.264  24.619  0.00  0.00    -0.347 OA
ATOM      7  C   UNL     1      -4.412   2.171  23.968  0.00  0.00    +0.143 C 
ATOM      8  C   UNL     1      -3.674   3.850  25.802  0.00  0.00    +0.116 C 
ATOM      9  C   UNL     1      -3.602   3.443  24.309  0.00  0.00    +0.156 C 
ATOM     10  C   UNL     1      -5.025   3.478  26.452  0.00  0.00    +0.166 C 
ATOM     11  C   UNL     1      -5.674   2.086  24.844  0.00  0.00    +0.270 C 
ATOM     12  C   UNL     1      -6.235   4.089  25.769  0.00  0.00    +0.196 C 
ENDROOT
BRANCH   9   3
ATOM      3  O   UNL     1      -4.129   4.518  23.517  0.00  0.00    -0.388 OA
ATOM     26  H   UNL     1      -4.700   5.056  24.089  0.00  0.00    +0.210 HD
ENDBRANCH   9   3
BRANCH   8   6
ATOM      6  N   UNL     1      -2.603   3.200  26.565  0.00  0.00    -0.305 NA
ATOM     25  H   UNL     1      -2.700   2.187  26.494  0.00  0.00    +0.123 HD
BRANCH   6  15
ATOM     15  C   UNL     1      -1.301   3.615  26.072  0.00  0.00    +0.116 C 
BRANCH  15  18
ATOM     18  C   UNL     1      -0.624   2.523  25.289  0.00  0.00    -0.033 A 
ATOM     19  C   UNL     1       0.255   2.847  24.256  0.00  0.00    +0.008 A 
ATOM     20  C   UNL     1      -0.876   1.186  25.597  0.00  0.00    +0.008 A 
ATOM     21  C   UNL     1       0.884   1.834  23.531  0.00  0.00    +0.046 A 
ATOM     22  C   UNL     1      -0.247   0.173  24.871  0.00  0.00    +0.046 A 
ATOM     23  C   UNL     1       0.633   0.498  23.839  0.00  0.00    +0.120 A 
BRANCH  23   4
ATOM      4  O   UNL     1       1.247  -0.491  23.133  0.00  0.00    -0.495 OA
ATOM     24  C   UNL     1       2.388  -0.122  22.358  0.00  0.00    +0.277 C 
ENDBRANCH  23   4
ENDBRANCH  15  18
ENDBRANCH   6  15
ENDBRANCH   8   6
BRANCH   7   5
ATOM      5  N   UNL     1      -3.593   0.971  24.153  0.00  0.00    -0.293 NA
BRANCH   5  13
ATOM     13  C   UNL     1      -3.006   0.552  22.880  0.00  0.00    +0.081 C 
ATOM     16  C   UNL     1      -2.511   1.739  22.080  0.00  0.00    +0.020 C 
ENDBRANCH   5  13
BRANCH   5  14
ATOM     14  C   UNL     1      -4.394  -0.110  24.726  0.00  0.00    +0.081 C 
ATOM     17  C   UNL     1      -4.160  -1.418  24.001  0.00  0.00    +0.020 C 
ENDBRANCH   5  14
ENDBRANCH   7   5
TORSDOF 8
ENDMDL
MODEL 10
REMARK VINA RESULT:      -0.6     16.730     19.646
REMARK  Name = 25314544
REMARK  11 active torsions:
REMARK  status: ('A' for Active; 'I' for Inactive)
REMARK    1  A    between atoms: O_3  and  C_9
REMARK    2  A    between atoms: O_4  and  C_23
REMARK    3  A    between atoms: O_4  and  C_24
REMARK    4  A    between atoms: N_5  and  C_7
REMARK    5  A    between atoms: N_5  and  C_13
REMARK    6  A    between atoms: N_5  and  C_14
REMARK    7  A    between atoms: N_6  and  C_8
REMARK    8  A    between atoms: N_6  and  C_15
REMARK    9  A    between atoms: C_13  and  C_16
REMARK   10  A    between atoms: C_14  and  C_17
REMARK   11  A    between atoms: C_15  and  C_18
REMARK                            x       y       z     vdW  Elec       q    Type
REMARK                         _______ _______ _______ _____ _____    ______ ____
ROOT
ATOM      1  O   UNL     1      -1.059   1.199  23.396  0.00  0.00    -0.343 OA
ATOM      2  O   UNL     1      -0.070  -0.784  22.710  0.00  0.00    -0.347 OA
ATOM      7  C   UNL     1      -1.590  -0.831  24.590  0.00  0.00    +0.143 C 
ATOM      8  C   UNL     1       0.298   0.776  25.352  0.00  0.00    +0.116 C 
ATOM      9  C   UNL     1      -0.421  -0.579  25.569  0.00  0.00    +0.156 C 
ATOM     10  C   UNL     1       0.292   1.218  23.871  0.00  0.00    +0.166 C 
ATOM     11  C   UNL     1      -1.286  -0.206  23.217  0.00  0.00    +0.270 C 
ATOM     12  C   UNL     1       0.931   0.222  22.921  0.00  0.00    +0.196 C 
ENDROOT
BRANCH   9   3
ATOM      3  O   UNL     1       0.533  -1.636  25.387  0.00  0.00    -0.388 OA
ATOM     26  H   UNL     1       0.448  -2.246  26.139  0.00  0.00    +0.210 HD
ENDBRANCH   9   3
BRANCH   8   6
ATOM      6  N   UNL     1      -0.339   1.830  26.148  0.00  0.00    -0.305 NA
ATOM     25  H   UNL     1       0.274   2.093  26.920  0.00  0.00    +0.123 HD
BRANCH   6  15
ATOM     15  C   UNL     1      -0.628   2.989  25.320  0.00  0.00    +0.116 C 
BRANCH  15  18
ATOM     18  C   UNL     1      -2.091   3.342  25.342  0.00  0.00    -0.033 A 
ATOM     19  C   UNL     1      -2.791   3.491  24.144  0.00  0.00    +0.008 A 
ATOM     20  C   UNL     1      -2.746   3.520  26.560  0.00  0.00    +0.008 A 
ATOM     21  C   UNL     1      -4.147   3.815  24.165  0.00  0.00    +0.046 A 
ATOM     22  C   UNL     1      -4.103   3.845  26.580  0.00  0.00    +0.046 A 
ATOM     23  C   UNL     1      -4.803   3.992  25.383  0.00  0.00    +0.120 A 
BRANCH  23   4
ATOM      4  O   UNL     1      -6.127   4.307  25.403  0.00  0.00    -0.495 OA
ATOM     24  C   UNL     1      -6.465   5.693  25.344  0.00  0.00    +0.277 C 
ENDBRANCH  23   4
ENDBRANCH  15  18
ENDBRANCH   6  15
ENDBRANCH   8   6
BRANCH   7   5
ATOM      5  N   UNL     1      -2.839  -0.283  25.123  0.00  0.00    -0.293 NA
BRANCH   5  13
ATOM     13  C   UNL     1      -3.524  -1.280  25.945  0.00  0.00    +0.081 C 
ATOM     16  C   UNL     1      -3.468  -2.655  25.311  0.00  0.00    +0.020 C 
ENDBRANCH   5  13
BRANCH   5  14
ATOM     14  C   UNL     1      -3.706   0.164  24.033  0.00  0.00    +0.081 C 
ATOM     17  C   UNL     1      -5.074   0.565  24.542  0.00  0.00    +0.020 C 
ENDBRANCH   5  14
ENDBRANCH   7   5
TORSDOF 8
ENDMDL
