MODEL 1
REMARK VINA RESULT:       3.9      0.000      0.000
REMARK  Name = 11912162
REMARK  3 active torsions:
REMARK  status: ('A' for Active; 'I' for Inactive)
REMARK    1  A    between atoms: C_17  and  C_20
REMARK    2  A    between atoms: C_18  and  C_21
REMARK    3  A    between atoms: C_25  and  C_30
REMARK                            x       y       z     vdW  Elec       q    Type
REMARK                         _______ _______ _______ _____ _____    ______ ____
ROOT
ATOM      1  O   UNL     1      -1.893   3.616  27.666  0.00  0.00    -0.267 OA
ATOM      2  O   UNL     1      -4.883  -0.117  26.132  0.00  0.00    -0.268 OA
ATOM      3  N   UNL     1      -4.231   0.972  24.193  0.00  0.00    -0.295 N 
ATOM      4  N   UNL     1      -2.278   3.126  25.417  0.00  0.00    -0.311 N 
ATOM      8  C   UNL     1      -4.571   3.432  24.314  0.00  0.00    +0.027 C 
ATOM      9  C   UNL     1      -2.694   2.520  23.007  0.00  0.00    +0.054 C 
ATOM     10  C   UNL     1      -3.772   3.603  23.026  0.00  0.00    +0.018 C 
ATOM     11  C   UNL     1      -5.222   2.037  24.361  0.00  0.00    +0.113 C 
ATOM     12  C   UNL     1      -3.638   3.677  25.508  0.00  0.00    +0.130 C 
ATOM     13  C   UNL     1      -3.359   1.127  23.015  0.00  0.00    +0.117 C 
ATOM     14  C   UNL     1      -1.772   2.647  24.205  0.00  0.00    +0.027 A 
ATOM     15  C   UNL     1      -0.490   2.255  24.115  0.00  0.00    +0.022 A 
ATOM     16  C   UNL     1      -1.488   3.193  26.581  0.00  0.00    +0.259 A 
ATOM     17  C   UNL     1      -4.122  -0.039  25.167  0.00  0.00    +0.266 C 
ATOM     18  C   UNL     1      -0.067   2.716  26.453  0.00  0.00    +0.047 A 
ATOM     19  C   UNL     1       0.375   2.292  25.260  0.00  0.00    +0.015 A 
ENDROOT
BRANCH  17  20
ATOM      5  N   UNL     1      -1.847  -0.637  25.524  0.00  0.00    -0.247 NA
ATOM      6  N   UNL     1      -2.238  -3.091  24.224  0.00  0.00    -0.259 NA
ATOM     20  C   UNL     1      -3.037  -0.997  25.012  0.00  0.00    +0.144 A 
ATOM     24  C   UNL     1      -3.234  -2.197  24.373  0.00  0.00    +0.143 A 
ATOM     27  C   UNL     1      -0.851  -1.531  25.375  0.00  0.00    +0.131 A 
ATOM     29  C   UNL     1      -1.042  -2.737  24.735  0.00  0.00    +0.130 A 
ENDBRANCH  17  20
BRANCH  18  21
ATOM     21  C   UNL     1       0.807   2.722  27.581  0.00  0.00    -0.011 A 
ATOM     22  C   UNL     1       0.291   2.552  28.867  0.00  0.00    +0.027 A 
ATOM     23  C   UNL     1       2.178   2.900  27.398  0.00  0.00    +0.009 A 
ATOM     25  C   UNL     1       1.147   2.560  29.968  0.00  0.00    +0.052 A 
ATOM     26  C   UNL     1       3.034   2.909  28.501  0.00  0.00    +0.002 A 
ATOM     28  C   UNL     1       2.519   2.739  29.785  0.00  0.00    +0.019 A 
BRANCH  25  30
ATOM      7  N   UNL     1       0.190   2.245  32.355  0.00  0.00    -0.191 NA
ATOM     30  C   UNL     1       0.619   2.386  31.285  0.00  0.00    +0.099 C 
ENDBRANCH  25  30
ENDBRANCH  18  21
TORSDOF 3
ENDMDL
