MODEL 1
REMARK VINA RESULT:      10.4      0.000      0.000
REMARK  Name = 26743306
REMARK  10 active torsions:
REMARK  status: ('A' for Active; 'I' for Inactive)
REMARK    1  A    between atoms: N_5  and  C_22
REMARK    2  A    between atoms: C_7  and  C_11
REMARK    3  A    between atoms: C_8  and  C_13
REMARK    4  A    between atoms: C_11  and  C_14
REMARK    5  A    between atoms: C_13  and  C_15
REMARK    6  A    between atoms: C_21  and  C_23
REMARK    7  A    between atoms: C_24  and  C_27
REMARK    8  A    between atoms: C_24  and  C_34
REMARK    9  A    between atoms: C_24  and  C_35
REMARK   10  A    between atoms: C_24  and  C_36
REMARK                            x       y       z     vdW  Elec       q    Type
REMARK                         _______ _______ _______ _____ _____    ______ ____
ROOT
ATOM      3  N   UNL     1      -5.066   0.960  26.627  0.00  0.00    -0.316 NA
ATOM      7  C   UNL     1      -5.087   1.119  23.680  0.00  0.00    +0.004 C 
ATOM      8  C   UNL     1      -5.083  -0.226  24.446  0.00  0.00    +0.012 C 
ATOM      9  C   UNL     1      -5.680   2.210  24.586  0.00  0.00    +0.019 C 
ATOM     10  C   UNL     1      -4.429  -0.090  25.832  0.00  0.00    +0.085 C 
ATOM     12  C   UNL     1      -5.009   2.259  25.959  0.00  0.00    +0.081 C 
ATOM     38  H   UNL     1      -4.602   1.027  27.532  0.00  0.00    +0.122 HD
ENDROOT
BRANCH   7  11
ATOM     11  C   UNL     1      -3.710   1.539  23.151  0.00  0.00    +0.100 C 
BRANCH  11  14
ATOM      1  O   UNL     1      -3.867   3.889  23.450  0.00  0.00    -0.276 OA
ATOM      4  N   UNL     1      -2.254   2.783  24.706  0.00  0.00    -0.298 N 
ATOM      5  N   UNL     1      -0.258   2.738  26.802  0.00  0.00    -0.327 N 
ATOM     14  C   UNL     1      -3.293   2.847  23.776  0.00  0.00    +0.216 C 
ATOM     16  C   UNL     1      -1.789   4.008  25.351  0.00  0.00    +0.126 C 
ATOM     17  C   UNL     1      -1.582   1.544  25.101  0.00  0.00    +0.126 C 
ATOM     18  C   UNL     1      -1.313   3.755  26.780  0.00  0.00    +0.124 C 
ATOM     19  C   UNL     1      -0.192   1.785  25.691  0.00  0.00    +0.124 C 
BRANCH   5  22
ATOM     22  C   UNL     1       0.676   2.704  27.834  0.00  0.00    +0.030 A 
ATOM     25  C   UNL     1       2.009   3.029  27.580  0.00  0.00    +0.023 A 
ATOM     26  C   UNL     1       0.278   2.351  29.123  0.00  0.00    +0.023 A 
ATOM     32  C   UNL     1       2.944   2.998  28.615  0.00  0.00    +0.002 A 
ATOM     33  C   UNL     1       1.213   2.321  30.159  0.00  0.00    +0.002 A 
ATOM     37  C   UNL     1       2.546   2.644  29.904  0.00  0.00    +0.000 A 
ENDBRANCH   5  22
ENDBRANCH  11  14
ENDBRANCH   7  11
BRANCH   8  13
ATOM     13  C   UNL     1      -4.434  -1.363  23.656  0.00  0.00    +0.064 C 
BRANCH  13  15
ATOM      2  O   UNL     1      -1.145  -2.083  24.932  0.00  0.00    -0.354 OA
ATOM      6  N   UNL     1      -2.528  -2.221  24.949  0.00  0.00    -0.083 NA
ATOM     15  C   UNL     1      -2.963  -1.458  23.941  0.00  0.00    +0.085 A 
ATOM     20  C   UNL     1      -1.910  -0.821  23.261  0.00  0.00    +0.076 A 
ATOM     21  C   UNL     1      -0.790  -1.248  23.924  0.00  0.00    +0.167 A 
BRANCH  21  23
ATOM     23  C   UNL     1       0.617  -1.008  23.782  0.00  0.00    +0.020 A 
ATOM     27  C   UNL     1       3.354  -0.540  23.503  0.00  0.00    -0.042 A 
ATOM     28  C   UNL     1       1.536  -1.836  24.427  0.00  0.00    +0.012 A 
ATOM     29  C   UNL     1       1.067   0.055  22.997  0.00  0.00    +0.012 A 
ATOM     30  C   UNL     1       2.903  -1.603  24.288  0.00  0.00    +0.005 A 
ATOM     31  C   UNL     1       2.435   0.288  22.858  0.00  0.00    +0.005 A 
BRANCH  27  24
ATOM     24  C   UNL     1       4.817  -0.291  23.355  0.00  0.00    -0.013 C 
ATOM     34  C   UNL     1       5.182   0.070  21.882  0.00  0.00    +0.015 C 
ATOM     35  C   UNL     1       5.648  -1.551  23.750  0.00  0.00    +0.015 C 
ATOM     36  C   UNL     1       5.390   0.877  24.225  0.00  0.00    +0.015 C 
ENDBRANCH  27  24
ENDBRANCH  21  23
ENDBRANCH  13  15
ENDBRANCH   8  13
TORSDOF 7
ENDMDL
