MODEL 1
REMARK VINA RESULT:       3.9      0.000      0.000
REMARK  Name = 51136852
REMARK  5 active torsions:
REMARK  status: ('A' for Active; 'I' for Inactive)
REMARK    1  A    between atoms: N_4  and  C_14
REMARK    2  A    between atoms: N_6  and  C_25
REMARK    3  A    between atoms: C_10  and  C_15
REMARK    4  A    between atoms: C_14  and  C_16
REMARK    5  A    between atoms: C_22  and  C_26
REMARK                            x       y       z     vdW  Elec       q    Type
REMARK                         _______ _______ _______ _____ _____    ______ ____
ROOT
ATOM      3  O   UNL     1      -3.788   2.606  22.406  0.00  0.00    -0.336 OA
ATOM      7  N   UNL     1      -2.731   1.837  24.224  0.00  0.00    -0.190 NA
ATOM      8  N   UNL     1      -2.470   2.347  22.008  0.00  0.00    -0.056 NA
ATOM     15  C   UNL     1      -3.856   2.279  23.723  0.00  0.00    +0.245 A 
ATOM     22  C   UNL     1      -1.910   1.897  23.135  0.00  0.00    +0.204 A 
ENDROOT
BRANCH  22  26
ATOM      5  N   UNL     1       3.404   0.276  23.368  0.00  0.00    -0.313 N 
ATOM      6  N   UNL     1       6.105  -0.649  23.261  0.00  0.00    -0.302 NA
ATOM      9  N   UNL     1       1.171  -0.136  22.698  0.00  0.00    -0.240 NA
ATOM     17  C   UNL     1       4.441   1.107  22.749  0.00  0.00    +0.122 C 
ATOM     18  C   UNL     1       3.692  -1.163  23.422  0.00  0.00    +0.122 C 
ATOM     19  C   UNL     1       5.814   0.787  23.347  0.00  0.00    +0.103 C 
ATOM     20  C   UNL     1       5.089  -1.410  23.999  0.00  0.00    +0.103 C 
ATOM     21  C   UNL     1       2.065   0.676  23.306  0.00  0.00    +0.121 A 
ATOM     25  C   UNL     1       7.440  -0.935  23.785  0.00  0.00    +0.105 C 
ATOM     26  C   UNL     1      -0.534   1.499  23.207  0.00  0.00    +0.041 A 
ATOM     27  C   UNL     1       1.740   1.896  23.879  0.00  0.00    +0.044 A 
ATOM     28  C   UNL     1       0.414   2.308  23.824  0.00  0.00    +0.016 A 
ATOM     29  C   UNL     1      -0.108   0.298  22.664  0.00  0.00    +0.124 A 
ENDBRANCH  22  26
BRANCH  15  10
ATOM      4  N   UNL     1      -5.292   1.758  25.688  0.00  0.00    -0.287 NA
ATOM     10  C   UNL     1      -5.198   2.472  24.397  0.00  0.00    +0.146 C 
ATOM     11  C   UNL     1      -5.483   3.945  24.744  0.00  0.00    +0.030 C 
ATOM     12  C   UNL     1      -5.786   3.951  26.236  0.00  0.00    +0.017 C 
ATOM     13  C   UNL     1      -6.219   2.527  26.518  0.00  0.00    +0.085 C 
BRANCH   4  14
ATOM     14  C   UNL     1      -5.705   0.368  25.545  0.00  0.00    +0.120 C 
BRANCH  14  16
ATOM      1  F   UNL     1      -1.155  -1.221  26.317  0.00  0.00    -0.202 F 
ATOM      2  F   UNL     1      -1.371  -2.988  24.241  0.00  0.00    -0.202 F 
ATOM     16  C   UNL     1      -4.547  -0.529  25.197  0.00  0.00    -0.030 A 
ATOM     23  C   UNL     1      -3.364  -0.458  25.932  0.00  0.00    +0.046 A 
ATOM     24  C   UNL     1      -4.657  -1.430  24.138  0.00  0.00    +0.008 A 
ATOM     30  C   UNL     1      -2.291  -1.289  25.610  0.00  0.00    +0.159 A 
ATOM     31  C   UNL     1      -3.584  -2.261  23.815  0.00  0.00    +0.041 A 
ATOM     32  C   UNL     1      -2.401  -2.190  24.551  0.00  0.00    +0.158 A 
ENDBRANCH  14  16
ENDBRANCH   4  14
ENDBRANCH  15  10
TORSDOF 4
ENDMDL
MODEL 2
REMARK VINA RESULT:       4.2      0.589      1.275
REMARK  Name = 51136852
REMARK  5 active torsions:
REMARK  status: ('A' for Active; 'I' for Inactive)
REMARK    1  A    between atoms: N_4  and  C_14
REMARK    2  A    between atoms: N_6  and  C_25
REMARK    3  A    between atoms: C_10  and  C_15
REMARK    4  A    between atoms: C_14  and  C_16
REMARK    5  A    between atoms: C_22  and  C_26
REMARK                            x       y       z     vdW  Elec       q    Type
REMARK                         _______ _______ _______ _____ _____    ______ ____
ROOT
ATOM      3  O   UNL     1      -3.568   2.332  22.277  0.00  0.00    -0.336 OA
ATOM      7  N   UNL     1      -2.442   1.734  24.118  0.00  0.00    -0.190 NA
ATOM      8  N   UNL     1      -2.278   1.991  21.850  0.00  0.00    -0.056 NA
ATOM     15  C   UNL     1      -3.580   2.153  23.623  0.00  0.00    +0.245 A 
ATOM     22  C   UNL     1      -1.675   1.649  22.993  0.00  0.00    +0.204 A 
ENDROOT
BRANCH  22  26
ATOM      5  N   UNL     1       3.649   0.064  23.245  0.00  0.00    -0.313 N 
ATOM      6  N   UNL     1       6.388  -0.662  23.605  0.00  0.00    -0.302 NA
ATOM      9  N   UNL     1       1.956   1.628  23.786  0.00  0.00    -0.240 NA
ATOM     17  C   UNL     1       3.993  -1.215  23.873  0.00  0.00    +0.122 C 
ATOM     18  C   UNL     1       4.683   1.104  23.314  0.00  0.00    +0.122 C 
ATOM     19  C   UNL     1       5.367  -1.695  23.396  0.00  0.00    +0.103 C 
ATOM     20  C   UNL     1       6.034   0.549  22.855  0.00  0.00    +0.103 C 
ATOM     21  C   UNL     1       2.312   0.470  23.185  0.00  0.00    +0.121 A 
ATOM     25  C   UNL     1       7.705  -1.151  23.196  0.00  0.00    +0.105 C 
ATOM     26  C   UNL     1      -0.308   1.221  23.045  0.00  0.00    +0.041 A 
ATOM     27  C   UNL     1       1.428  -0.354  22.506  0.00  0.00    +0.044 A 
ATOM     28  C   UNL     1       0.095   0.036  22.439  0.00  0.00    +0.016 A 
ATOM     29  C   UNL     1       0.653   1.974  23.701  0.00  0.00    +0.124 A 
ENDBRANCH  22  26
BRANCH  15  10
ATOM      4  N   UNL     1      -4.964   1.824  25.666  0.00  0.00    -0.287 NA
ATOM     10  C   UNL     1      -4.881   2.459  24.334  0.00  0.00    +0.146 C 
ATOM     11  C   UNL     1      -5.071   3.963  24.606  0.00  0.00    +0.030 C 
ATOM     12  C   UNL     1      -5.314   4.068  26.106  0.00  0.00    +0.017 C 
ATOM     13  C   UNL     1      -5.814   2.689  26.483  0.00  0.00    +0.085 C 
BRANCH   4  14
ATOM     14  C   UNL     1      -5.459   0.455  25.618  0.00  0.00    +0.120 C 
BRANCH  14  16
ATOM      1  F   UNL     1      -0.983  -1.430  26.107  0.00  0.00    -0.202 F 
ATOM      2  F   UNL     1      -1.444  -3.176  24.052  0.00  0.00    -0.202 F 
ATOM     16  C   UNL     1      -4.386  -0.516  25.199  0.00  0.00    -0.030 A 
ATOM     23  C   UNL     1      -3.157  -0.523  25.859  0.00  0.00    +0.046 A 
ATOM     24  C   UNL     1      -4.621  -1.406  24.152  0.00  0.00    +0.008 A 
ATOM     30  C   UNL     1      -2.163  -1.422  25.472  0.00  0.00    +0.159 A 
ATOM     31  C   UNL     1      -3.627  -2.305  23.764  0.00  0.00    +0.041 A 
ATOM     32  C   UNL     1      -2.398  -2.312  24.425  0.00  0.00    +0.158 A 
ENDBRANCH  14  16
ENDBRANCH   4  14
ENDBRANCH  15  10
TORSDOF 4
ENDMDL
MODEL 3
REMARK VINA RESULT:       6.2      2.416      3.643
REMARK  Name = 51136852
REMARK  5 active torsions:
REMARK  status: ('A' for Active; 'I' for Inactive)
REMARK    1  A    between atoms: N_4  and  C_14
REMARK    2  A    between atoms: N_6  and  C_25
REMARK    3  A    between atoms: C_10  and  C_15
REMARK    4  A    between atoms: C_14  and  C_16
REMARK    5  A    between atoms: C_22  and  C_26
REMARK                            x       y       z     vdW  Elec       q    Type
REMARK                         _______ _______ _______ _____ _____    ______ ____
ROOT
ATOM      3  O   UNL     1      -4.364  -0.389  24.313  0.00  0.00    -0.336 OA
ATOM      7  N   UNL     1      -2.849   1.093  25.037  0.00  0.00    -0.190 NA
ATOM      8  N   UNL     1      -3.123  -0.847  23.853  0.00  0.00    -0.056 NA
ATOM     15  C   UNL     1      -4.114   0.757  24.999  0.00  0.00    +0.245 A 
ATOM     22  C   UNL     1      -2.280   0.080  24.320  0.00  0.00    +0.204 A 
ENDROOT
BRANCH  22  26
ATOM      5  N   UNL     1       3.198  -0.232  23.418  0.00  0.00    -0.313 N 
ATOM      6  N   UNL     1       5.965  -0.580  22.801  0.00  0.00    -0.302 NA
ATOM      9  N   UNL     1       1.111  -1.312  23.708  0.00  0.00    -0.240 NA
ATOM     17  C   UNL     1       3.773   0.415  22.235  0.00  0.00    +0.122 C 
ATOM     18  C   UNL     1       3.919  -1.412  23.910  0.00  0.00    +0.122 C 
ATOM     19  C   UNL     1       5.272   0.660  22.433  0.00  0.00    +0.103 C 
ATOM     20  C   UNL     1       5.413  -1.108  24.055  0.00  0.00    +0.103 C 
ATOM     21  C   UNL     1       1.819  -0.162  23.646  0.00  0.00    +0.121 A 
ATOM     25  C   UNL     1       7.403  -0.345  22.934  0.00  0.00    +0.105 C 
ATOM     26  C   UNL     1      -0.866   0.024  24.089  0.00  0.00    +0.041 A 
ATOM     27  C   UNL     1       1.264   1.100  23.792  0.00  0.00    +0.044 A 
ATOM     28  C   UNL     1      -0.105   1.186  24.018  0.00  0.00    +0.016 A 
ATOM     29  C   UNL     1      -0.216  -1.189  23.928  0.00  0.00    +0.124 A 
ENDBRANCH  22  26
BRANCH  15  10
ATOM      4  N   UNL     1      -5.269   2.921  25.417  0.00  0.00    -0.287 NA
ATOM     10  C   UNL     1      -5.312   1.456  25.605  0.00  0.00    +0.146 C 
ATOM     11  C   UNL     1      -6.643   1.019  24.966  0.00  0.00    +0.030 C 
ATOM     12  C   UNL     1      -7.304   2.309  24.502  0.00  0.00    +0.017 C 
ATOM     13  C   UNL     1      -6.660   3.372  25.368  0.00  0.00    +0.085 C 
BRANCH   4  14
ATOM     14  C   UNL     1      -4.504   3.610  26.448  0.00  0.00    +0.120 C 
BRANCH  14  16
ATOM      1  F   UNL     1       0.358   3.258  26.215  0.00  0.00    -0.202 F 
ATOM      2  F   UNL     1       0.479   5.405  24.526  0.00  0.00    -0.202 F 
ATOM     16  C   UNL     1      -3.173   4.089  25.934  0.00  0.00    -0.030 A 
ATOM     23  C   UNL     1      -2.001   3.439  26.320  0.00  0.00    +0.046 A 
ATOM     24  C   UNL     1      -3.111   5.185  25.072  0.00  0.00    +0.008 A 
ATOM     30  C   UNL     1      -0.767   3.883  25.844  0.00  0.00    +0.159 A 
ATOM     31  C   UNL     1      -1.878   5.629  24.597  0.00  0.00    +0.041 A 
ATOM     32  C   UNL     1      -0.706   4.978  24.983  0.00  0.00    +0.158 A 
ENDBRANCH  14  16
ENDBRANCH   4  14
ENDBRANCH  15  10
TORSDOF 4
ENDMDL
