MODEL 1
REMARK VINA RESULT:      11.7      0.000      0.000
REMARK  Name = 26742295
REMARK  5 active torsions:
REMARK  status: ('A' for Active; 'I' for Inactive)
REMARK    1  A    between atoms: O_4  and  C_27
REMARK    2  A    between atoms: O_4  and  C_33
REMARK    3  A    between atoms: C_14  and  C_19
REMARK    4  A    between atoms: C_16  and  C_20
REMARK    5  A    between atoms: C_21  and  C_24
REMARK                            x       y       z     vdW  Elec       q    Type
REMARK                         _______ _______ _______ _____ _____    ______ ____
ROOT
ATOM      2  O   UNL     1      -3.689   4.127  28.568  0.00  0.00    -0.268 OA
ATOM      3  O   UNL     1      -5.868   0.425  25.674  0.00  0.00    -0.270 OA
ATOM      5  N   UNL     1      -4.684   1.844  24.238  0.00  0.00    -0.297 N 
ATOM      6  N   UNL     1      -3.295   3.847  26.275  0.00  0.00    -0.311 N 
ATOM      7  C   UNL     1      -5.139   4.270  24.544  0.00  0.00    +0.027 C 
ATOM      8  C   UNL     1      -2.913   3.528  23.813  0.00  0.00    +0.054 C 
ATOM      9  C   UNL     1      -3.983   4.601  23.614  0.00  0.00    +0.018 C 
ATOM     10  C   UNL     1      -5.716   2.879  24.227  0.00  0.00    +0.113 C 
ATOM     11  C   UNL     1      -4.636   4.373  25.985  0.00  0.00    +0.130 C 
ATOM     12  C   UNL     1      -3.492   2.151  23.431  0.00  0.00    +0.117 C 
ATOM     13  C   UNL     1      -2.390   3.490  25.253  0.00  0.00    +0.034 A 
ATOM     14  C   UNL     1      -1.124   3.102  25.561  0.00  0.00    -0.005 A 
ATOM     15  C   UNL     1      -2.947   3.815  27.636  0.00  0.00    +0.252 A 
ATOM     16  C   UNL     1      -4.875   0.687  24.998  0.00  0.00    +0.247 C 
ATOM     17  C   UNL     1      -0.737   3.063  26.963  0.00  0.00    +0.015 A 
ATOM     18  C   UNL     1      -1.569   3.381  27.953  0.00  0.00    +0.071 A 
ENDROOT
BRANCH  16  20
ATOM     20  C   UNL     1      -3.796  -0.306  25.018  0.00  0.00    +0.037 A 
ATOM     22  C   UNL     1      -3.937  -1.503  24.317  0.00  0.00    +0.016 A 
ATOM     23  C   UNL     1      -2.628  -0.053  25.738  0.00  0.00    +0.016 A 
ATOM     25  C   UNL     1      -2.911  -2.448  24.335  0.00  0.00    +0.046 A 
ATOM     26  C   UNL     1      -1.601  -0.998  25.756  0.00  0.00    +0.046 A 
ATOM     27  C   UNL     1      -1.743  -2.195  25.054  0.00  0.00    +0.120 A 
BRANCH  27   4
ATOM      4  O   UNL     1      -0.743  -3.118  25.074  0.00  0.00    -0.495 OA
ATOM     33  C   UNL     1       0.561  -2.655  25.422  0.00  0.00    +0.277 C 
ENDBRANCH  27   4
ENDBRANCH  16  20
BRANCH  14  19
ATOM     19  C   UNL     1      -0.157   2.690  24.556  0.00  0.00    +0.010 C 
ATOM     21  C   UNL     1       0.513   1.541  24.637  0.00  0.00    +0.008 C 
BRANCH  21  24
ATOM      1 CL   UNL     1       4.551  -0.305  20.625  0.00  0.00    -0.084 Cl
ATOM     24  C   UNL     1       1.507   1.087  23.650  0.00  0.00    -0.025 A 
ATOM     28  C   UNL     1       1.156   0.130  22.696  0.00  0.00    +0.009 A 
ATOM     29  C   UNL     1       2.798   1.612  23.667  0.00  0.00    +0.009 A 
ATOM     30  C   UNL     1       2.098  -0.300  21.761  0.00  0.00    +0.020 A 
ATOM     31  C   UNL     1       3.740   1.182  22.732  0.00  0.00    +0.020 A 
ATOM     32  C   UNL     1       3.390   0.226  21.779  0.00  0.00    +0.041 A 
ENDBRANCH  21  24
ENDBRANCH  14  19
TORSDOF 4
ENDMDL
MODEL 2
REMARK VINA RESULT:      15.6      3.334      6.658
REMARK  Name = 26742295
REMARK  5 active torsions:
REMARK  status: ('A' for Active; 'I' for Inactive)
REMARK    1  A    between atoms: O_4  and  C_27
REMARK    2  A    between atoms: O_4  and  C_33
REMARK    3  A    between atoms: C_14  and  C_19
REMARK    4  A    between atoms: C_16  and  C_20
REMARK    5  A    between atoms: C_21  and  C_24
REMARK                            x       y       z     vdW  Elec       q    Type
REMARK                         _______ _______ _______ _____ _____    ______ ____
ROOT
ATOM      2  O   UNL     1       0.281  -0.341  21.407  0.00  0.00    -0.268 OA
ATOM      3  O   UNL     1      -4.596  -0.927  23.047  0.00  0.00    -0.270 OA
ATOM      5  N   UNL     1      -3.184  -1.291  24.876  0.00  0.00    -0.297 N 
ATOM      6  N   UNL     1      -0.324  -0.655  23.648  0.00  0.00    -0.311 N 
ATOM      7  C   UNL     1      -1.313  -2.877  24.464  0.00  0.00    +0.027 C 
ATOM      8  C   UNL     1      -1.010  -1.014  26.039  0.00  0.00    +0.054 C 
ATOM      9  C   UNL     1      -0.696  -2.490  25.798  0.00  0.00    +0.018 C 
ATOM     10  C   UNL     1      -2.836  -2.654  24.480  0.00  0.00    +0.113 C 
ATOM     11  C   UNL     1      -0.622  -2.066  23.366  0.00  0.00    +0.130 C 
ATOM     12  C   UNL     1      -2.539  -0.823  26.113  0.00  0.00    +0.117 C 
ATOM     13  C   UNL     1      -0.427  -0.112  24.947  0.00  0.00    +0.034 A 
ATOM     14  C   UNL     1      -0.047   1.173  25.185  0.00  0.00    -0.005 A 
ATOM     15  C   UNL     1       0.158   0.085  22.556  0.00  0.00    +0.252 A 
ATOM     16  C   UNL     1      -4.054  -0.542  24.080  0.00  0.00    +0.247 C 
ATOM     17  C   UNL     1       0.459   1.960  24.072  0.00  0.00    +0.015 A 
ATOM     18  C   UNL     1       0.557   1.482  22.832  0.00  0.00    +0.071 A 
ENDROOT
BRANCH  16  20
ATOM     20  C   UNL     1      -4.343   0.837  24.489  0.00  0.00    +0.037 A 
ATOM     22  C   UNL     1      -3.524   1.879  24.054  0.00  0.00    +0.016 A 
ATOM     23  C   UNL     1      -5.436   1.106  25.313  0.00  0.00    +0.016 A 
ATOM     25  C   UNL     1      -3.799   3.190  24.442  0.00  0.00    +0.046 A 
ATOM     26  C   UNL     1      -5.711   2.417  25.702  0.00  0.00    +0.046 A 
ATOM     27  C   UNL     1      -4.892   3.459  25.266  0.00  0.00    +0.120 A 
BRANCH  27   4
ATOM      4  O   UNL     1      -5.159   4.739  25.647  0.00  0.00    -0.495 OA
ATOM     33  C   UNL     1      -6.459   5.246  25.352  0.00  0.00    +0.277 C 
ENDBRANCH  27   4
ENDBRANCH  16  20
BRANCH  14  19
ATOM     19  C   UNL     1      -0.161   1.800  26.492  0.00  0.00    +0.010 C 
ATOM     21  C   UNL     1       0.775   1.670  27.431  0.00  0.00    +0.008 C 
BRANCH  21  24
ATOM      1 CL   UNL     1       0.470   4.141  32.873  0.00  0.00    -0.084 Cl
ATOM     24  C   UNL     1       0.700   2.278  28.770  0.00  0.00    -0.025 A 
ATOM     28  C   UNL     1      -0.391   3.077  29.114  0.00  0.00    +0.009 A 
ATOM     29  C   UNL     1       1.719   2.056  29.695  0.00  0.00    +0.009 A 
ATOM     30  C   UNL     1      -0.463   3.653  30.383  0.00  0.00    +0.020 A 
ATOM     31  C   UNL     1       1.649   2.632  30.964  0.00  0.00    +0.020 A 
ATOM     32  C   UNL     1       0.558   3.430  31.308  0.00  0.00    +0.041 A 
ENDBRANCH  21  24
ENDBRANCH  14  19
TORSDOF 4
ENDMDL
