MODEL 1
REMARK VINA RESULT:       0.7      0.000      0.000
REMARK  Name = 26742846
REMARK  4 active torsions:
REMARK  status: ('A' for Active; 'I' for Inactive)
REMARK    1  A    between atoms: N_5  and  C_17
REMARK    2  A    between atoms: N_6  and  C_19
REMARK    3  A    between atoms: C_17  and  C_19
REMARK    4  A    between atoms: C_18  and  C_20
REMARK                            x       y       z     vdW  Elec       q    Type
REMARK                         _______ _______ _______ _____ _____    ______ ____
ROOT
ATOM      1  O   UNL     1      -2.857   5.150  23.874  0.00  0.00    -0.276 OA
ATOM      2  O   UNL     1      -0.513  -1.544  26.017  0.00  0.00    -0.270 OA
ATOM      4  N   UNL     1      -0.531   0.000  24.263  0.00  0.00    -0.297 N 
ATOM      5  N   UNL     1      -1.986   4.346  25.868  0.00  0.00    -0.300 N 
ATOM      8  C   UNL     1       0.308   2.218  24.986  0.00  0.00    +0.011 C 
ATOM      9  C   UNL     1      -0.307   2.824  23.701  0.00  0.00    +0.004 C 
ATOM     10  C   UNL     1      -1.499   1.991  23.189  0.00  0.00    +0.023 C 
ATOM     11  C   UNL     1       0.642   0.731  24.745  0.00  0.00    +0.112 C 
ATOM     12  C   UNL     1      -0.553   2.364  26.256  0.00  0.00    +0.024 C 
ATOM     13  C   UNL     1      -0.627   4.321  23.804  0.00  0.00    +0.100 C 
ATOM     14  C   UNL     1      -1.108   0.524  23.020  0.00  0.00    +0.108 C 
ATOM     15  C   UNL     1      -0.853   3.813  26.622  0.00  0.00    +0.108 C 
ATOM     16  C   UNL     1      -1.928   4.649  24.513  0.00  0.00    +0.216 C 
ATOM     18  C   UNL     1      -0.998  -1.106  24.975  0.00  0.00    +0.247 C 
ENDROOT
BRANCH  18  20
ATOM     20  C   UNL     1      -2.182  -1.809  24.465  0.00  0.00    +0.037 A 
ATOM     24  C   UNL     1      -2.092  -3.151  24.099  0.00  0.00    +0.013 A 
ATOM     25  C   UNL     1      -3.396  -1.134  24.348  0.00  0.00    +0.013 A 
ATOM     26  C   UNL     1      -3.217  -3.820  23.615  0.00  0.00    +0.001 A 
ATOM     27  C   UNL     1      -4.521  -1.801  23.864  0.00  0.00    +0.001 A 
ATOM     28  C   UNL     1      -4.431  -3.144  23.497  0.00  0.00    +0.000 A 
ENDBRANCH  18  20
BRANCH   5  17
ATOM     17  C   UNL     1      -3.226   4.541  26.608  0.00  0.00    +0.126 C 
BRANCH  17  19
ATOM     19  C   UNL     1      -4.438   4.586  25.691  0.00  0.00    +0.128 C 
BRANCH  19   6
ATOM      3  O   UNL     1      -4.407   2.615  23.423  0.00  0.00    -0.253 OA
ATOM      6  N   UNL     1      -5.077   3.304  25.579  0.00  0.00    -0.283 N 
ATOM      7  N   UNL     1      -5.749   1.287  24.809  0.00  0.00    -0.298 N 
ATOM     21  C   UNL     1      -5.826   2.711  26.673  0.00  0.00    +0.128 C 
ATOM     22  C   UNL     1      -6.371   1.409  26.103  0.00  0.00    +0.124 C 
ATOM     23  C   UNL     1      -5.004   2.430  24.477  0.00  0.00    +0.302 C 
ATOM     29  H   UNL     1      -5.872   0.493  24.188  0.00  0.00    +0.150 HD
ENDBRANCH  19   6
ENDBRANCH  17  19
ENDBRANCH   5  17
TORSDOF 4
ENDMDL
MODEL 2
REMARK VINA RESULT:       1.7      1.898      6.573
REMARK  Name = 26742846
REMARK  4 active torsions:
REMARK  status: ('A' for Active; 'I' for Inactive)
REMARK    1  A    between atoms: N_5  and  C_17
REMARK    2  A    between atoms: N_6  and  C_19
REMARK    3  A    between atoms: C_17  and  C_19
REMARK    4  A    between atoms: C_18  and  C_20
REMARK                            x       y       z     vdW  Elec       q    Type
REMARK                         _______ _______ _______ _____ _____    ______ ____
ROOT
ATOM      1  O   UNL     1      -1.644  -2.367  23.216  0.00  0.00    -0.276 OA
ATOM      2  O   UNL     1      -4.410   3.487  26.818  0.00  0.00    -0.270 OA
ATOM      4  N   UNL     1      -4.415   2.313  24.796  0.00  0.00    -0.297 N 
ATOM      5  N   UNL     1      -2.388  -2.059  25.392  0.00  0.00    -0.300 N 
ATOM      8  C   UNL     1      -4.956  -0.082  25.130  0.00  0.00    +0.011 C 
ATOM      9  C   UNL     1      -4.415  -0.361  23.706  0.00  0.00    +0.004 C 
ATOM     10  C   UNL     1      -3.367   0.686  23.278  0.00  0.00    +0.023 C 
ATOM     11  C   UNL     1      -5.456   1.374  25.214  0.00  0.00    +0.112 C 
ATOM     12  C   UNL     1      -3.964  -0.364  26.274  0.00  0.00    +0.024 C 
ATOM     13  C   UNL     1      -3.941  -1.804  23.486  0.00  0.00    +0.100 C 
ATOM     14  C   UNL     1      -3.915   2.103  23.433  0.00  0.00    +0.108 C 
ATOM     15  C   UNL     1      -3.488  -1.812  26.322  0.00  0.00    +0.108 C 
ATOM     16  C   UNL     1      -2.550  -2.107  24.012  0.00  0.00    +0.216 C 
ATOM     18  C   UNL     1      -3.990   3.312  25.675  0.00  0.00    +0.247 C 
ENDROOT
BRANCH  18  20
ATOM     20  C   UNL     1      -2.937   4.230  25.223  0.00  0.00    +0.037 A 
ATOM     24  C   UNL     1      -3.257   5.302  24.391  0.00  0.00    +0.013 A 
ATOM     25  C   UNL     1      -1.618   4.031  25.627  0.00  0.00    +0.013 A 
ATOM     26  C   UNL     1      -2.257   6.175  23.961  0.00  0.00    +0.001 A 
ATOM     27  C   UNL     1      -0.618   4.903  25.199  0.00  0.00    +0.001 A 
ATOM     28  C   UNL     1      -0.938   5.975  24.365  0.00  0.00    +0.000 A 
ENDBRANCH  18  20
BRANCH   5  17
ATOM     17  C   UNL     1      -1.068  -2.245  25.979  0.00  0.00    +0.126 C 
BRANCH  17  19
ATOM     19  C   UNL     1       0.046  -1.896  25.006  0.00  0.00    +0.128 C 
BRANCH  19   6
ATOM      3  O   UNL     1       1.292  -0.409  22.711  0.00  0.00    -0.253 OA
ATOM      6  N   UNL     1       0.125  -0.482  24.761  0.00  0.00    -0.283 N 
ATOM      7  N   UNL     1       0.542   1.523  23.802  0.00  0.00    -0.298 N 
ATOM     21  C   UNL     1      -0.507   0.493  25.632  0.00  0.00    +0.128 C 
ATOM     22  C   UNL     1      -0.121   1.842  25.041  0.00  0.00    +0.124 C 
ATOM     23  C   UNL     1       0.722   0.139  23.646  0.00  0.00    +0.302 C 
ATOM     29  H   UNL     1       0.884   2.215  23.142  0.00  0.00    +0.150 HD
ENDBRANCH  19   6
ENDBRANCH  17  19
ENDBRANCH   5  17
TORSDOF 4
ENDMDL
MODEL 3
REMARK VINA RESULT:       1.8      2.086      4.477
REMARK  Name = 26742846
REMARK  4 active torsions:
REMARK  status: ('A' for Active; 'I' for Inactive)
REMARK    1  A    between atoms: N_5  and  C_17
REMARK    2  A    between atoms: N_6  and  C_19
REMARK    3  A    between atoms: C_17  and  C_19
REMARK    4  A    between atoms: C_18  and  C_20
REMARK                            x       y       z     vdW  Elec       q    Type
REMARK                         _______ _______ _______ _____ _____    ______ ____
ROOT
ATOM      1  O   UNL     1      -6.032   2.316  23.614  0.00  0.00    -0.276 OA
ATOM      2  O   UNL     1       0.973   2.555  26.016  0.00  0.00    -0.270 OA
ATOM      4  N   UNL     1      -0.531   3.390  24.434  0.00  0.00    -0.297 N 
ATOM      5  N   UNL     1      -5.090   2.336  25.734  0.00  0.00    -0.300 N 
ATOM      8  C   UNL     1      -2.549   4.351  25.505  0.00  0.00    +0.011 C 
ATOM      9  C   UNL     1      -3.253   4.305  24.127  0.00  0.00    +0.004 C 
ATOM     10  C   UNL     1      -2.664   3.207  23.220  0.00  0.00    +0.023 C 
ATOM     11  C   UNL     1      -1.024   4.460  25.301  0.00  0.00    +0.112 C 
ATOM     12  C   UNL     1      -2.869   3.172  26.444  0.00  0.00    +0.024 C 
ATOM     13  C   UNL     1      -4.785   4.254  24.206  0.00  0.00    +0.100 C 
ATOM     14  C   UNL     1      -1.148   3.350  23.103  0.00  0.00    +0.108 C 
ATOM     15  C   UNL     1      -4.352   3.047  26.776  0.00  0.00    +0.108 C 
ATOM     16  C   UNL     1      -5.365   2.881  24.485  0.00  0.00    +0.216 C 
ATOM     18  C   UNL     1       0.457   2.520  24.900  0.00  0.00    +0.247 C 
ENDROOT
BRANCH  18  20
ATOM     20  C   UNL     1       0.920   1.453  24.004  0.00  0.00    +0.037 A 
ATOM     24  C   UNL     1       0.064   0.406  23.668  0.00  0.00    +0.013 A 
ATOM     25  C   UNL     1       2.215   1.489  23.489  0.00  0.00    +0.013 A 
ATOM     26  C   UNL     1       0.503  -0.608  22.815  0.00  0.00    +0.001 A 
ATOM     27  C   UNL     1       2.655   0.476  22.637  0.00  0.00    +0.001 A 
ATOM     28  C   UNL     1       1.798  -0.573  22.301  0.00  0.00    +0.000 A 
ENDBRANCH  18  20
BRANCH   5  17
ATOM     17  C   UNL     1      -5.528   0.984  26.054  0.00  0.00    +0.126 C 
BRANCH  17  19
ATOM     19  C   UNL     1      -5.312   0.023  24.895  0.00  0.00    +0.128 C 
BRANCH  19   6
ATOM      3  O   UNL     1      -4.468  -2.565  23.624  0.00  0.00    -0.253 OA
ATOM      6  N   UNL     1      -4.077  -0.702  25.018  0.00  0.00    -0.283 N 
ATOM      7  N   UNL     1      -2.443  -2.242  24.754  0.00  0.00    -0.298 N 
ATOM     21  C   UNL     1      -2.951  -0.194  25.781  0.00  0.00    +0.128 C 
ATOM     22  C   UNL     1      -1.901  -1.292  25.693  0.00  0.00    +0.124 C 
ATOM     23  C   UNL     1      -3.755  -1.913  24.375  0.00  0.00    +0.302 C 
ATOM     29  H   UNL     1      -1.957  -3.076  24.440  0.00  0.00    +0.150 HD
ENDBRANCH  19   6
ENDBRANCH  17  19
ENDBRANCH   5  17
TORSDOF 4
ENDMDL
MODEL 4
REMARK VINA RESULT:       4.6      1.834      4.532
REMARK  Name = 26742846
REMARK  4 active torsions:
REMARK  status: ('A' for Active; 'I' for Inactive)
REMARK    1  A    between atoms: N_5  and  C_17
REMARK    2  A    between atoms: N_6  and  C_19
REMARK    3  A    between atoms: C_17  and  C_19
REMARK    4  A    between atoms: C_18  and  C_20
REMARK                            x       y       z     vdW  Elec       q    Type
REMARK                         _______ _______ _______ _____ _____    ______ ____
ROOT
ATOM      1  O   UNL     1      -3.133   4.869  26.925  0.00  0.00    -0.276 OA
ATOM      2  O   UNL     1      -3.910  -1.055  22.543  0.00  0.00    -0.270 OA
ATOM      4  N   UNL     1      -4.507  -0.107  24.595  0.00  0.00    -0.297 N 
ATOM      5  N   UNL     1      -3.420   4.625  24.636  0.00  0.00    -0.300 N 
ATOM      8  C   UNL     1      -5.498   2.146  24.309  0.00  0.00    +0.011 C 
ATOM      9  C   UNL     1      -5.275   2.392  25.821  0.00  0.00    +0.004 C 
ATOM     10  C   UNL     1      -4.109   1.547  26.372  0.00  0.00    +0.023 C 
ATOM     11  C   UNL     1      -5.645   0.633  24.049  0.00  0.00    +0.112 C 
ATOM     12  C   UNL     1      -4.416   2.735  23.383  0.00  0.00    +0.024 C 
ATOM     13  C   UNL     1      -5.172   3.873  26.208  0.00  0.00    +0.100 C 
ATOM     14  C   UNL     1      -4.299   0.069  26.036  0.00  0.00    +0.108 C 
ATOM     15  C   UNL     1      -4.269   4.248  23.508  0.00  0.00    +0.108 C 
ATOM     16  C   UNL     1      -3.815   4.505  25.963  0.00  0.00    +0.216 C 
ATOM     18  C   UNL     1      -3.734  -0.908  23.752  0.00  0.00    +0.247 C 
ENDROOT
BRANCH  18  20
ATOM     20  C   UNL     1      -2.595  -1.629  24.334  0.00  0.00    +0.037 A 
ATOM     24  C   UNL     1      -1.388  -0.966  24.551  0.00  0.00    +0.013 A 
ATOM     25  C   UNL     1      -2.722  -2.976  24.671  0.00  0.00    +0.013 A 
ATOM     26  C   UNL     1      -0.305  -1.651  25.106  0.00  0.00    +0.001 A 
ATOM     27  C   UNL     1      -1.641  -3.661  25.225  0.00  0.00    +0.001 A 
ATOM     28  C   UNL     1      -0.433  -2.998  25.442  0.00  0.00    +0.000 A 
ENDBRANCH  18  20
BRANCH   5  17
ATOM     17  C   UNL     1      -2.094   5.134  24.312  0.00  0.00    +0.126 C 
BRANCH  17  19
ATOM     19  C   UNL     1      -1.065   4.765  25.368  0.00  0.00    +0.128 C 
BRANCH  19   6
ATOM      3  O   UNL     1      -0.016   2.640  27.216  0.00  0.00    -0.253 OA
ATOM      6  N   UNL     1      -0.399   3.528  25.063  0.00  0.00    -0.283 N 
ATOM      7  N   UNL     1       0.613   1.516  25.261  0.00  0.00    -0.298 N 
ATOM     21  C   UNL     1      -0.196   3.071  23.700  0.00  0.00    +0.128 C 
ATOM     22  C   UNL     1       0.589   1.775  23.843  0.00  0.00    +0.124 C 
ATOM     23  C   UNL     1       0.055   2.575  25.995  0.00  0.00    +0.302 C 
ATOM     29  H   UNL     1       1.026   0.691  25.684  0.00  0.00    +0.150 HD
ENDBRANCH  19   6
ENDBRANCH  17  19
ENDBRANCH   5  17
TORSDOF 4
ENDMDL
MODEL 5
REMARK VINA RESULT:       4.7      1.793      5.698
REMARK  Name = 26742846
REMARK  4 active torsions:
REMARK  status: ('A' for Active; 'I' for Inactive)
REMARK    1  A    between atoms: N_5  and  C_17
REMARK    2  A    between atoms: N_6  and  C_19
REMARK    3  A    between atoms: C_17  and  C_19
REMARK    4  A    between atoms: C_18  and  C_20
REMARK                            x       y       z     vdW  Elec       q    Type
REMARK                         _______ _______ _______ _____ _____    ______ ____
ROOT
ATOM      1  O   UNL     1      -3.242  -2.637  26.234  0.00  0.00    -0.276 OA
ATOM      2  O   UNL     1       0.062   3.193  23.071  0.00  0.00    -0.270 OA
ATOM      4  N   UNL     1       0.060   1.777  24.931  0.00  0.00    -0.297 N 
ATOM      5  N   UNL     1      -2.647  -2.155  24.043  0.00  0.00    -0.300 N 
ATOM      8  C   UNL     1       0.202  -0.607  24.268  0.00  0.00    +0.011 C 
ATOM      9  C   UNL     1      -0.251  -0.990  25.697  0.00  0.00    +0.004 C 
ATOM     10  C   UNL     1      -1.088   0.128  26.350  0.00  0.00    +0.023 C 
ATOM     11  C   UNL     1       0.908   0.764  24.302  0.00  0.00    +0.112 C 
ATOM     12  C   UNL     1      -0.915  -0.596  23.206  0.00  0.00    +0.024 C 
ATOM     13  C   UNL     1      -0.918  -2.369  25.796  0.00  0.00    +0.100 C 
ATOM     14  C   UNL     1      -0.348   1.462  26.305  0.00  0.00    +0.108 C 
ATOM     15  C   UNL     1      -1.606  -1.945  23.040  0.00  0.00    +0.108 C 
ATOM     16  C   UNL     1      -2.378  -2.404  25.384  0.00  0.00    +0.216 C 
ATOM     18  C   UNL     1      -0.282   2.931  24.223  0.00  0.00    +0.247 C 
ENDROOT
BRANCH  18  20
ATOM     20  C   UNL     1      -1.141   3.920  24.885  0.00  0.00    +0.037 A 
ATOM     24  C   UNL     1      -1.040   5.269  24.546  0.00  0.00    +0.013 A 
ATOM     25  C   UNL     1      -2.059   3.510  25.851  0.00  0.00    +0.013 A 
ATOM     26  C   UNL     1      -1.858   6.209  25.174  0.00  0.00    +0.001 A 
ATOM     27  C   UNL     1      -2.877   4.450  26.480  0.00  0.00    +0.001 A 
ATOM     28  C   UNL     1      -2.775   5.799  26.141  0.00  0.00    +0.000 A 
ENDBRANCH  18  20
BRANCH   5  17
ATOM     17  C   UNL     1      -4.025  -2.077  23.578  0.00  0.00    +0.126 C 
BRANCH  17  19
ATOM     19  C   UNL     1      -4.867  -1.144  24.434  0.00  0.00    +0.128 C 
BRANCH  19   6
ATOM      3  O   UNL     1      -5.975   1.333  25.724  0.00  0.00    -0.253 OA
ATOM      6  N   UNL     1      -4.585   0.239  24.162  0.00  0.00    -0.283 N 
ATOM      7  N   UNL     1      -4.566   2.497  24.260  0.00  0.00    -0.298 N 
ATOM     21  C   UNL     1      -3.585   0.651  23.193  0.00  0.00    +0.128 C 
ATOM     22  C   UNL     1      -3.664   2.171  23.184  0.00  0.00    +0.124 C 
ATOM     23  C   UNL     1      -5.144   1.349  24.825  0.00  0.00    +0.302 C 
ATOM     29  H   UNL     1      -4.795   3.444  24.547  0.00  0.00    +0.150 HD
ENDBRANCH  19   6
ENDBRANCH  17  19
ENDBRANCH   5  17
TORSDOF 4
ENDMDL
