MODEL 1
REMARK VINA RESULT:      -3.8      0.000      0.000
REMARK  Name = 26743165
REMARK  9 active torsions:
REMARK  status: ('A' for Active; 'I' for Inactive)
REMARK    1  A    between atoms: O_4  and  C_20
REMARK    2  A    between atoms: O_4  and  C_26
REMARK    3  A    between atoms: N_6  and  C_19
REMARK    4  A    between atoms: C_8  and  C_14
REMARK    5  A    between atoms: C_9  and  C_13
REMARK    6  A    between atoms: C_13  and  C_15
REMARK    7  A    between atoms: C_14  and  C_16
REMARK    8  A    between atoms: C_18  and  C_20
REMARK    9  A    between atoms: C_19  and  C_21
REMARK                            x       y       z     vdW  Elec       q    Type
REMARK                         _______ _______ _______ _____ _____    ______ ____
ROOT
ATOM      5  N   UNL     1      -0.416   5.364  24.586  0.00  0.00    -0.316 NA
ATOM      8  C   UNL     1      -2.893   4.464  25.914  0.00  0.00    +0.004 C 
ATOM      9  C   UNL     1      -1.620   3.587  25.837  0.00  0.00    +0.012 C 
ATOM     10  C   UNL     1      -2.491   5.943  25.794  0.00  0.00    +0.019 C 
ATOM     11  C   UNL     1      -0.761   3.941  24.610  0.00  0.00    +0.085 C 
ATOM     12  C   UNL     1      -1.607   6.211  24.578  0.00  0.00    +0.081 C 
ATOM     33  H   UNL     1       0.144   5.561  23.757  0.00  0.00    +0.122 HD
ENDROOT
BRANCH   9  13
ATOM     13  C   UNL     1      -1.922   2.088  25.865  0.00  0.00    +0.064 C 
BRANCH  13  15
ATOM      3  O   UNL     1      -0.986   0.741  22.660  0.00  0.00    -0.356 OA
ATOM      7  N   UNL     1      -1.803   1.511  23.480  0.00  0.00    -0.083 NA
ATOM     15  C   UNL     1      -1.285   1.380  24.705  0.00  0.00    +0.084 A 
ATOM     17  C   UNL     1      -0.150   0.550  24.719  0.00  0.00    +0.074 A 
ATOM     18  C   UNL     1      -0.006   0.175  23.409  0.00  0.00    +0.175 A 
BRANCH  18  20
ATOM     20  C   UNL     1       0.954  -0.676  22.696  0.00  0.00    +0.306 C 
BRANCH  20   4
ATOM      4  O   UNL     1       2.041   0.110  22.200  0.00  0.00    -0.484 OA
BRANCH   4  26
ATOM     26  C   UNL     1       3.249  -0.064  22.815  0.00  0.00    +0.121 A 
ATOM     28  C   UNL     1       3.564  -1.291  23.400  0.00  0.00    +0.045 A 
ATOM     29  C   UNL     1       4.166   0.986  22.861  0.00  0.00    +0.045 A 
ATOM     30  C   UNL     1       4.797  -1.467  24.028  0.00  0.00    +0.004 A 
ATOM     31  C   UNL     1       5.398   0.810  23.489  0.00  0.00    +0.004 A 
ATOM     32  C   UNL     1       5.714  -0.418  24.073  0.00  0.00    +0.000 A 
ENDBRANCH   4  26
ENDBRANCH  20   4
ENDBRANCH  18  20
ENDBRANCH  13  15
ENDBRANCH   9  13
BRANCH   8  14
ATOM     14  C   UNL     1      -3.963   4.103  24.878  0.00  0.00    +0.099 C 
BRANCH  14  16
ATOM      2  O   UNL     1      -5.481   2.917  26.342  0.00  0.00    -0.276 OA
ATOM      6  N   UNL     1      -4.718   1.879  24.408  0.00  0.00    -0.311 N 
ATOM     16  C   UNL     1      -4.809   2.926  25.315  0.00  0.00    +0.214 C 
ATOM     34  H   UNL     1      -4.118   1.978  23.595  0.00  0.00    +0.149 HD
BRANCH   6  19
ATOM     19  C   UNL     1      -5.420   0.628  24.575  0.00  0.00    +0.139 C 
BRANCH  19  21
ATOM      1  F   UNL     1      -1.883  -3.718  25.129  0.00  0.00    -0.205 F 
ATOM     21  C   UNL     1      -4.478  -0.531  24.723  0.00  0.00    -0.030 A 
ATOM     22  C   UNL     1      -4.350  -1.463  23.692  0.00  0.00    +0.008 A 
ATOM     23  C   UNL     1      -3.729  -0.676  25.890  0.00  0.00    +0.008 A 
ATOM     24  C   UNL     1      -3.475  -2.539  23.829  0.00  0.00    +0.038 A 
ATOM     25  C   UNL     1      -2.853  -1.753  26.028  0.00  0.00    +0.038 A 
ATOM     27  C   UNL     1      -2.726  -2.685  24.997  0.00  0.00    +0.123 A 
ENDBRANCH  19  21
ENDBRANCH   6  19
ENDBRANCH  14  16
ENDBRANCH   8  14
TORSDOF 9
ENDMDL
MODEL 2
REMARK VINA RESULT:      -2.6      2.188      6.654
REMARK  Name = 26743165
REMARK  9 active torsions:
REMARK  status: ('A' for Active; 'I' for Inactive)
REMARK    1  A    between atoms: O_4  and  C_20
REMARK    2  A    between atoms: O_4  and  C_26
REMARK    3  A    between atoms: N_6  and  C_19
REMARK    4  A    between atoms: C_8  and  C_14
REMARK    5  A    between atoms: C_9  and  C_13
REMARK    6  A    between atoms: C_13  and  C_15
REMARK    7  A    between atoms: C_14  and  C_16
REMARK    8  A    between atoms: C_18  and  C_20
REMARK    9  A    between atoms: C_19  and  C_21
REMARK                            x       y       z     vdW  Elec       q    Type
REMARK                         _______ _______ _______ _____ _____    ______ ____
ROOT
ATOM      5  N   UNL     1      -0.116   2.709  26.968  0.00  0.00    -0.316 NA
ATOM      8  C   UNL     1      -0.386   3.188  24.069  0.00  0.00    +0.004 C 
ATOM      9  C   UNL     1      -1.092   4.065  25.131  0.00  0.00    +0.012 C 
ATOM     10  C   UNL     1       0.852   2.533  24.702  0.00  0.00    +0.019 C 
ATOM     11  C   UNL     1      -1.350   3.285  26.431  0.00  0.00    +0.085 C 
ATOM     12  C   UNL     1       0.526   1.812  26.009  0.00  0.00    +0.081 C 
ATOM     33  H   UNL     1      -0.328   2.194  27.822  0.00  0.00    +0.122 HD
ENDROOT
BRANCH   9  13
ATOM     13  C   UNL     1      -2.387   4.700  24.620  0.00  0.00    +0.064 C 
BRANCH  13  15
ATOM      3  O   UNL     1      -5.397   3.281  25.996  0.00  0.00    -0.356 OA
ATOM      7  N   UNL     1      -4.422   4.271  25.928  0.00  0.00    -0.083 NA
ATOM     15  C   UNL     1      -3.582   3.862  24.972  0.00  0.00    +0.084 A 
ATOM     17  C   UNL     1      -3.972   2.636  24.406  0.00  0.00    +0.074 A 
ATOM     18  C   UNL     1      -5.117   2.315  25.085  0.00  0.00    +0.175 A 
BRANCH  18  20
ATOM     20  C   UNL     1      -6.054   1.186  25.022  0.00  0.00    +0.306 C 
BRANCH  20   4
ATOM      4  O   UNL     1      -5.602   0.220  24.069  0.00  0.00    -0.484 OA
BRANCH   4  26
ATOM     26  C   UNL     1      -4.711  -0.713  24.523  0.00  0.00    +0.121 A 
ATOM     28  C   UNL     1      -4.092  -0.541  25.762  0.00  0.00    +0.045 A 
ATOM     29  C   UNL     1      -4.419  -1.834  23.747  0.00  0.00    +0.045 A 
ATOM     30  C   UNL     1      -3.183  -1.493  26.224  0.00  0.00    +0.004 A 
ATOM     31  C   UNL     1      -3.510  -2.785  24.209  0.00  0.00    +0.004 A 
ATOM     32  C   UNL     1      -2.891  -2.615  25.448  0.00  0.00    +0.000 A 
ENDBRANCH   4  26
ENDBRANCH  20   4
ENDBRANCH  18  20
ENDBRANCH  13  15
ENDBRANCH   9  13
BRANCH   8  14
ATOM     14  C   UNL     1      -1.295   2.133  23.427  0.00  0.00    +0.099 C 
BRANCH  14  16
ATOM      2  O   UNL     1      -1.071  -0.179  24.106  0.00  0.00    -0.276 OA
ATOM      6  N   UNL     1       0.424   0.707  22.563  0.00  0.00    -0.311 N 
ATOM     16  C   UNL     1      -0.662   0.758  23.425  0.00  0.00    +0.214 C 
ATOM     34  H   UNL     1       0.695   1.545  22.057  0.00  0.00    +0.149 HD
BRANCH   6  19
ATOM     19  C   UNL     1       1.218  -0.483  22.364  0.00  0.00    +0.139 C 
BRANCH  19  21
ATOM      1  F   UNL     1       6.554   0.241  24.012  0.00  0.00    -0.205 F 
ATOM     21  C   UNL     1       2.641  -0.290  22.803  0.00  0.00    -0.030 A 
ATOM     22  C   UNL     1       3.297   0.913  22.535  0.00  0.00    +0.008 A 
ATOM     23  C   UNL     1       3.307  -1.312  23.479  0.00  0.00    +0.008 A 
ATOM     24  C   UNL     1       4.618   1.092  22.942  0.00  0.00    +0.038 A 
ATOM     25  C   UNL     1       4.629  -1.133  23.887  0.00  0.00    +0.038 A 
ATOM     27  C   UNL     1       5.285   0.069  23.618  0.00  0.00    +0.123 A 
ENDBRANCH  19  21
ENDBRANCH   6  19
ENDBRANCH  14  16
ENDBRANCH   8  14
TORSDOF 9
ENDMDL
MODEL 3
REMARK VINA RESULT:      -2.3      2.225      7.020
REMARK  Name = 26743165
REMARK  9 active torsions:
REMARK  status: ('A' for Active; 'I' for Inactive)
REMARK    1  A    between atoms: O_4  and  C_20
REMARK    2  A    between atoms: O_4  and  C_26
REMARK    3  A    between atoms: N_6  and  C_19
REMARK    4  A    between atoms: C_8  and  C_14
REMARK    5  A    between atoms: C_9  and  C_13
REMARK    6  A    between atoms: C_13  and  C_15
REMARK    7  A    between atoms: C_14  and  C_16
REMARK    8  A    between atoms: C_18  and  C_20
REMARK    9  A    between atoms: C_19  and  C_21
REMARK                            x       y       z     vdW  Elec       q    Type
REMARK                         _______ _______ _______ _____ _____    ______ ____
ROOT
ATOM      5  N   UNL     1      -2.546  -3.291  25.404  0.00  0.00    -0.316 NA
ATOM      8  C   UNL     1      -2.237  -0.427  24.767  0.00  0.00    +0.004 C 
ATOM      9  C   UNL     1      -3.615  -1.081  25.027  0.00  0.00    +0.012 C 
ATOM     10  C   UNL     1      -1.148  -1.256  25.467  0.00  0.00    +0.019 C 
ATOM     11  C   UNL     1      -3.604  -2.580  24.684  0.00  0.00    +0.085 C 
ATOM     12  C   UNL     1      -1.225  -2.739  25.110  0.00  0.00    +0.081 C 
ATOM     33  H   UNL     1      -2.565  -4.277  25.145  0.00  0.00    +0.122 HD
ENDROOT
BRANCH   9  13
ATOM     13  C   UNL     1      -4.761  -0.373  24.302  0.00  0.00    +0.064 C 
BRANCH  13  15
ATOM      3  O   UNL     1      -5.793   2.578  26.089  0.00  0.00    -0.356 OA
ATOM      7  N   UNL     1      -5.840   1.211  25.840  0.00  0.00    -0.083 NA
ATOM     15  C   UNL     1      -4.975   1.012  24.841  0.00  0.00    +0.084 A 
ATOM     17  C   UNL     1      -4.359   2.204  24.422  0.00  0.00    +0.074 A 
ATOM     18  C   UNL     1      -4.908   3.157  25.238  0.00  0.00    +0.175 A 
BRANCH  18  20
ATOM     20  C   UNL     1      -4.734   4.609  25.365  0.00  0.00    +0.306 C 
BRANCH  20   4
ATOM      4  O   UNL     1      -3.681   4.904  26.287  0.00  0.00    -0.484 OA
BRANCH   4  26
ATOM     26  C   UNL     1      -2.432   4.464  25.946  0.00  0.00    +0.121 A 
ATOM     28  C   UNL     1      -1.644   5.213  25.071  0.00  0.00    +0.045 A 
ATOM     29  C   UNL     1      -1.945   3.267  26.472  0.00  0.00    +0.045 A 
ATOM     30  C   UNL     1      -0.370   4.764  24.723  0.00  0.00    +0.004 A 
ATOM     31  C   UNL     1      -0.672   2.819  26.125  0.00  0.00    +0.004 A 
ATOM     32  C   UNL     1       0.117   3.567  25.250  0.00  0.00    +0.000 A 
ENDBRANCH   4  26
ENDBRANCH  20   4
ENDBRANCH  18  20
ENDBRANCH  13  15
ENDBRANCH   9  13
BRANCH   8  14
ATOM     14  C   UNL     1      -1.908  -0.234  23.282  0.00  0.00    +0.099 C 
BRANCH  14  16
ATOM      2  O   UNL     1      -1.240   2.060  22.900  0.00  0.00    -0.276 OA
ATOM      6  N   UNL     1       0.388   0.408  23.048  0.00  0.00    -0.311 N 
ATOM     16  C   UNL     1      -0.915   0.886  23.056  0.00  0.00    +0.214 C 
ATOM     34  H   UNL     1       0.551  -0.588  23.167  0.00  0.00    +0.149 HD
BRANCH   6  19
ATOM     19  C   UNL     1       1.539   1.257  22.851  0.00  0.00    +0.139 C 
BRANCH  19  21
ATOM      1  F   UNL     1       6.361  -1.419  23.988  0.00  0.00    -0.205 F 
ATOM     21  C   UNL     1       2.825   0.544  23.155  0.00  0.00    -0.030 A 
ATOM     22  C   UNL     1       2.812  -0.818  23.459  0.00  0.00    +0.008 A 
ATOM     23  C   UNL     1       4.031   1.242  23.132  0.00  0.00    +0.008 A 
ATOM     24  C   UNL     1       4.005  -1.481  23.741  0.00  0.00    +0.038 A 
ATOM     25  C   UNL     1       5.226   0.579  23.414  0.00  0.00    +0.038 A 
ATOM     27  C   UNL     1       5.213  -0.782  23.719  0.00  0.00    +0.123 A 
ENDBRANCH  19  21
ENDBRANCH   6  19
ENDBRANCH  14  16
ENDBRANCH   8  14
TORSDOF 9
ENDMDL
MODEL 4
REMARK VINA RESULT:      -1.5      1.687      2.632
REMARK  Name = 26743165
REMARK  9 active torsions:
REMARK  status: ('A' for Active; 'I' for Inactive)
REMARK    1  A    between atoms: O_4  and  C_20
REMARK    2  A    between atoms: O_4  and  C_26
REMARK    3  A    between atoms: N_6  and  C_19
REMARK    4  A    between atoms: C_8  and  C_14
REMARK    5  A    between atoms: C_9  and  C_13
REMARK    6  A    between atoms: C_13  and  C_15
REMARK    7  A    between atoms: C_14  and  C_16
REMARK    8  A    between atoms: C_18  and  C_20
REMARK    9  A    between atoms: C_19  and  C_21
REMARK                            x       y       z     vdW  Elec       q    Type
REMARK                         _______ _______ _______ _____ _____    ______ ____
ROOT
ATOM      5  N   UNL     1      -5.613   5.151  26.060  0.00  0.00    -0.316 NA
ATOM      8  C   UNL     1      -3.964   2.828  25.293  0.00  0.00    +0.004 C 
ATOM      9  C   UNL     1      -3.356   4.211  25.627  0.00  0.00    +0.012 C 
ATOM     10  C   UNL     1      -5.328   2.699  25.990  0.00  0.00    +0.019 C 
ATOM     11  C   UNL     1      -4.350   5.350  25.347  0.00  0.00    +0.085 C 
ATOM     12  C   UNL     1      -6.246   3.884  25.699  0.00  0.00    +0.081 C 
ATOM     33  H   UNL     1      -6.248   5.919  25.844  0.00  0.00    +0.122 HD
ENDROOT
BRANCH   9  13
ATOM     13  C   UNL     1      -2.028   4.471  24.912  0.00  0.00    +0.064 C 
BRANCH  13  15
ATOM      3  O   UNL     1       0.036   1.590  25.547  0.00  0.00    -0.356 OA
ATOM      7  N   UNL     1      -0.662   2.718  25.961  0.00  0.00    -0.083 NA
ATOM     15  C   UNL     1      -1.191   3.226  24.844  0.00  0.00    +0.084 A 
ATOM     17  C   UNL     1      -0.866   2.468  23.706  0.00  0.00    +0.074 A 
ATOM     18  C   UNL     1      -0.093   1.452  24.203  0.00  0.00    +0.175 A 
BRANCH  18  20
ATOM     20  C   UNL     1       0.587   0.302  23.595  0.00  0.00    +0.306 C 
BRANCH  20   4
ATOM      4  O   UNL     1       1.663   0.744  22.764  0.00  0.00    -0.484 OA
BRANCH   4  26
ATOM     26  C   UNL     1       2.911   0.293  23.091  0.00  0.00    +0.121 A 
ATOM     28  C   UNL     1       3.086  -1.022  23.523  0.00  0.00    +0.045 A 
ATOM     29  C   UNL     1       4.010   1.147  22.994  0.00  0.00    +0.045 A 
ATOM     30  C   UNL     1       4.360  -1.483  23.857  0.00  0.00    +0.004 A 
ATOM     31  C   UNL     1       5.283   0.687  23.327  0.00  0.00    +0.004 A 
ATOM     32  C   UNL     1       5.459  -0.629  23.759  0.00  0.00    +0.000 A 
ENDBRANCH   4  26
ENDBRANCH  20   4
ENDBRANCH  18  20
ENDBRANCH  13  15
ENDBRANCH   9  13
BRANCH   8  14
ATOM     14  C   UNL     1      -4.088   2.547  23.791  0.00  0.00    +0.099 C 
BRANCH  14  16
ATOM      2  O   UNL     1      -3.092   0.768  22.488  0.00  0.00    -0.276 OA
ATOM      6  N   UNL     1      -4.363   0.237  24.360  0.00  0.00    -0.311 N 
ATOM     16  C   UNL     1      -3.776   1.105  23.450  0.00  0.00    +0.214 C 
ATOM     34  H   UNL     1      -4.929   0.615  25.113  0.00  0.00    +0.149 HD
BRANCH   6  19
ATOM     19  C   UNL     1      -4.232  -1.199  24.276  0.00  0.00    +0.139 C 
BRANCH  19  21
ATOM      1  F   UNL     1       0.898  -2.945  25.804  0.00  0.00    -0.205 F 
ATOM     21  C   UNL     1      -2.864  -1.665  24.684  0.00  0.00    -0.030 A 
ATOM     22  C   UNL     1      -2.239  -2.696  23.980  0.00  0.00    +0.008 A 
ATOM     23  C   UNL     1      -2.218  -1.067  25.765  0.00  0.00    +0.008 A 
ATOM     24  C   UNL     1      -0.970  -3.128  24.359  0.00  0.00    +0.038 A 
ATOM     25  C   UNL     1      -0.947  -1.500  26.144  0.00  0.00    +0.038 A 
ATOM     27  C   UNL     1      -0.323  -2.531  25.441  0.00  0.00    +0.123 A 
ENDBRANCH  19  21
ENDBRANCH   6  19
ENDBRANCH  14  16
ENDBRANCH   8  14
TORSDOF 9
ENDMDL
