MODEL 1
REMARK VINA RESULT:      -4.1      0.000      0.000
REMARK  Name = 45784091
REMARK  12 active torsions:
REMARK  status: ('A' for Active; 'I' for Inactive)
REMARK    1  A    between atoms: N_2  and  C_15
REMARK    2  A    between atoms: N_2  and  C_21
REMARK    3  A    between atoms: N_5  and  C_31
REMARK    4  A    between atoms: C_8  and  C_12
REMARK    5  A    between atoms: C_9  and  C_15
REMARK    6  A    between atoms: C_11  and  C_16
REMARK    7  A    between atoms: C_12  and  C_17
REMARK    8  A    between atoms: C_12  and  C_18
REMARK    9  A    between atoms: C_13  and  C_19
REMARK   10  A    between atoms: C_16  and  C_20
REMARK   11  A    between atoms: C_21  and  C_22
REMARK   12  A    between atoms: C_23  and  C_26
REMARK                            x       y       z     vdW  Elec       q    Type
REMARK                         _______ _______ _______ _____ _____    ______ ____
ROOT
ATOM      8  C   UNL     1      -2.243   3.594  25.711  0.00  0.00    +0.000 C 
ATOM      9  C   UNL     1      -3.565   3.788  24.933  0.00  0.00    +0.029 C 
ATOM     10  C   UNL     1      -1.686   2.183  25.481  0.00  0.00    +0.012 C 
ATOM     11  C   UNL     1      -1.458   1.852  23.990  0.00  0.00    +0.024 C 
ATOM     13  C   UNL     1      -2.558   2.388  23.086  0.00  0.00    -0.073 C 
ATOM     14  C   UNL     1      -3.497   3.243  23.530  0.00  0.00    -0.023 C 
ATOM     19  C   UNL     1      -2.531   1.974  21.640  0.00  0.00    +0.039 C 
ENDROOT
BRANCH   8  12
ATOM     12  C   UNL     1      -1.212   4.667  25.337  0.00  0.00    -0.013 C 
ATOM     17  C   UNL     1      -0.224   4.121  24.310  0.00  0.00    +0.007 C 
ATOM     18  C   UNL     1      -1.912   5.914  24.804  0.00  0.00    +0.007 C 
ENDBRANCH   8  12
BRANCH   9  15
ATOM     15  C   UNL     1      -4.752   3.150  25.664  0.00  0.00    +0.089 C 
BRANCH  15   2
ATOM      2  N   UNL     1      -5.137   1.903  25.027  0.00  0.00    -0.311 NA
ATOM     32  H   UNL     1      -4.542   1.713  24.222  0.00  0.00    +0.122 HD
BRANCH   2  21
ATOM     21  C   UNL     1      -5.073   0.792  25.968  0.00  0.00    +0.117 C 
BRANCH  21  22
ATOM      6  N   UNL     1      -2.914  -2.297  25.607  0.00  0.00    -0.263 NA
ATOM     22  C   UNL     1      -4.417  -0.420  25.360  0.00  0.00    -0.016 A 
ATOM     24  C   UNL     1      -4.679  -0.792  24.047  0.00  0.00    +0.008 A 
ATOM     25  C   UNL     1      -3.535  -1.199  26.092  0.00  0.00    +0.115 A 
ATOM     27  C   UNL     1      -4.058  -1.916  23.511  0.00  0.00    +0.020 A 
ATOM     29  C   UNL     1      -3.192  -2.628  24.325  0.00  0.00    +0.111 A 
ENDBRANCH  21  22
ENDBRANCH   2  21
ENDBRANCH  15   2
ENDBRANCH   9  15
BRANCH  11  16
ATOM     16  C   UNL     1      -1.255   0.338  23.849  0.00  0.00    +0.105 C 
BRANCH  16  20
ATOM      1  O   UNL     1       1.164   0.031  23.911  0.00  0.00    -0.419 OA
ATOM      3  N   UNL     1       0.254  -0.276  21.891  0.00  0.00    -0.112 NA
ATOM      4  N   UNL     1       1.618  -0.479  21.781  0.00  0.00    -0.106 NA
ATOM     20  C   UNL     1       0.036   0.019  23.151  0.00  0.00    +0.218 A 
ATOM     23  C   UNL     1       2.108  -0.290  22.984  0.00  0.00    +0.266 A 
BRANCH  23  26
ATOM      5  N   UNL     1       4.423   0.560  23.050  0.00  0.00    -0.329 N 
ATOM      7  N   UNL     1       5.519  -1.135  23.975  0.00  0.00    -0.243 NA
ATOM     26  C   UNL     1       3.486  -0.406  23.288  0.00  0.00    +0.125 A 
ATOM     28  C   UNL     1       4.186  -1.442  23.859  0.00  0.00    +0.143 A 
ATOM     30  C   UNL     1       5.627   0.077  23.479  0.00  0.00    +0.199 A 
ATOM     31  C   UNL     1       4.207   1.859  22.457  0.00  0.00    +0.150 C 
ENDBRANCH  23  26
ENDBRANCH  16  20
ENDBRANCH  11  16
TORSDOF 8
ENDMDL
MODEL 2
REMARK VINA RESULT:      -2.0      1.438      4.254
REMARK  Name = 45784091
REMARK  12 active torsions:
REMARK  status: ('A' for Active; 'I' for Inactive)
REMARK    1  A    between atoms: N_2  and  C_15
REMARK    2  A    between atoms: N_2  and  C_21
REMARK    3  A    between atoms: N_5  and  C_31
REMARK    4  A    between atoms: C_8  and  C_12
REMARK    5  A    between atoms: C_9  and  C_15
REMARK    6  A    between atoms: C_11  and  C_16
REMARK    7  A    between atoms: C_12  and  C_17
REMARK    8  A    between atoms: C_12  and  C_18
REMARK    9  A    between atoms: C_13  and  C_19
REMARK   10  A    between atoms: C_16  and  C_20
REMARK   11  A    between atoms: C_21  and  C_22
REMARK   12  A    between atoms: C_23  and  C_26
REMARK                            x       y       z     vdW  Elec       q    Type
REMARK                         _______ _______ _______ _____ _____    ______ ____
ROOT
ATOM      8  C   UNL     1      -4.043  -0.964  24.088  0.00  0.00    +0.000 C 
ATOM      9  C   UNL     1      -4.439  -0.055  25.276  0.00  0.00    +0.029 C 
ATOM     10  C   UNL     1      -2.985  -0.277  23.215  0.00  0.00    +0.012 C 
ATOM     11  C   UNL     1      -1.716   0.127  23.997  0.00  0.00    +0.024 C 
ATOM     13  C   UNL     1      -2.020   0.671  25.385  0.00  0.00    -0.073 C 
ATOM     14  C   UNL     1      -3.246   0.591  25.933  0.00  0.00    -0.023 C 
ATOM     19  C   UNL     1      -0.877   1.260  26.165  0.00  0.00    +0.039 C 
ENDROOT
BRANCH   8  12
ATOM     12  C   UNL     1      -3.559  -2.337  24.573  0.00  0.00    -0.013 C 
ATOM     17  C   UNL     1      -4.329  -3.452  23.873  0.00  0.00    +0.007 C 
ATOM     18  C   UNL     1      -2.059  -2.485  24.336  0.00  0.00    +0.007 C 
ENDBRANCH   8  12
BRANCH   9  15
ATOM     15  C   UNL     1      -5.430   1.033  24.850  0.00  0.00    +0.089 C 
BRANCH  15   2
ATOM      2  N   UNL     1      -5.790   1.871  25.981  0.00  0.00    -0.311 NA
ATOM     32  H   UNL     1      -5.195   1.665  26.782  0.00  0.00    +0.122 HD
BRANCH   2  21
ATOM     21  C   UNL     1      -5.695   3.285  25.638  0.00  0.00    +0.117 C 
BRANCH  21  22
ATOM      6  N   UNL     1      -2.176   4.539  26.246  0.00  0.00    -0.263 NA
ATOM     22  C   UNL     1      -4.272   3.704  25.379  0.00  0.00    -0.016 A 
ATOM     24  C   UNL     1      -3.733   3.656  24.099  0.00  0.00    +0.008 A 
ATOM     25  C   UNL     1      -3.459   4.149  26.410  0.00  0.00    +0.115 A 
ATOM     27  C   UNL     1      -2.415   4.051  23.890  0.00  0.00    +0.020 A 
ATOM     29  C   UNL     1      -1.686   4.480  24.986  0.00  0.00    +0.111 A 
ENDBRANCH  21  22
ENDBRANCH   2  21
ENDBRANCH  15   2
ENDBRANCH   9  15
BRANCH  11  16
ATOM     16  C   UNL     1      -0.903   1.104  23.138  0.00  0.00    +0.105 C 
BRANCH  16  20
ATOM      1  O   UNL     1       1.504   0.835  23.437  0.00  0.00    -0.419 OA
ATOM      3  N   UNL     1       0.660  -0.319  21.716  0.00  0.00    -0.112 NA
ATOM      4  N   UNL     1       2.021  -0.561  21.768  0.00  0.00    -0.106 NA
ATOM     20  C   UNL     1       0.404   0.501  22.709  0.00  0.00    +0.218 A 
ATOM     23  C   UNL     1       2.472   0.132  22.787  0.00  0.00    +0.266 A 
BRANCH  23  26
ATOM      5  N   UNL     1       4.502  -0.908  23.726  0.00  0.00    -0.329 N 
ATOM      7  N   UNL     1       5.981   0.742  23.590  0.00  0.00    -0.243 NA
ATOM     26  C   UNL     1       3.833   0.149  23.174  0.00  0.00    +0.125 A 
ATOM     28  C   UNL     1       4.767   1.155  23.100  0.00  0.00    +0.143 A 
ATOM     30  C   UNL     1       5.786  -0.505  23.958  0.00  0.00    +0.199 A 
ATOM     31  C   UNL     1       3.971  -2.219  24.019  0.00  0.00    +0.150 C 
ENDBRANCH  23  26
ENDBRANCH  16  20
ENDBRANCH  11  16
TORSDOF 8
ENDMDL
MODEL 3
REMARK VINA RESULT:      -0.9      1.351      3.584
REMARK  Name = 45784091
REMARK  12 active torsions:
REMARK  status: ('A' for Active; 'I' for Inactive)
REMARK    1  A    between atoms: N_2  and  C_15
REMARK    2  A    between atoms: N_2  and  C_21
REMARK    3  A    between atoms: N_5  and  C_31
REMARK    4  A    between atoms: C_8  and  C_12
REMARK    5  A    between atoms: C_9  and  C_15
REMARK    6  A    between atoms: C_11  and  C_16
REMARK    7  A    between atoms: C_12  and  C_17
REMARK    8  A    between atoms: C_12  and  C_18
REMARK    9  A    between atoms: C_13  and  C_19
REMARK   10  A    between atoms: C_16  and  C_20
REMARK   11  A    between atoms: C_21  and  C_22
REMARK   12  A    between atoms: C_23  and  C_26
REMARK                            x       y       z     vdW  Elec       q    Type
REMARK                         _______ _______ _______ _____ _____    ______ ____
ROOT
ATOM      8  C   UNL     1      -3.483   2.417  23.672  0.00  0.00    +0.000 C 
ATOM      9  C   UNL     1      -4.692   1.878  24.471  0.00  0.00    +0.029 C 
ATOM     10  C   UNL     1      -2.232   1.573  23.953  0.00  0.00    +0.012 C 
ATOM     11  C   UNL     1      -2.426   0.073  23.644  0.00  0.00    +0.024 C 
ATOM     13  C   UNL     1      -3.797  -0.448  24.050  0.00  0.00    -0.073 C 
ATOM     14  C   UNL     1      -4.792   0.375  24.428  0.00  0.00    -0.023 C 
ATOM     19  C   UNL     1      -4.031  -1.930  23.959  0.00  0.00    +0.039 C 
ENDROOT
BRANCH   8  12
ATOM     12  C   UNL     1      -3.788   2.474  22.169  0.00  0.00    -0.013 C 
ATOM     17  C   UNL     1      -4.288   3.861  21.778  0.00  0.00    +0.007 C 
ATOM     18  C   UNL     1      -2.549   2.099  21.360  0.00  0.00    +0.007 C 
ENDBRANCH   8  12
BRANCH   9  15
ATOM     15  C   UNL     1      -4.655   2.339  25.933  0.00  0.00    +0.089 C 
BRANCH  15   2
ATOM      2  N   UNL     1      -4.614   3.788  26.014  0.00  0.00    -0.311 NA
ATOM     32  H   UNL     1      -5.497   4.152  26.371  0.00  0.00    +0.122 HD
BRANCH   2  21
ATOM     21  C   UNL     1      -3.513   4.236  26.858  0.00  0.00    +0.117 C 
BRANCH  21  22
ATOM      6  N   UNL     1      -0.115   2.878  25.888  0.00  0.00    -0.263 NA
ATOM     22  C   UNL     1      -2.184   4.098  26.163  0.00  0.00    -0.016 A 
ATOM     24  C   UNL     1      -1.784   5.010  25.193  0.00  0.00    +0.008 A 
ATOM     25  C   UNL     1      -1.320   3.059  26.472  0.00  0.00    +0.115 A 
ATOM     27  C   UNL     1      -0.550   4.858  24.569  0.00  0.00    +0.020 A 
ATOM     29  C   UNL     1       0.240   3.785  24.949  0.00  0.00    +0.111 A 
ENDBRANCH  21  22
ENDBRANCH   2  21
ENDBRANCH  15   2
ENDBRANCH   9  15
BRANCH  11  16
ATOM     16  C   UNL     1      -1.275  -0.712  24.289  0.00  0.00    +0.105 C 
BRANCH  16  20
ATOM      1  O   UNL     1       1.162  -0.677  24.181  0.00  0.00    -0.419 OA
ATOM      3  N   UNL     1       0.155  -0.380  22.206  0.00  0.00    -0.112 NA
ATOM      4  N   UNL     1       1.521  -0.338  22.000  0.00  0.00    -0.106 NA
ATOM     20  C   UNL     1      -0.008  -0.580  23.493  0.00  0.00    +0.218 A 
ATOM     23  C   UNL     1       2.069  -0.515  23.179  0.00  0.00    +0.266 A 
BRANCH  23  26
ATOM      5  N   UNL     1       4.322   0.486  23.077  0.00  0.00    -0.329 N 
ATOM      7  N   UNL     1       5.588  -1.117  23.946  0.00  0.00    -0.243 NA
ATOM     26  C   UNL     1       3.469  -0.536  23.390  0.00  0.00    +0.125 A 
ATOM     28  C   UNL     1       4.274  -1.513  23.925  0.00  0.00    +0.143 A 
ATOM     30  C   UNL     1       5.581   0.091  23.428  0.00  0.00    +0.199 A 
ATOM     31  C   UNL     1       3.980   1.758  22.483  0.00  0.00    +0.150 C 
ENDBRANCH  23  26
ENDBRANCH  16  20
ENDBRANCH  11  16
TORSDOF 8
ENDMDL
MODEL 4
REMARK VINA RESULT:      -0.9      1.545      6.328
REMARK  Name = 45784091
REMARK  12 active torsions:
REMARK  status: ('A' for Active; 'I' for Inactive)
REMARK    1  A    between atoms: N_2  and  C_15
REMARK    2  A    between atoms: N_2  and  C_21
REMARK    3  A    between atoms: N_5  and  C_31
REMARK    4  A    between atoms: C_8  and  C_12
REMARK    5  A    between atoms: C_9  and  C_15
REMARK    6  A    between atoms: C_11  and  C_16
REMARK    7  A    between atoms: C_12  and  C_17
REMARK    8  A    between atoms: C_12  and  C_18
REMARK    9  A    between atoms: C_13  and  C_19
REMARK   10  A    between atoms: C_16  and  C_20
REMARK   11  A    between atoms: C_21  and  C_22
REMARK   12  A    between atoms: C_23  and  C_26
REMARK                            x       y       z     vdW  Elec       q    Type
REMARK                         _______ _______ _______ _____ _____    ______ ____
ROOT
ATOM      8  C   UNL     1      -0.418   3.422  23.779  0.00  0.00    +0.000 C 
ATOM      9  C   UNL     1      -0.189   2.577  25.054  0.00  0.00    +0.029 C 
ATOM     10  C   UNL     1      -1.914   3.496  23.445  0.00  0.00    +0.012 C 
ATOM     11  C   UNL     1      -2.771   4.063  24.598  0.00  0.00    +0.024 C 
ATOM     13  C   UNL     1      -2.325   3.572  25.968  0.00  0.00    -0.073 C 
ATOM     14  C   UNL     1      -1.174   2.900  26.148  0.00  0.00    -0.023 C 
ATOM     19  C   UNL     1      -3.195   3.918  27.145  0.00  0.00    +0.039 C 
ENDROOT
BRANCH   8  12
ATOM     12  C   UNL     1       0.189   4.824  23.922  0.00  0.00    -0.013 C 
ATOM     17  C   UNL     1       0.577   5.379  22.555  0.00  0.00    +0.007 C 
ATOM     18  C   UNL     1      -0.790   5.759  24.626  0.00  0.00    +0.007 C 
ENDBRANCH   8  12
BRANCH   9  15
ATOM     15  C   UNL     1      -0.243   1.075  24.755  0.00  0.00    +0.089 C 
BRANCH  15   2
ATOM      2  N   UNL     1       0.118   0.814  23.372  0.00  0.00    -0.311 NA
ATOM     32  H   UNL     1       0.665   1.585  22.993  0.00  0.00    +0.122 HD
BRANCH   2  21
ATOM     21  C   UNL     1       0.864  -0.433  23.252  0.00  0.00    +0.117 C 
BRANCH  21  22
ATOM      6  N   UNL     1       4.583  -1.024  23.642  0.00  0.00    -0.263 NA
ATOM     22  C   UNL     1       2.351  -0.196  23.221  0.00  0.00    -0.016 A 
ATOM     24  C   UNL     1       2.874   1.010  22.770  0.00  0.00    +0.008 A 
ATOM     25  C   UNL     1       3.240  -1.173  23.643  0.00  0.00    +0.115 A 
ATOM     27  C   UNL     1       4.253   1.201  22.754  0.00  0.00    +0.020 A 
ATOM     29  C   UNL     1       5.056   0.163  23.196  0.00  0.00    +0.111 A 
ENDBRANCH  21  22
ENDBRANCH   2  21
ENDBRANCH  15   2
ENDBRANCH   9  15
BRANCH  11  16
ATOM     16  C   UNL     1      -4.246   3.759  24.307  0.00  0.00    +0.105 C 
BRANCH  16  20
ATOM      1  O   UNL     1      -3.793   1.362  24.242  0.00  0.00    -0.419 OA
ATOM      3  N   UNL     1      -5.603   1.920  25.433  0.00  0.00    -0.112 NA
ATOM      4  N   UNL     1      -5.466   0.544  25.481  0.00  0.00    -0.106 NA
ATOM     20  C   UNL     1      -4.605   2.354  24.700  0.00  0.00    +0.218 A 
ATOM     23  C   UNL     1      -4.398   0.264  24.773  0.00  0.00    +0.266 A 
BRANCH  23  26
ATOM      5  N   UNL     1      -2.813  -1.581  25.184  0.00  0.00    -0.329 N 
ATOM      7  N   UNL     1      -3.627  -3.196  23.896  0.00  0.00    -0.243 NA
ATOM     26  C   UNL     1      -3.919  -1.054  24.577  0.00  0.00    +0.125 A 
ATOM     28  C   UNL     1      -4.404  -2.069  23.788  0.00  0.00    +0.143 A 
ATOM     30  C   UNL     1      -2.679  -2.868  24.745  0.00  0.00    +0.199 A 
ATOM     31  C   UNL     1      -1.933  -0.922  26.120  0.00  0.00    +0.150 C 
ENDBRANCH  23  26
ENDBRANCH  16  20
ENDBRANCH  11  16
TORSDOF 8
ENDMDL
MODEL 5
REMARK VINA RESULT:      -0.3      2.163      3.877
REMARK  Name = 45784091
REMARK  12 active torsions:
REMARK  status: ('A' for Active; 'I' for Inactive)
REMARK    1  A    between atoms: N_2  and  C_15
REMARK    2  A    between atoms: N_2  and  C_21
REMARK    3  A    between atoms: N_5  and  C_31
REMARK    4  A    between atoms: C_8  and  C_12
REMARK    5  A    between atoms: C_9  and  C_15
REMARK    6  A    between atoms: C_11  and  C_16
REMARK    7  A    between atoms: C_12  and  C_17
REMARK    8  A    between atoms: C_12  and  C_18
REMARK    9  A    between atoms: C_13  and  C_19
REMARK   10  A    between atoms: C_16  and  C_20
REMARK   11  A    between atoms: C_21  and  C_22
REMARK   12  A    between atoms: C_23  and  C_26
REMARK                            x       y       z     vdW  Elec       q    Type
REMARK                         _______ _______ _______ _____ _____    ______ ____
ROOT
ATOM      8  C   UNL     1      -4.563   1.665  25.503  0.00  0.00    +0.000 C 
ATOM      9  C   UNL     1      -4.589   1.479  23.968  0.00  0.00    +0.029 C 
ATOM     10  C   UNL     1      -3.358   2.517  25.923  0.00  0.00    +0.012 C 
ATOM     11  C   UNL     1      -3.320   3.900  25.237  0.00  0.00    +0.024 C 
ATOM     13  C   UNL     1      -3.741   3.853  23.776  0.00  0.00    -0.073 C 
ATOM     14  C   UNL     1      -4.295   2.758  23.225  0.00  0.00    -0.023 C 
ATOM     19  C   UNL     1      -3.572   5.108  22.964  0.00  0.00    +0.039 C 
ENDROOT
BRANCH   8  12
ATOM     12  C   UNL     1      -5.877   2.271  26.014  0.00  0.00    -0.013 C 
ATOM     17  C   UNL     1      -6.921   2.295  24.902  0.00  0.00    +0.007 C 
ATOM     18  C   UNL     1      -6.390   1.490  27.220  0.00  0.00    +0.007 C 
ENDBRANCH   8  12
BRANCH   9  15
ATOM     15  C   UNL     1      -3.606   0.395  23.513  0.00  0.00    +0.089 C 
BRANCH  15   2
ATOM      2  N   UNL     1      -4.293  -0.869  23.311  0.00  0.00    -0.311 NA
ATOM     32  H   UNL     1      -3.943  -1.337  22.476  0.00  0.00    +0.122 HD
BRANCH   2  21
ATOM     21  C   UNL     1      -4.141  -1.739  24.471  0.00  0.00    +0.117 C 
BRANCH  21  22
ATOM      6  N   UNL     1      -0.521  -2.770  24.867  0.00  0.00    -0.263 NA
ATOM     22  C   UNL     1      -2.719  -1.770  24.966  0.00  0.00    -0.016 A 
ATOM     24  C   UNL     1      -2.279  -0.880  25.938  0.00  0.00    +0.008 A 
ATOM     25  C   UNL     1      -1.809  -2.688  24.466  0.00  0.00    +0.115 A 
ATOM     27  C   UNL     1      -0.960  -0.933  26.377  0.00  0.00    +0.020 A 
ATOM     29  C   UNL     1      -0.129  -1.888  25.814  0.00  0.00    +0.111 A 
ENDBRANCH  21  22
ENDBRANCH   2  21
ENDBRANCH  15   2
ENDBRANCH   9  15
BRANCH  11  16
ATOM     16  C   UNL     1      -1.924   4.507  25.436  0.00  0.00    +0.105 C 
BRANCH  16  20
ATOM      1  O   UNL     1      -0.436   2.986  24.242  0.00  0.00    -0.419 OA
ATOM      3  N   UNL     1      -0.264   2.874  26.470  0.00  0.00    -0.112 NA
ATOM      4  N   UNL     1       0.627   1.967  25.926  0.00  0.00    -0.106 NA
ATOM     20  C   UNL     1      -0.862   3.445  25.450  0.00  0.00    +0.218 A 
ATOM     23  C   UNL     1       0.492   2.066  24.624  0.00  0.00    +0.266 A 
BRANCH  23  26
ATOM      5  N   UNL     1       0.711   0.353  22.862  0.00  0.00    -0.329 N 
ATOM      7  N   UNL     1       2.895   0.368  22.461  0.00  0.00    -0.243 NA
ATOM     26  C   UNL     1       1.240   1.292  23.704  0.00  0.00    +0.125 A 
ATOM     28  C   UNL     1       2.588   1.283  23.437  0.00  0.00    +0.143 A 
ATOM     30  C   UNL     1       1.742  -0.174  22.136  0.00  0.00    +0.199 A 
ATOM     31  C   UNL     1      -0.677  -0.030  22.743  0.00  0.00    +0.150 C 
ENDBRANCH  23  26
ENDBRANCH  16  20
ENDBRANCH  11  16
TORSDOF 8
ENDMDL
