MODEL 1
REMARK VINA RESULT:      -4.8      0.000      0.000
REMARK  Name = 26742949
REMARK  8 active torsions:
REMARK  status: ('A' for Active; 'I' for Inactive)
REMARK    1  A    between atoms: C_8  and  C_14
REMARK    2  A    between atoms: C_9  and  C_12
REMARK    3  A    between atoms: C_12  and  C_15
REMARK    4  A    between atoms: C_14  and  C_16
REMARK    5  A    between atoms: C_18  and  C_19
REMARK    6  A    between atoms: C_19  and  C_20
REMARK    7  A    between atoms: C_20  and  C_22
REMARK    8  A    between atoms: C_22  and  C_23
REMARK                            x       y       z     vdW  Elec       q    Type
REMARK                         _______ _______ _______ _____ _____    ______ ____
ROOT
ATOM      4  N   UNL     1      -3.397  -3.373  24.321  0.00  0.00    -0.316 NA
ATOM      8  C   UNL     1      -3.486  -0.442  23.998  0.00  0.00    +0.004 C 
ATOM      9  C   UNL     1      -2.211  -1.195  24.446  0.00  0.00    +0.012 C 
ATOM     10  C   UNL     1      -4.384  -1.404  23.203  0.00  0.00    +0.019 C 
ATOM     11  C   UNL     1      -2.552  -2.517  25.154  0.00  0.00    +0.085 C 
ATOM     13  C   UNL     1      -4.645  -2.711  23.953  0.00  0.00    +0.081 C 
ATOM     26  H   UNL     1      -3.608  -4.233  24.826  0.00  0.00    +0.122 HD
ENDROOT
BRANCH   9  12
ATOM     12  C   UNL     1      -1.286  -0.343  25.315  0.00  0.00    +0.064 C 
BRANCH  12  15
ATOM      2  O   UNL     1       1.494   1.429  23.866  0.00  0.00    -0.359 OA
ATOM      5  N   UNL     1       0.385   1.351  24.701  0.00  0.00    -0.083 NA
ATOM     15  C   UNL     1      -0.075   0.105  24.550  0.00  0.00    +0.084 A 
ATOM     17  C   UNL     1       0.695  -0.640  23.641  0.00  0.00    +0.071 A 
ATOM     18  C   UNL     1       1.668   0.237  23.240  0.00  0.00    +0.138 A 
BRANCH  18  19
ATOM     19  C   UNL     1       2.802   0.144  22.314  0.00  0.00    +0.077 C 
BRANCH  19  20
ATOM     20  C   UNL     1       3.988   1.049  22.715  0.00  0.00    +0.007 C 
BRANCH  20  22
ATOM     22  C   UNL     1       5.220   0.252  23.142  0.00  0.00    -0.003 C 
ATOM     23  C   UNL     1       4.834  -0.990  23.930  0.00  0.00    +0.004 C 
ENDBRANCH  20  22
ENDBRANCH  19  20
ENDBRANCH  18  19
ENDBRANCH  12  15
ENDBRANCH   9  12
BRANCH   8  14
ATOM     14  C   UNL     1      -4.265   0.207  25.149  0.00  0.00    +0.100 C 
BRANCH  14  16
ATOM      1  S   UNL     1      -0.824   3.793  25.077  0.00  0.00    -0.061 S 
ATOM      3  O   UNL     1      -5.290   2.381  25.002  0.00  0.00    -0.275 OA
ATOM      6  N   UNL     1      -2.950   2.198  25.088  0.00  0.00    -0.265 N 
ATOM      7  N   UNL     1      -3.269   4.624  24.953  0.00  0.00    -0.233 NA
ATOM     16  C   UNL     1      -4.258   1.721  25.071  0.00  0.00    +0.219 C 
ATOM     21  C   UNL     1      -2.522   3.546  25.033  0.00  0.00    +0.164 A 
ATOM     24  C   UNL     1      -1.093   5.484  24.979  0.00  0.00    +0.068 A 
ATOM     25  C   UNL     1      -2.448   5.734  24.923  0.00  0.00    +0.120 A 
ATOM     27  H   UNL     1      -2.188   1.527  25.149  0.00  0.00    +0.157 HD
ENDBRANCH  14  16
ENDBRANCH   8  14
TORSDOF 7
ENDMDL
MODEL 2
REMARK VINA RESULT:      -4.7      2.026      5.761
REMARK  Name = 26742949
REMARK  8 active torsions:
REMARK  status: ('A' for Active; 'I' for Inactive)
REMARK    1  A    between atoms: C_8  and  C_14
REMARK    2  A    between atoms: C_9  and  C_12
REMARK    3  A    between atoms: C_12  and  C_15
REMARK    4  A    between atoms: C_14  and  C_16
REMARK    5  A    between atoms: C_18  and  C_19
REMARK    6  A    between atoms: C_19  and  C_20
REMARK    7  A    between atoms: C_20  and  C_22
REMARK    8  A    between atoms: C_22  and  C_23
REMARK                            x       y       z     vdW  Elec       q    Type
REMARK                         _______ _______ _______ _____ _____    ______ ____
ROOT
ATOM      4  N   UNL     1      -3.120  -3.199  24.602  0.00  0.00    -0.316 NA
ATOM      8  C   UNL     1      -2.655  -0.331  25.113  0.00  0.00    +0.004 C 
ATOM      9  C   UNL     1      -4.070  -0.928  24.925  0.00  0.00    +0.012 C 
ATOM     10  C   UNL     1      -1.703  -1.437  25.598  0.00  0.00    +0.019 C 
ATOM     11  C   UNL     1      -4.039  -2.199  24.060  0.00  0.00    +0.085 C 
ATOM     13  C   UNL     1      -1.758  -2.682  24.712  0.00  0.00    +0.081 C 
ATOM     26  H   UNL     1      -3.120  -4.021  23.999  0.00  0.00    +0.122 HD
ENDROOT
BRANCH   9  12
ATOM     12  C   UNL     1      -5.076   0.079  24.367  0.00  0.00    +0.064 C 
BRANCH  12  15
ATOM      2  O   UNL     1      -5.496   3.092  26.292  0.00  0.00    -0.359 OA
ATOM      5  N   UNL     1      -5.930   1.853  25.837  0.00  0.00    -0.083 NA
ATOM     15  C   UNL     1      -4.948   1.413  25.043  0.00  0.00    +0.084 A 
ATOM     17  C   UNL     1      -3.881   2.323  24.960  0.00  0.00    +0.071 A 
ATOM     18  C   UNL     1      -4.274   3.361  25.763  0.00  0.00    +0.138 A 
BRANCH  18  19
ATOM     19  C   UNL     1      -3.664   4.640  26.142  0.00  0.00    +0.077 C 
BRANCH  19  20
ATOM     20  C   UNL     1      -2.119   4.599  26.143  0.00  0.00    +0.007 C 
BRANCH  20  22
ATOM     22  C   UNL     1      -1.508   5.442  25.025  0.00  0.00    -0.003 C 
ATOM     23  C   UNL     1      -0.436   4.673  24.269  0.00  0.00    +0.004 C 
ENDBRANCH  20  22
ENDBRANCH  19  20
ENDBRANCH  18  19
ENDBRANCH  12  15
ENDBRANCH   9  12
BRANCH   8  14
ATOM     14  C   UNL     1      -2.097   0.359  23.863  0.00  0.00    +0.100 C 
BRANCH  14  16
ATOM      1  S   UNL     1       2.245  -0.402  21.567  0.00  0.00    -0.061 S 
ATOM      3  O   UNL     1      -0.324   1.573  24.950  0.00  0.00    -0.275 OA
ATOM      6  N   UNL     1       0.149   0.258  23.062  0.00  0.00    -0.265 N 
ATOM      7  N   UNL     1       2.355   1.168  23.618  0.00  0.00    -0.233 NA
ATOM     16  C   UNL     1      -0.663   0.816  24.045  0.00  0.00    +0.219 C 
ATOM     21  C   UNL     1       1.542   0.438  22.888  0.00  0.00    +0.164 A 
ATOM     24  C   UNL     1       3.770   0.259  21.991  0.00  0.00    +0.068 A 
ATOM     25  C   UNL     1       3.632   1.064  23.102  0.00  0.00    +0.120 A 
ATOM     27  H   UNL     1      -0.275  -0.357  22.372  0.00  0.00    +0.157 HD
ENDBRANCH  14  16
ENDBRANCH   8  14
TORSDOF 7
ENDMDL
MODEL 3
REMARK VINA RESULT:      -4.3      2.352      6.377
REMARK  Name = 26742949
REMARK  8 active torsions:
REMARK  status: ('A' for Active; 'I' for Inactive)
REMARK    1  A    between atoms: C_8  and  C_14
REMARK    2  A    between atoms: C_9  and  C_12
REMARK    3  A    between atoms: C_12  and  C_15
REMARK    4  A    between atoms: C_14  and  C_16
REMARK    5  A    between atoms: C_18  and  C_19
REMARK    6  A    between atoms: C_19  and  C_20
REMARK    7  A    between atoms: C_20  and  C_22
REMARK    8  A    between atoms: C_22  and  C_23
REMARK                            x       y       z     vdW  Elec       q    Type
REMARK                         _______ _______ _______ _____ _____    ______ ____
ROOT
ATOM      4  N   UNL     1      -3.558  -1.503  25.685  0.00  0.00    -0.316 NA
ATOM      8  C   UNL     1      -0.757  -1.483  24.758  0.00  0.00    +0.004 C 
ATOM      9  C   UNL     1      -1.299  -0.477  25.800  0.00  0.00    +0.012 C 
ATOM     10  C   UNL     1      -1.626  -2.751  24.784  0.00  0.00    +0.019 C 
ATOM     11  C   UNL     1      -2.810  -0.246  25.634  0.00  0.00    +0.085 C 
ATOM     13  C   UNL     1      -3.117  -2.439  24.654  0.00  0.00    +0.081 C 
ATOM     26  H   UNL     1      -4.551  -1.310  25.563  0.00  0.00    +0.122 HD
ENDROOT
BRANCH   9  12
ATOM     12  C   UNL     1      -0.548   0.855  25.796  0.00  0.00    +0.064 C 
BRANCH  12  15
ATOM      2  O   UNL     1      -2.306   3.996  25.867  0.00  0.00    -0.359 OA
ATOM      5  N   UNL     1      -1.276   3.154  26.267  0.00  0.00    -0.083 NA
ATOM     15  C   UNL     1      -1.486   2.012  25.606  0.00  0.00    +0.084 A 
ATOM     17  C   UNL     1      -2.623   2.073  24.783  0.00  0.00    +0.071 A 
ATOM     18  C   UNL     1      -3.102   3.341  24.983  0.00  0.00    +0.138 A 
BRANCH  18  19
ATOM     19  C   UNL     1      -4.249   4.090  24.455  0.00  0.00    +0.077 C 
BRANCH  19  20
ATOM     20  C   UNL     1      -5.470   4.075  25.401  0.00  0.00    +0.007 C 
BRANCH  20  22
ATOM     22  C   UNL     1      -5.754   2.687  25.973  0.00  0.00    -0.003 C 
ATOM     23  C   UNL     1      -6.182   1.713  24.886  0.00  0.00    +0.004 C 
ENDBRANCH  20  22
ENDBRANCH  19  20
ENDBRANCH  18  19
ENDBRANCH  12  15
ENDBRANCH   9  12
BRANCH   8  14
ATOM     14  C   UNL     1      -0.661  -0.917  23.336  0.00  0.00    +0.100 C 
BRANCH  14  16
ATOM      1  S   UNL     1       4.274  -1.398  23.673  0.00  0.00    -0.061 S 
ATOM      3  O   UNL     1       0.443   1.164  22.837  0.00  0.00    -0.275 OA
ATOM      6  N   UNL     1       1.718  -0.730  23.387  0.00  0.00    -0.265 N 
ATOM      7  N   UNL     1       3.450   0.963  23.018  0.00  0.00    -0.233 NA
ATOM     16  C   UNL     1       0.546  -0.017  23.151  0.00  0.00    +0.219 C 
ATOM     21  C   UNL     1       3.048  -0.251  23.319  0.00  0.00    +0.164 A 
ATOM     24  C   UNL     1       5.454  -0.183  23.403  0.00  0.00    +0.068 A 
ATOM     25  C   UNL     1       4.830   1.000  23.067  0.00  0.00    +0.120 A 
ATOM     27  H   UNL     1       1.647  -1.712  23.643  0.00  0.00    +0.157 HD
ENDBRANCH  14  16
ENDBRANCH   8  14
TORSDOF 7
ENDMDL
MODEL 4
REMARK VINA RESULT:      -4.2      2.084      6.016
REMARK  Name = 26742949
REMARK  8 active torsions:
REMARK  status: ('A' for Active; 'I' for Inactive)
REMARK    1  A    between atoms: C_8  and  C_14
REMARK    2  A    between atoms: C_9  and  C_12
REMARK    3  A    between atoms: C_12  and  C_15
REMARK    4  A    between atoms: C_14  and  C_16
REMARK    5  A    between atoms: C_18  and  C_19
REMARK    6  A    between atoms: C_19  and  C_20
REMARK    7  A    between atoms: C_20  and  C_22
REMARK    8  A    between atoms: C_22  and  C_23
REMARK                            x       y       z     vdW  Elec       q    Type
REMARK                         _______ _______ _______ _____ _____    ______ ____
ROOT
ATOM      4  N   UNL     1      -4.802   4.172  26.140  0.00  0.00    -0.316 NA
ATOM      8  C   UNL     1      -2.220   3.599  24.833  0.00  0.00    +0.004 C 
ATOM      9  C   UNL     1      -3.579   3.408  24.119  0.00  0.00    +0.012 C 
ATOM     10  C   UNL     1      -2.383   4.638  25.955  0.00  0.00    +0.019 C 
ATOM     11  C   UNL     1      -4.712   3.128  25.119  0.00  0.00    +0.085 C 
ATOM     13  C   UNL     1      -3.553   4.314  26.884  0.00  0.00    +0.081 C 
ATOM     26  H   UNL     1      -5.557   3.947  26.788  0.00  0.00    +0.122 HD
ENDROOT
BRANCH   9  12
ATOM     12  C   UNL     1      -3.540   2.332  23.034  0.00  0.00    +0.064 C 
BRANCH  12  15
ATOM      2  O   UNL     1      -4.728  -0.507  24.904  0.00  0.00    -0.359 OA
ATOM      5  N   UNL     1      -4.669   0.857  24.644  0.00  0.00    -0.083 NA
ATOM     15  C   UNL     1      -3.843   0.974  23.600  0.00  0.00    +0.084 A 
ATOM     17  C   UNL     1      -3.355  -0.270  23.164  0.00  0.00    +0.071 A 
ATOM     18  C   UNL     1      -3.941  -1.167  24.017  0.00  0.00    +0.138 A 
BRANCH  18  19
ATOM     19  C   UNL     1      -3.887  -2.628  24.150  0.00  0.00    +0.077 C 
BRANCH  19  20
ATOM     20  C   UNL     1      -2.651  -3.119  24.937  0.00  0.00    +0.007 C 
BRANCH  20  22
ATOM     22  C   UNL     1      -1.346  -2.516  24.419  0.00  0.00    -0.003 C 
ATOM     23  C   UNL     1      -0.656  -1.681  25.485  0.00  0.00    +0.004 C 
ENDBRANCH  20  22
ENDBRANCH  19  20
ENDBRANCH  18  19
ENDBRANCH  12  15
ENDBRANCH   9  12
BRANCH   8  14
ATOM     14  C   UNL     1      -1.614   2.300  25.378  0.00  0.00    +0.100 C 
BRANCH  14  16
ATOM      1  S   UNL     1       1.106  -0.227  22.073  0.00  0.00    -0.061 S 
ATOM      3  O   UNL     1       0.732   2.770  25.653  0.00  0.00    -0.275 OA
ATOM      6  N   UNL     1       0.030   1.281  23.978  0.00  0.00    -0.265 N 
ATOM      7  N   UNL     1       2.462   1.274  23.682  0.00  0.00    -0.233 NA
ATOM     16  C   UNL     1      -0.141   2.163  25.041  0.00  0.00    +0.219 C 
ATOM     21  C   UNL     1       1.245   0.888  23.370  0.00  0.00    +0.164 A 
ATOM     24  C   UNL     1       2.812  -0.201  21.899  0.00  0.00    +0.068 A 
ATOM     25  C   UNL     1       3.359   0.649  22.838  0.00  0.00    +0.120 A 
ATOM     27  H   UNL     1      -0.794   0.848  23.567  0.00  0.00    +0.157 HD
ENDBRANCH  14  16
ENDBRANCH   8  14
TORSDOF 7
ENDMDL
MODEL 5
REMARK VINA RESULT:      -3.4      1.941      4.292
REMARK  Name = 26742949
REMARK  8 active torsions:
REMARK  status: ('A' for Active; 'I' for Inactive)
REMARK    1  A    between atoms: C_8  and  C_14
REMARK    2  A    between atoms: C_9  and  C_12
REMARK    3  A    between atoms: C_12  and  C_15
REMARK    4  A    between atoms: C_14  and  C_16
REMARK    5  A    between atoms: C_18  and  C_19
REMARK    6  A    between atoms: C_19  and  C_20
REMARK    7  A    between atoms: C_20  and  C_22
REMARK    8  A    between atoms: C_22  and  C_23
REMARK                            x       y       z     vdW  Elec       q    Type
REMARK                         _______ _______ _______ _____ _____    ______ ____
ROOT
ATOM      4  N   UNL     1      -3.069   2.829  22.200  0.00  0.00    -0.316 NA
ATOM      8  C   UNL     1      -2.875   3.719  25.006  0.00  0.00    +0.004 C 
ATOM      9  C   UNL     1      -1.695   3.057  24.256  0.00  0.00    +0.012 C 
ATOM     10  C   UNL     1      -3.823   4.364  23.982  0.00  0.00    +0.019 C 
ATOM     11  C   UNL     1      -2.185   2.128  23.133  0.00  0.00    +0.085 C 
ATOM     13  C   UNL     1      -4.235   3.393  22.876  0.00  0.00    +0.081 C 
ATOM     26  H   UNL     1      -3.379   2.180  21.477  0.00  0.00    +0.122 HD
ENDROOT
BRANCH   9  12
ATOM     12  C   UNL     1      -0.733   2.316  25.185  0.00  0.00    +0.064 C 
BRANCH  12  15
ATOM      2  O   UNL     1       0.773  -0.524  23.563  0.00  0.00    -0.359 OA
ATOM      5  N   UNL     1      -0.230   0.072  24.318  0.00  0.00    -0.083 NA
ATOM     15  C   UNL     1       0.132   1.354  24.423  0.00  0.00    +0.084 A 
ATOM     17  C   UNL     1       1.343   1.622  23.762  0.00  0.00    +0.071 A 
ATOM     18  C   UNL     1       1.704   0.409  23.238  0.00  0.00    +0.138 A 
BRANCH  18  19
ATOM     19  C   UNL     1       2.842  -0.054  22.436  0.00  0.00    +0.077 C 
BRANCH  19  20
ATOM     20  C   UNL     1       4.063   0.891  22.513  0.00  0.00    +0.007 C 
BRANCH  20  22
ATOM     22  C   UNL     1       5.041   0.498  23.619  0.00  0.00    -0.003 C 
ATOM     23  C   UNL     1       5.037  -1.003  23.860  0.00  0.00    +0.004 C 
ENDBRANCH  20  22
ENDBRANCH  19  20
ENDBRANCH  18  19
ENDBRANCH  12  15
ENDBRANCH   9  12
BRANCH   8  14
ATOM     14  C   UNL     1      -3.639   2.764  25.931  0.00  0.00    +0.100 C 
BRANCH  14  16
ATOM      1  S   UNL     1      -2.428  -2.007  25.241  0.00  0.00    -0.061 S 
ATOM      3  O   UNL     1      -5.260   1.657  24.535  0.00  0.00    -0.275 OA
ATOM      6  N   UNL     1      -3.418   0.457  25.362  0.00  0.00    -0.265 N 
ATOM      7  N   UNL     1      -4.601  -1.251  24.063  0.00  0.00    -0.233 NA
ATOM     16  C   UNL     1      -4.222   1.579  25.185  0.00  0.00    +0.219 C 
ATOM     21  C   UNL     1      -3.617  -0.840  24.831  0.00  0.00    +0.164 A 
ATOM     24  C   UNL     1      -3.289  -3.171  24.322  0.00  0.00    +0.068 A 
ATOM     25  C   UNL     1      -4.411  -2.588  23.772  0.00  0.00    +0.120 A 
ATOM     27  H   UNL     1      -2.580   0.543  25.932  0.00  0.00    +0.157 HD
ENDBRANCH  14  16
ENDBRANCH   8  14
TORSDOF 7
ENDMDL
MODEL 6
REMARK VINA RESULT:      -2.8      2.206      4.932
REMARK  Name = 26742949
REMARK  8 active torsions:
REMARK  status: ('A' for Active; 'I' for Inactive)
REMARK    1  A    between atoms: C_8  and  C_14
REMARK    2  A    between atoms: C_9  and  C_12
REMARK    3  A    between atoms: C_12  and  C_15
REMARK    4  A    between atoms: C_14  and  C_16
REMARK    5  A    between atoms: C_18  and  C_19
REMARK    6  A    between atoms: C_19  and  C_20
REMARK    7  A    between atoms: C_20  and  C_22
REMARK    8  A    between atoms: C_22  and  C_23
REMARK                            x       y       z     vdW  Elec       q    Type
REMARK                         _______ _______ _______ _____ _____    ______ ____
ROOT
ATOM      4  N   UNL     1      -6.213   4.420  25.891  0.00  0.00    -0.316 NA
ATOM      8  C   UNL     1      -3.940   2.616  25.359  0.00  0.00    +0.004 C 
ATOM      9  C   UNL     1      -3.754   4.089  25.793  0.00  0.00    +0.012 C 
ATOM     10  C   UNL     1      -5.314   2.120  25.841  0.00  0.00    +0.019 C 
ATOM     11  C   UNL     1      -4.953   4.959  25.379  0.00  0.00    +0.085 C 
ATOM     13  C   UNL     1      -6.449   3.055  25.426  0.00  0.00    +0.081 C 
ATOM     26  H   UNL     1      -6.983   5.016  25.589  0.00  0.00    +0.122 HD
ENDROOT
BRANCH   9  12
ATOM     12  C   UNL     1      -2.446   4.702  25.291  0.00  0.00    +0.064 C 
BRANCH  12  15
ATOM      2  O   UNL     1      -0.065   2.061  25.854  0.00  0.00    -0.359 OA
ATOM      5  N   UNL     1      -1.115   2.877  26.258  0.00  0.00    -0.083 NA
ATOM     15  C   UNL     1      -1.355   3.674  25.212  0.00  0.00    +0.084 A 
ATOM     17  C   UNL     1      -0.496   3.410  24.132  0.00  0.00    +0.071 A 
ATOM     18  C   UNL     1       0.295   2.388  24.586  0.00  0.00    +0.138 A 
BRANCH  18  19
ATOM     19  C   UNL     1       1.398   1.618  24.000  0.00  0.00    +0.077 C 
BRANCH  19  20
ATOM     20  C   UNL     1       0.920   0.376  23.215  0.00  0.00    +0.007 C 
BRANCH  20  22
ATOM     22  C   UNL     1       1.995  -0.180  22.282  0.00  0.00    -0.003 C 
ATOM     23  C   UNL     1       3.345   0.472  22.536  0.00  0.00    +0.004 C 
ENDBRANCH  20  22
ENDBRANCH  19  20
ENDBRANCH  18  19
ENDBRANCH  12  15
ENDBRANCH   9  12
BRANCH   8  14
ATOM     14  C   UNL     1      -3.773   2.384  23.853  0.00  0.00    +0.100 C 
BRANCH  14  16
ATOM      1  S   UNL     1      -1.040  -1.081  26.139  0.00  0.00    -0.061 S 
ATOM      3  O   UNL     1      -3.542   0.422  22.475  0.00  0.00    -0.275 OA
ATOM      6  N   UNL     1      -2.530   0.486  24.594  0.00  0.00    -0.265 N 
ATOM      7  N   UNL     1      -1.893  -1.739  23.790  0.00  0.00    -0.233 NA
ATOM     16  C   UNL     1      -3.282   0.985  23.534  0.00  0.00    +0.219 C 
ATOM     21  C   UNL     1      -1.898  -0.778  24.685  0.00  0.00    +0.164 A 
ATOM     24  C   UNL     1      -0.619  -2.631  25.538  0.00  0.00    +0.068 A 
ATOM     25  C   UNL     1      -1.159  -2.801  24.280  0.00  0.00    +0.120 A 
ATOM     27  H   UNL     1      -2.396   1.072  25.414  0.00  0.00    +0.157 HD
ENDBRANCH  14  16
ENDBRANCH   8  14
TORSDOF 7
ENDMDL
MODEL 7
REMARK VINA RESULT:      -2.5      2.279      6.607
REMARK  Name = 26742949
REMARK  8 active torsions:
REMARK  status: ('A' for Active; 'I' for Inactive)
REMARK    1  A    between atoms: C_8  and  C_14
REMARK    2  A    between atoms: C_9  and  C_12
REMARK    3  A    between atoms: C_12  and  C_15
REMARK    4  A    between atoms: C_14  and  C_16
REMARK    5  A    between atoms: C_18  and  C_19
REMARK    6  A    between atoms: C_19  and  C_20
REMARK    7  A    between atoms: C_20  and  C_22
REMARK    8  A    between atoms: C_22  and  C_23
REMARK                            x       y       z     vdW  Elec       q    Type
REMARK                         _______ _______ _______ _____ _____    ______ ____
ROOT
ATOM      4  N   UNL     1      -0.959   3.047  26.612  0.00  0.00    -0.316 NA
ATOM      8  C   UNL     1      -0.618   2.407  23.752  0.00  0.00    +0.004 C 
ATOM      9  C   UNL     1      -1.843   3.179  24.295  0.00  0.00    +0.012 C 
ATOM     10  C   UNL     1       0.563   2.593  24.720  0.00  0.00    +0.019 C 
ATOM     11  C   UNL     1      -2.131   2.827  25.764  0.00  0.00    +0.085 C 
ATOM     13  C   UNL     1       0.190   2.263  26.165  0.00  0.00    +0.081 C 
ATOM     26  H   UNL     1      -1.185   2.795  27.573  0.00  0.00    +0.122 HD
ENDROOT
BRANCH   9  12
ATOM     12  C   UNL     1      -3.098   2.991  23.441  0.00  0.00    +0.064 C 
BRANCH  12  15
ATOM      2  O   UNL     1      -5.255   0.365  24.632  0.00  0.00    -0.359 OA
ATOM      5  N   UNL     1      -4.875   1.699  24.542  0.00  0.00    -0.083 NA
ATOM     15  C   UNL     1      -3.789   1.698  23.763  0.00  0.00    +0.084 A 
ATOM     17  C   UNL     1      -3.440   0.405  23.336  0.00  0.00    +0.071 A 
ATOM     18  C   UNL     1      -4.393  -0.396  23.910  0.00  0.00    +0.138 A 
BRANCH  18  19
ATOM     19  C   UNL     1      -4.649  -1.841  23.896  0.00  0.00    +0.077 C 
BRANCH  19  20
ATOM     20  C   UNL     1      -3.421  -2.678  24.319  0.00  0.00    +0.007 C 
BRANCH  20  22
ATOM     22  C   UNL     1      -3.160  -2.620  25.824  0.00  0.00    -0.003 C 
ATOM     23  C   UNL     1      -2.609  -1.267  26.242  0.00  0.00    +0.004 C 
ENDBRANCH  20  22
ENDBRANCH  19  20
ENDBRANCH  18  19
ENDBRANCH  12  15
ENDBRANCH   9  12
BRANCH   8  14
ATOM     14  C   UNL     1      -0.883   0.918  23.495  0.00  0.00    +0.100 C 
BRANCH  14  16
ATOM      1  S   UNL     1       3.980   1.201  22.505  0.00  0.00    -0.061 S 
ATOM      3  O   UNL     1       0.282  -1.013  24.341  0.00  0.00    -0.275 OA
ATOM      6  N   UNL     1       1.476   0.673  23.223  0.00  0.00    -0.265 N 
ATOM      7  N   UNL     1       3.248  -0.923  23.783  0.00  0.00    -0.233 NA
ATOM     16  C   UNL     1       0.342   0.061  23.749  0.00  0.00    +0.219 C 
ATOM     21  C   UNL     1       2.808   0.195  23.253  0.00  0.00    +0.164 A 
ATOM     24  C   UNL     1       5.189   0.057  22.919  0.00  0.00    +0.068 A 
ATOM     25  C   UNL     1       4.614  -1.001  23.590  0.00  0.00    +0.120 A 
ATOM     27  H   UNL     1       1.372   1.570  22.754  0.00  0.00    +0.157 HD
ENDBRANCH  14  16
ENDBRANCH   8  14
TORSDOF 7
ENDMDL
MODEL 8
REMARK VINA RESULT:      -2.4      2.268      5.993
REMARK  Name = 26742949
REMARK  8 active torsions:
REMARK  status: ('A' for Active; 'I' for Inactive)
REMARK    1  A    between atoms: C_8  and  C_14
REMARK    2  A    between atoms: C_9  and  C_12
REMARK    3  A    between atoms: C_12  and  C_15
REMARK    4  A    between atoms: C_14  and  C_16
REMARK    5  A    between atoms: C_18  and  C_19
REMARK    6  A    between atoms: C_19  and  C_20
REMARK    7  A    between atoms: C_20  and  C_22
REMARK    8  A    between atoms: C_22  and  C_23
REMARK                            x       y       z     vdW  Elec       q    Type
REMARK                         _______ _______ _______ _____ _____    ______ ____
ROOT
ATOM      4  N   UNL     1      -4.290  -0.297  24.785  0.00  0.00    -0.316 NA
ATOM      8  C   UNL     1      -1.731  -1.759  24.933  0.00  0.00    +0.004 C 
ATOM      9  C   UNL     1      -2.062  -0.558  25.851  0.00  0.00    +0.012 C 
ATOM     10  C   UNL     1      -3.043  -2.404  24.457  0.00  0.00    +0.019 C 
ATOM     11  C   UNL     1      -3.070   0.399  25.193  0.00  0.00    +0.085 C 
ATOM     13  C   UNL     1      -4.008  -1.385  23.852  0.00  0.00    +0.081 C 
ATOM     26  H   UNL     1      -4.927   0.366  24.347  0.00  0.00    +0.122 HD
ENDROOT
BRANCH   9  12
ATOM     12  C   UNL     1      -0.820   0.203  26.315  0.00  0.00    +0.064 C 
BRANCH  12  15
ATOM      2  O   UNL     1      -0.189   3.128  24.313  0.00  0.00    -0.359 OA
ATOM      5  N   UNL     1      -0.026   1.780  24.606  0.00  0.00    -0.083 NA
ATOM     15  C   UNL     1      -0.759   1.573  25.704  0.00  0.00    +0.084 A 
ATOM     17  C   UNL     1      -1.400   2.743  26.145  0.00  0.00    +0.071 A 
ATOM     18  C   UNL     1      -1.010   3.691  25.237  0.00  0.00    +0.138 A 
BRANCH  18  19
ATOM     19  C   UNL     1      -1.291   5.123  25.077  0.00  0.00    +0.077 C 
BRANCH  19  20
ATOM     20  C   UNL     1      -2.801   5.435  24.970  0.00  0.00    +0.007 C 
BRANCH  20  22
ATOM     22  C   UNL     1      -3.604   4.268  24.398  0.00  0.00    -0.003 C 
ATOM     23  C   UNL     1      -4.707   3.832  25.349  0.00  0.00    +0.004 C 
ENDBRANCH  20  22
ENDBRANCH  19  20
ENDBRANCH  18  19
ENDBRANCH  12  15
ENDBRANCH   9  12
BRANCH   8  14
ATOM     14  C   UNL     1      -0.834  -1.403  23.741  0.00  0.00    +0.100 C 
BRANCH  14  16
ATOM      1  S   UNL     1       3.420   0.751  22.337  0.00  0.00    -0.061 S 
ATOM      3  O   UNL     1       1.051  -2.421  24.841  0.00  0.00    -0.275 OA
ATOM      6  N   UNL     1       1.395  -0.651  23.336  0.00  0.00    -0.265 N 
ATOM      7  N   UNL     1       3.682  -1.172  24.044  0.00  0.00    -0.233 NA
ATOM     16  C   UNL     1       0.640  -1.573  24.054  0.00  0.00    +0.219 C 
ATOM     21  C   UNL     1       2.801  -0.488  23.350  0.00  0.00    +0.164 A 
ATOM     24  C   UNL     1       5.004   0.354  22.861  0.00  0.00    +0.068 A 
ATOM     25  C   UNL     1       4.944  -0.688  23.763  0.00  0.00    +0.120 A 
ATOM     27  H   UNL     1       0.912  -0.004  22.716  0.00  0.00    +0.157 HD
ENDBRANCH  14  16
ENDBRANCH   8  14
TORSDOF 7
ENDMDL
MODEL 9
REMARK VINA RESULT:      -2.0      2.771      5.765
REMARK  Name = 26742949
REMARK  8 active torsions:
REMARK  status: ('A' for Active; 'I' for Inactive)
REMARK    1  A    between atoms: C_8  and  C_14
REMARK    2  A    between atoms: C_9  and  C_12
REMARK    3  A    between atoms: C_12  and  C_15
REMARK    4  A    between atoms: C_14  and  C_16
REMARK    5  A    between atoms: C_18  and  C_19
REMARK    6  A    between atoms: C_19  and  C_20
REMARK    7  A    between atoms: C_20  and  C_22
REMARK    8  A    between atoms: C_22  and  C_23
REMARK                            x       y       z     vdW  Elec       q    Type
REMARK                         _______ _______ _______ _____ _____    ______ ____
ROOT
ATOM      4  N   UNL     1      -4.490   4.329  26.380  0.00  0.00    -0.316 NA
ATOM      8  C   UNL     1      -2.263   3.541  24.612  0.00  0.00    +0.004 C 
ATOM      9  C   UNL     1      -3.748   3.397  24.202  0.00  0.00    +0.012 C 
ATOM     10  C   UNL     1      -2.142   4.641  25.680  0.00  0.00    +0.019 C 
ATOM     11  C   UNL     1      -4.663   3.233  25.427  0.00  0.00    +0.085 C 
ATOM     13  C   UNL     1      -3.109   4.432  26.845  0.00  0.00    +0.081 C 
ATOM     26  H   UNL     1      -5.105   4.181  27.180  0.00  0.00    +0.122 HD
ENDROOT
BRANCH   9  12
ATOM     12  C   UNL     1      -3.986   2.268  23.198  0.00  0.00    +0.064 C 
BRANCH  12  15
ATOM      2  O   UNL     1      -4.331  -0.572  25.384  0.00  0.00    -0.359 OA
ATOM      5  N   UNL     1      -4.538   0.763  25.061  0.00  0.00    -0.083 NA
ATOM     15  C   UNL     1      -3.957   0.925  23.868  0.00  0.00    +0.084 A 
ATOM     17  C   UNL     1      -3.372  -0.262  23.395  0.00  0.00    +0.071 A 
ATOM     18  C   UNL     1      -3.634  -1.172  24.384  0.00  0.00    +0.138 A 
BRANCH  18  19
ATOM     19  C   UNL     1      -3.326  -2.596  24.563  0.00  0.00    +0.077 C 
BRANCH  19  20
ATOM     20  C   UNL     1      -1.810  -2.894  24.555  0.00  0.00    +0.007 C 
BRANCH  20  22
ATOM     22  C   UNL     1      -0.995  -1.815  25.268  0.00  0.00    -0.003 C 
ATOM     23  C   UNL     1      -0.113  -1.049  24.295  0.00  0.00    +0.004 C 
ENDBRANCH  20  22
ENDBRANCH  19  20
ENDBRANCH  18  19
ENDBRANCH  12  15
ENDBRANCH   9  12
BRANCH   8  14
ATOM     14  C   UNL     1      -1.622   2.236  25.099  0.00  0.00    +0.100 C 
BRANCH  14  16
ATOM      1  S   UNL     1       0.512   2.378  29.586  0.00  0.00    -0.061 S 
ATOM      3  O   UNL     1       0.744   2.649  24.915  0.00  0.00    -0.275 OA
ATOM      6  N   UNL     1      -0.231   2.376  27.034  0.00  0.00    -0.265 N 
ATOM      7  N   UNL     1       2.123   2.751  27.599  0.00  0.00    -0.233 NA
ATOM     16  C   UNL     1      -0.222   2.448  25.644  0.00  0.00    +0.219 C 
ATOM     21  C   UNL     1       0.868   2.521  27.913  0.00  0.00    +0.164 A 
ATOM     24  C   UNL     1       2.170   2.643  29.936  0.00  0.00    +0.068 A 
ATOM     25  C   UNL     1       2.868   2.821  28.760  0.00  0.00    +0.120 A 
ATOM     27  H   UNL     1      -1.115   2.203  27.507  0.00  0.00    +0.157 HD
ENDBRANCH  14  16
ENDBRANCH   8  14
TORSDOF 7
ENDMDL
MODEL 10
REMARK VINA RESULT:      -1.4      2.521      3.649
REMARK  Name = 26742949
REMARK  8 active torsions:
REMARK  status: ('A' for Active; 'I' for Inactive)
REMARK    1  A    between atoms: C_8  and  C_14
REMARK    2  A    between atoms: C_9  and  C_12
REMARK    3  A    between atoms: C_12  and  C_15
REMARK    4  A    between atoms: C_14  and  C_16
REMARK    5  A    between atoms: C_18  and  C_19
REMARK    6  A    between atoms: C_19  and  C_20
REMARK    7  A    between atoms: C_20  and  C_22
REMARK    8  A    between atoms: C_22  and  C_23
REMARK                            x       y       z     vdW  Elec       q    Type
REMARK                         _______ _______ _______ _____ _____    ______ ____
ROOT
ATOM      4  N   UNL     1      -2.034  -1.070  26.830  0.00  0.00    -0.316 NA
ATOM      8  C   UNL     1      -2.441  -2.240  24.152  0.00  0.00    +0.004 C 
ATOM      9  C   UNL     1      -1.070  -1.709  24.632  0.00  0.00    +0.012 C 
ATOM     10  C   UNL     1      -3.288  -2.625  25.377  0.00  0.00    +0.019 C 
ATOM     11  C   UNL     1      -1.227  -0.612  25.698  0.00  0.00    +0.085 C 
ATOM     13  C   UNL     1      -3.365  -1.500  26.409  0.00  0.00    +0.081 C 
ATOM     26  H   UNL     1      -2.122  -0.315  27.509  0.00  0.00    +0.122 HD
ENDROOT
BRANCH   9  12
ATOM     12  C   UNL     1      -0.181  -1.223  23.487  0.00  0.00    +0.064 C 
BRANCH  12  15
ATOM      2  O   UNL     1       1.300   2.045  23.783  0.00  0.00    -0.359 OA
ATOM      5  N   UNL     1       1.384   0.662  23.680  0.00  0.00    -0.083 NA
ATOM     15  C   UNL     1       0.117   0.243  23.610  0.00  0.00    +0.084 A 
ATOM     17  C   UNL     1      -0.800   1.307  23.664  0.00  0.00    +0.071 A 
ATOM     18  C   UNL     1      -0.006   2.417  23.772  0.00  0.00    +0.138 A 
BRANCH  18  19
ATOM     19  C   UNL     1      -0.277   3.856  23.874  0.00  0.00    +0.077 C 
BRANCH  19  20
ATOM     20  C   UNL     1      -0.674   4.299  25.300  0.00  0.00    +0.007 C 
BRANCH  20  22
ATOM     22  C   UNL     1      -0.975   3.117  26.220  0.00  0.00    -0.003 C 
ATOM     23  C   UNL     1       0.279   2.631  26.930  0.00  0.00    +0.004 C 
ENDBRANCH  20  22
ENDBRANCH  19  20
ENDBRANCH  18  19
ENDBRANCH  12  15
ENDBRANCH   9  12
BRANCH   8  14
ATOM     14  C   UNL     1      -3.204  -1.266  23.246  0.00  0.00    +0.100 C 
BRANCH  14  16
ATOM      1  S   UNL     1      -3.989   3.439  24.645  0.00  0.00    -0.061 S 
ATOM      3  O   UNL     1      -5.291  -1.055  24.430  0.00  0.00    -0.275 OA
ATOM      6  N   UNL     1      -3.949   0.841  24.086  0.00  0.00    -0.265 N 
ATOM      7  N   UNL     1      -5.849   1.776  25.318  0.00  0.00    -0.233 NA
ATOM     16  C   UNL     1      -4.284  -0.507  23.993  0.00  0.00    +0.219 C 
ATOM     21  C   UNL     1      -4.691   1.875  24.705  0.00  0.00    +0.164 A 
ATOM     24  C   UNL     1      -5.338   4.052  25.507  0.00  0.00    +0.068 A 
ATOM     25  C   UNL     1      -6.218   3.025  25.777  0.00  0.00    +0.120 A 
ATOM     27  H   UNL     1      -3.073   1.154  23.673  0.00  0.00    +0.157 HD
ENDBRANCH  14  16
ENDBRANCH   8  14
TORSDOF 7
ENDMDL
