MODEL 1
REMARK VINA RESULT:      -5.2      0.000      0.000
REMARK  Name = 25390395
REMARK  14 active torsions:
REMARK  status: ('A' for Active; 'I' for Inactive)
REMARK    1  A    between atoms: O_2  and  C_10
REMARK    2  A    between atoms: O_3  and  C_11
REMARK    3  A    between atoms: N_6  and  C_15
REMARK    4  A    between atoms: N_7  and  C_18
REMARK    5  A    between atoms: N_8  and  C_20
REMARK    6  A    between atoms: N_9  and  C_19
REMARK    7  A    between atoms: N_9  and  C_23
REMARK    8  A    between atoms: N_9  and  C_24
REMARK    9  A    between atoms: C_12  and  C_14
REMARK   10  A    between atoms: C_13  and  C_15
REMARK   11  A    between atoms: C_14  and  C_16
REMARK   12  A    between atoms: C_18  and  C_19
REMARK   13  A    between atoms: C_20  and  C_21
REMARK   14  A    between atoms: C_20  and  C_22
REMARK                            x       y       z     vdW  Elec       q    Type
REMARK                         _______ _______ _______ _____ _____    ______ ____
ROOT
ATOM      1  O   UNL     1      -2.342   3.122  23.394  0.00  0.00    -0.366 OA
ATOM     10  C   UNL     1      -2.991   3.520  25.624  0.00  0.00    +0.175 C 
ATOM     11  C   UNL     1      -1.529   3.892  25.492  0.00  0.00    +0.176 C 
ATOM     12  C   UNL     1      -3.454   3.586  24.179  0.00  0.00    +0.158 C 
ATOM     13  C   UNL     1      -1.140   3.193  24.195  0.00  0.00    +0.167 C 
ENDROOT
BRANCH  10   2
ATOM      2  O   UNL     1      -3.719   4.400  26.454  0.00  0.00    -0.387 OA
ATOM     25  H   UNL     1      -3.349   4.328  27.351  0.00  0.00    +0.210 HD
ENDBRANCH  10   2
BRANCH  11   3
ATOM      3  O   UNL     1      -1.392   5.299  25.296  0.00  0.00    -0.387 OA
ATOM     26  H   UNL     1      -0.969   5.663  26.093  0.00  0.00    +0.210 HD
ENDBRANCH  11   3
BRANCH  12  14
ATOM     14  C   UNL     1      -4.673   2.724  23.897  0.00  0.00    +0.130 C 
BRANCH  14  16
ATOM      4  O   UNL     1      -5.519   1.639  25.886  0.00  0.00    -0.276 OA
ATOM      7  N   UNL     1      -4.058   0.482  24.499  0.00  0.00    -0.314 N 
ATOM     16  C   UNL     1      -4.816   1.578  24.882  0.00  0.00    +0.216 C 
ATOM     28  H   UNL     1      -3.514   0.529  23.643  0.00  0.00    +0.149 HD
BRANCH   7  18
ATOM     18  C   UNL     1      -4.009  -0.747  25.258  0.00  0.00    +0.119 C 
BRANCH  18  19
ATOM     19  C   UNL     1      -2.628  -0.969  25.858  0.00  0.00    +0.102 C 
BRANCH  19   9
ATOM      9  N   UNL     1      -1.720  -1.506  24.853  0.00  0.00    -0.307 NA
ATOM     23  C   UNL     1      -2.274  -2.720  24.251  0.00  0.00    +0.104 C 
ATOM     24  C   UNL     1      -0.407  -1.784  25.438  0.00  0.00    +0.104 C 
ENDBRANCH  19   9
ENDBRANCH  18  19
ENDBRANCH   7  18
ENDBRANCH  14  16
ENDBRANCH  12  14
BRANCH  13  15
ATOM     15  C   UNL     1      -0.639   1.771  24.410  0.00  0.00    +0.140 C 
BRANCH  15   6
ATOM      5  O   UNL     1       0.931  -0.120  22.898  0.00  0.00    -0.253 OA
ATOM      6  N   UNL     1       0.829   1.741  24.277  0.00  0.00    -0.297 N 
ATOM      8  N   UNL     1       2.853   0.991  23.571  0.00  0.00    -0.297 N 
ATOM     17  C   UNL     1       1.477   0.787  23.526  0.00  0.00    +0.300 C 
ATOM     27  H   UNL     1       1.371   2.457  24.751  0.00  0.00    +0.150 HD
ATOM     29  H   UNL     1       3.205   1.813  24.053  0.00  0.00    +0.150 HD
BRANCH   8  20
ATOM     20  C   UNL     1       3.794   0.144  22.876  0.00  0.00    +0.068 C 
ATOM     21  C   UNL     1       5.188   0.303  23.469  0.00  0.00    +0.027 C 
ATOM     22  C   UNL     1       3.790   0.453  21.384  0.00  0.00    +0.027 C 
ENDBRANCH   8  20
ENDBRANCH  15   6
ENDBRANCH  13  15
TORSDOF 10
ENDMDL
MODEL 2
REMARK VINA RESULT:      -5.1      1.933      4.093
REMARK  Name = 25390395
REMARK  14 active torsions:
REMARK  status: ('A' for Active; 'I' for Inactive)
REMARK    1  A    between atoms: O_2  and  C_10
REMARK    2  A    between atoms: O_3  and  C_11
REMARK    3  A    between atoms: N_6  and  C_15
REMARK    4  A    between atoms: N_7  and  C_18
REMARK    5  A    between atoms: N_8  and  C_20
REMARK    6  A    between atoms: N_9  and  C_19
REMARK    7  A    between atoms: N_9  and  C_23
REMARK    8  A    between atoms: N_9  and  C_24
REMARK    9  A    between atoms: C_12  and  C_14
REMARK   10  A    between atoms: C_13  and  C_15
REMARK   11  A    between atoms: C_14  and  C_16
REMARK   12  A    between atoms: C_18  and  C_19
REMARK   13  A    between atoms: C_20  and  C_21
REMARK   14  A    between atoms: C_20  and  C_22
REMARK                            x       y       z     vdW  Elec       q    Type
REMARK                         _______ _______ _______ _____ _____    ______ ____
ROOT
ATOM      1  O   UNL     1      -2.861   0.433  25.277  0.00  0.00    -0.366 OA
ATOM     10  C   UNL     1      -3.575  -1.300  23.848  0.00  0.00    +0.175 C 
ATOM     11  C   UNL     1      -2.126  -1.559  24.205  0.00  0.00    +0.176 C 
ATOM     12  C   UNL     1      -4.008  -0.382  24.978  0.00  0.00    +0.158 C 
ATOM     13  C   UNL     1      -1.681  -0.199  24.729  0.00  0.00    +0.167 C 
ENDROOT
BRANCH  10   2
ATOM      2  O   UNL     1      -4.356  -2.475  23.791  0.00  0.00    -0.387 OA
ATOM     25  H   UNL     1      -5.289  -2.204  23.774  0.00  0.00    +0.210 HD
ENDBRANCH  10   2
BRANCH  11   3
ATOM      3  O   UNL     1      -2.040  -2.497  25.277  0.00  0.00    -0.387 OA
ATOM     26  H   UNL     1      -1.116  -2.794  25.329  0.00  0.00    +0.210 HD
ENDBRANCH  11   3
BRANCH  12  14
ATOM     14  C   UNL     1      -5.185   0.507  24.614  0.00  0.00    +0.130 C 
BRANCH  14  16
ATOM      4  O   UNL     1      -5.648   2.296  26.174  0.00  0.00    -0.276 OA
ATOM      7  N   UNL     1      -4.181   2.680  24.413  0.00  0.00    -0.314 N 
ATOM     16  C   UNL     1      -5.049   1.911  25.174  0.00  0.00    +0.216 C 
ATOM     28  H   UNL     1      -3.728   2.264  23.605  0.00  0.00    +0.149 HD
BRANCH   7  18
ATOM     18  C   UNL     1      -3.871   4.057  24.721  0.00  0.00    +0.119 C 
BRANCH  18  19
ATOM     19  C   UNL     1      -2.820   4.154  25.818  0.00  0.00    +0.102 C 
BRANCH  19   9
ATOM      9  N   UNL     1      -1.511   3.777  25.299  0.00  0.00    -0.307 NA
ATOM     23  C   UNL     1      -0.751   3.033  26.305  0.00  0.00    +0.104 C 
ATOM     24  C   UNL     1      -0.764   4.962  24.872  0.00  0.00    +0.104 C 
ENDBRANCH  19   9
ENDBRANCH  18  19
ENDBRANCH   7  18
ENDBRANCH  14  16
ENDBRANCH  12  14
BRANCH  13  15
ATOM     15  C   UNL     1      -1.129   0.709  23.639  0.00  0.00    +0.140 C 
BRANCH  15   6
ATOM      5  O   UNL     1       1.018  -0.666  22.288  0.00  0.00    -0.253 OA
ATOM      6  N   UNL     1       0.318   0.903  23.844  0.00  0.00    -0.297 N 
ATOM      8  N   UNL     1       2.542   0.568  23.528  0.00  0.00    -0.297 N 
ATOM     17  C   UNL     1       1.260   0.188  23.140  0.00  0.00    +0.300 C 
ATOM     27  H   UNL     1       0.620   1.596  24.522  0.00  0.00    +0.150 HD
ATOM     29  H   UNL     1       2.641   1.336  24.185  0.00  0.00    +0.150 HD
BRANCH   8  20
ATOM     20  C   UNL     1       3.736  -0.012  22.961  0.00  0.00    +0.068 C 
ATOM     21  C   UNL     1       4.046  -1.345  23.629  0.00  0.00    +0.027 C 
ATOM     22  C   UNL     1       4.909   0.952  23.082  0.00  0.00    +0.027 C 
ENDBRANCH   8  20
ENDBRANCH  15   6
ENDBRANCH  13  15
TORSDOF 10
ENDMDL
MODEL 3
REMARK VINA RESULT:      -4.3      1.424      5.570
REMARK  Name = 25390395
REMARK  14 active torsions:
REMARK  status: ('A' for Active; 'I' for Inactive)
REMARK    1  A    between atoms: O_2  and  C_10
REMARK    2  A    between atoms: O_3  and  C_11
REMARK    3  A    between atoms: N_6  and  C_15
REMARK    4  A    between atoms: N_7  and  C_18
REMARK    5  A    between atoms: N_8  and  C_20
REMARK    6  A    between atoms: N_9  and  C_19
REMARK    7  A    between atoms: N_9  and  C_23
REMARK    8  A    between atoms: N_9  and  C_24
REMARK    9  A    between atoms: C_12  and  C_14
REMARK   10  A    between atoms: C_13  and  C_15
REMARK   11  A    between atoms: C_14  and  C_16
REMARK   12  A    between atoms: C_18  and  C_19
REMARK   13  A    between atoms: C_20  and  C_21
REMARK   14  A    between atoms: C_20  and  C_22
REMARK                            x       y       z     vdW  Elec       q    Type
REMARK                         _______ _______ _______ _____ _____    ______ ____
ROOT
ATOM      1  O   UNL     1      -2.348   3.046  26.132  0.00  0.00    -0.366 OA
ATOM     10  C   UNL     1      -1.000   3.472  24.246  0.00  0.00    +0.175 C 
ATOM     11  C   UNL     1      -1.957   4.634  24.405  0.00  0.00    +0.176 C 
ATOM     12  C   UNL     1      -1.005   2.879  25.645  0.00  0.00    +0.158 C 
ATOM     13  C   UNL     1      -3.016   4.048  25.332  0.00  0.00    +0.167 C 
ENDROOT
BRANCH  10   2
ATOM      2  O   UNL     1       0.295   3.864  23.842  0.00  0.00    -0.387 OA
ATOM     25  H   UNL     1       0.193   4.593  23.206  0.00  0.00    +0.210 HD
ENDBRANCH  10   2
BRANCH  11   3
ATOM      3  O   UNL     1      -1.318   5.712  25.088  0.00  0.00    -0.387 OA
ATOM     26  H   UNL     1      -1.903   6.486  25.021  0.00  0.00    +0.210 HD
ENDBRANCH  11   3
BRANCH  12  14
ATOM     14  C   UNL     1      -0.629   1.408  25.677  0.00  0.00    +0.130 C 
BRANCH  14  16
ATOM      4  O   UNL     1      -1.001   0.472  23.478  0.00  0.00    -0.276 OA
ATOM      7  N   UNL     1       1.172   0.933  24.160  0.00  0.00    -0.314 N 
ATOM     16  C   UNL     1      -0.205   0.885  24.317  0.00  0.00    +0.216 C 
ATOM     28  H   UNL     1       1.745   1.301  24.914  0.00  0.00    +0.149 HD
BRANCH   7  18
ATOM     18  C   UNL     1       1.845   0.494  22.959  0.00  0.00    +0.119 C 
BRANCH  18  19
ATOM     19  C   UNL     1       3.244   1.086  22.864  0.00  0.00    +0.102 C 
BRANCH  19   9
ATOM      9  N   UNL     1       4.246   0.028  22.911  0.00  0.00    -0.307 NA
ATOM     23  C   UNL     1       3.700  -1.172  23.548  0.00  0.00    +0.104 C 
ATOM     24  C   UNL     1       5.442   0.481  23.623  0.00  0.00    +0.104 C 
ENDBRANCH  19   9
ENDBRANCH  18  19
ENDBRANCH   7  18
ENDBRANCH  14  16
ENDBRANCH  12  14
BRANCH  13  15
ATOM     15  C   UNL     1      -4.152   3.365  24.584  0.00  0.00    +0.140 C 
BRANCH  15   6
ATOM      5  O   UNL     1      -5.074   0.862  25.685  0.00  0.00    -0.253 OA
ATOM      6  N   UNL     1      -3.733   2.010  24.182  0.00  0.00    -0.297 N 
ATOM      8  N   UNL     1      -3.677  -0.261  24.211  0.00  0.00    -0.297 N 
ATOM     17  C   UNL     1      -4.241   0.879  24.779  0.00  0.00    +0.300 C 
ATOM     27  H   UNL     1      -3.054   1.918  23.433  0.00  0.00    +0.150 HD
ATOM     29  H   UNL     1      -3.056  -0.148  23.416  0.00  0.00    +0.150 HD
BRANCH   8  20
ATOM     20  C   UNL     1      -4.019  -1.598  24.635  0.00  0.00    +0.068 C 
ATOM     21  C   UNL     1      -2.871  -2.212  25.426  0.00  0.00    +0.027 C 
ATOM     22  C   UNL     1      -4.386  -2.462  23.435  0.00  0.00    +0.027 C 
ENDBRANCH   8  20
ENDBRANCH  15   6
ENDBRANCH  13  15
TORSDOF 10
ENDMDL
MODEL 4
REMARK VINA RESULT:      -3.8      2.057      6.047
REMARK  Name = 25390395
REMARK  14 active torsions:
REMARK  status: ('A' for Active; 'I' for Inactive)
REMARK    1  A    between atoms: O_2  and  C_10
REMARK    2  A    between atoms: O_3  and  C_11
REMARK    3  A    between atoms: N_6  and  C_15
REMARK    4  A    between atoms: N_7  and  C_18
REMARK    5  A    between atoms: N_8  and  C_20
REMARK    6  A    between atoms: N_9  and  C_19
REMARK    7  A    between atoms: N_9  and  C_23
REMARK    8  A    between atoms: N_9  and  C_24
REMARK    9  A    between atoms: C_12  and  C_14
REMARK   10  A    between atoms: C_13  and  C_15
REMARK   11  A    between atoms: C_14  and  C_16
REMARK   12  A    between atoms: C_18  and  C_19
REMARK   13  A    between atoms: C_20  and  C_21
REMARK   14  A    between atoms: C_20  and  C_22
REMARK                            x       y       z     vdW  Elec       q    Type
REMARK                         _______ _______ _______ _____ _____    ______ ____
ROOT
ATOM      1  O   UNL     1      -3.252  -0.045  23.537  0.00  0.00    -0.366 OA
ATOM     10  C   UNL     1      -2.166  -0.334  25.609  0.00  0.00    +0.175 C 
ATOM     11  C   UNL     1      -3.591  -0.824  25.758  0.00  0.00    +0.176 C 
ATOM     12  C   UNL     1      -1.978  -0.399  24.103  0.00  0.00    +0.158 C 
ATOM     13  C   UNL     1      -4.273  -0.191  24.551  0.00  0.00    +0.167 C 
ENDROOT
BRANCH  10   2
ATOM      2  O   UNL     1      -1.225  -1.133  26.295  0.00  0.00    -0.387 OA
ATOM     25  H   UNL     1      -1.095  -0.738  27.175  0.00  0.00    +0.210 HD
ENDBRANCH  10   2
BRANCH  11   3
ATOM      3  O   UNL     1      -3.646  -2.242  25.605  0.00  0.00    -0.387 OA
ATOM     26  H   UNL     1      -4.421  -2.558  26.101  0.00  0.00    +0.210 HD
ENDBRANCH  11   3
BRANCH  12  14
ATOM     14  C   UNL     1      -0.909   0.549  23.588  0.00  0.00    +0.130 C 
BRANCH  14  16
ATOM      4  O   UNL     1       0.810  -1.056  24.152  0.00  0.00    -0.276 OA
ATOM      7  N   UNL     1       1.194   0.458  22.431  0.00  0.00    -0.314 N 
ATOM     16  C   UNL     1       0.444  -0.121  23.445  0.00  0.00    +0.216 C 
ATOM     28  H   UNL     1       0.797   1.225  21.897  0.00  0.00    +0.149 HD
BRANCH   7  18
ATOM     18  C   UNL     1       2.524   0.014  22.082  0.00  0.00    +0.119 C 
BRANCH  18  19
ATOM     19  C   UNL     1       3.580   0.733  22.910  0.00  0.00    +0.102 C 
BRANCH  19   9
ATOM      9  N   UNL     1       4.722  -0.141  23.143  0.00  0.00    -0.307 NA
ATOM     23  C   UNL     1       4.293  -1.399  23.759  0.00  0.00    +0.104 C 
ATOM     24  C   UNL     1       5.718   0.523  23.986  0.00  0.00    +0.104 C 
ENDBRANCH  19   9
ENDBRANCH  18  19
ENDBRANCH   7  18
ENDBRANCH  14  16
ENDBRANCH  12  14
BRANCH  13  15
ATOM     15  C   UNL     1      -4.840   1.192  24.843  0.00  0.00    +0.140 C 
BRANCH  15   6
ATOM      5  O   UNL     1      -3.155   3.251  23.727  0.00  0.00    -0.253 OA
ATOM      6  N   UNL     1      -3.831   1.997  25.556  0.00  0.00    -0.297 N 
ATOM      8  N   UNL     1      -2.210   3.565  25.823  0.00  0.00    -0.297 N 
ATOM     17  C   UNL     1      -3.079   2.959  24.920  0.00  0.00    +0.300 C 
ATOM     27  H   UNL     1      -3.701   1.837  26.550  0.00  0.00    +0.150 HD
ATOM     29  H   UNL     1      -2.275   3.309  26.803  0.00  0.00    +0.150 HD
BRANCH   8  20
ATOM     20  C   UNL     1      -1.294   4.615  25.443  0.00  0.00    +0.068 C 
ATOM     21  C   UNL     1      -2.062   5.851  24.995  0.00  0.00    +0.027 C 
ATOM     22  C   UNL     1      -0.346   4.129  24.354  0.00  0.00    +0.027 C 
ENDBRANCH   8  20
ENDBRANCH  15   6
ENDBRANCH  13  15
TORSDOF 10
ENDMDL
MODEL 5
REMARK VINA RESULT:      -3.5      2.034      6.857
REMARK  Name = 25390395
REMARK  14 active torsions:
REMARK  status: ('A' for Active; 'I' for Inactive)
REMARK    1  A    between atoms: O_2  and  C_10
REMARK    2  A    between atoms: O_3  and  C_11
REMARK    3  A    between atoms: N_6  and  C_15
REMARK    4  A    between atoms: N_7  and  C_18
REMARK    5  A    between atoms: N_8  and  C_20
REMARK    6  A    between atoms: N_9  and  C_19
REMARK    7  A    between atoms: N_9  and  C_23
REMARK    8  A    between atoms: N_9  and  C_24
REMARK    9  A    between atoms: C_12  and  C_14
REMARK   10  A    between atoms: C_13  and  C_15
REMARK   11  A    between atoms: C_14  and  C_16
REMARK   12  A    between atoms: C_18  and  C_19
REMARK   13  A    between atoms: C_20  and  C_21
REMARK   14  A    between atoms: C_20  and  C_22
REMARK                            x       y       z     vdW  Elec       q    Type
REMARK                         _______ _______ _______ _____ _____    ______ ____
ROOT
ATOM      1  O   UNL     1      -0.931  -1.442  23.954  0.00  0.00    -0.366 OA
ATOM     10  C   UNL     1      -0.989   0.457  25.350  0.00  0.00    +0.175 C 
ATOM     11  C   UNL     1      -1.631  -0.692  26.100  0.00  0.00    +0.176 C 
ATOM     12  C   UNL     1      -0.160  -0.282  24.313  0.00  0.00    +0.158 C 
ATOM     13  C   UNL     1      -1.926  -1.679  24.977  0.00  0.00    +0.167 C 
ENDROOT
BRANCH  10   2
ATOM      2  O   UNL     1      -0.194   1.286  26.170  0.00  0.00    -0.387 OA
ATOM     25  H   UNL     1       0.668   1.389  25.732  0.00  0.00    +0.210 HD
ENDBRANCH  10   2
BRANCH  11   3
ATOM      3  O   UNL     1      -0.686  -1.295  26.984  0.00  0.00    -0.387 OA
ATOM     26  H   UNL     1       0.174  -1.300  26.530  0.00  0.00    +0.210 HD
ENDBRANCH  11   3
BRANCH  12  14
ATOM     14  C   UNL     1       0.127   0.544  23.071  0.00  0.00    +0.130 C 
BRANCH  14  16
ATOM      4  O   UNL     1       1.519  -0.633  21.481  0.00  0.00    -0.276 OA
ATOM      7  N   UNL     1       2.511   0.827  22.992  0.00  0.00    -0.314 N 
ATOM     16  C   UNL     1       1.440   0.165  22.411  0.00  0.00    +0.216 C 
ATOM     28  H   UNL     1       2.339   1.477  23.754  0.00  0.00    +0.149 HD
BRANCH   7  18
ATOM     18  C   UNL     1       3.878   0.650  22.557  0.00  0.00    +0.119 C 
BRANCH  18  19
ATOM     19  C   UNL     1       4.852   0.832  23.713  0.00  0.00    +0.102 C 
BRANCH  19   9
ATOM      9  N   UNL     1       5.578  -0.406  23.963  0.00  0.00    -0.307 NA
ATOM     23  C   UNL     1       6.664  -0.573  22.994  0.00  0.00    +0.104 C 
ATOM     24  C   UNL     1       4.673  -1.555  23.913  0.00  0.00    +0.104 C 
ENDBRANCH  19   9
ENDBRANCH  18  19
ENDBRANCH   7  18
ENDBRANCH  14  16
ENDBRANCH  12  14
BRANCH  13  15
ATOM     15  C   UNL     1      -3.298  -1.475  24.349  0.00  0.00    +0.140 C 
BRANCH  15   6
ATOM      5  O   UNL     1      -3.397   1.189  23.243  0.00  0.00    -0.253 OA
ATOM      6  N   UNL     1      -3.941  -0.289  24.944  0.00  0.00    -0.297 N 
ATOM      8  N   UNL     1      -4.605   1.877  25.101  0.00  0.00    -0.297 N 
ATOM     17  C   UNL     1      -3.927   0.940  24.325  0.00  0.00    +0.300 C 
ATOM     27  H   UNL     1      -4.415  -0.395  25.835  0.00  0.00    +0.150 HD
ATOM     29  H   UNL     1      -5.075   1.559  25.942  0.00  0.00    +0.150 HD
BRANCH   8  20
ATOM     20  C   UNL     1      -4.755   3.258  24.706  0.00  0.00    +0.068 C 
ATOM     21  C   UNL     1      -3.407   3.967  24.738  0.00  0.00    +0.027 C 
ATOM     22  C   UNL     1      -5.770   3.962  25.598  0.00  0.00    +0.027 C 
ENDBRANCH   8  20
ENDBRANCH  15   6
ENDBRANCH  13  15
TORSDOF 10
ENDMDL
MODEL 6
REMARK VINA RESULT:      -2.5      2.021      3.668
REMARK  Name = 25390395
REMARK  14 active torsions:
REMARK  status: ('A' for Active; 'I' for Inactive)
REMARK    1  A    between atoms: O_2  and  C_10
REMARK    2  A    between atoms: O_3  and  C_11
REMARK    3  A    between atoms: N_6  and  C_15
REMARK    4  A    between atoms: N_7  and  C_18
REMARK    5  A    between atoms: N_8  and  C_20
REMARK    6  A    between atoms: N_9  and  C_19
REMARK    7  A    between atoms: N_9  and  C_23
REMARK    8  A    between atoms: N_9  and  C_24
REMARK    9  A    between atoms: C_12  and  C_14
REMARK   10  A    between atoms: C_13  and  C_15
REMARK   11  A    between atoms: C_14  and  C_16
REMARK   12  A    between atoms: C_18  and  C_19
REMARK   13  A    between atoms: C_20  and  C_21
REMARK   14  A    between atoms: C_20  and  C_22
REMARK                            x       y       z     vdW  Elec       q    Type
REMARK                         _______ _______ _______ _____ _____    ______ ____
ROOT
ATOM      1  O   UNL     1      -1.930   1.088  24.213  0.00  0.00    -0.366 OA
ATOM     10  C   UNL     1      -0.632  -0.147  25.745  0.00  0.00    +0.175 C 
ATOM     11  C   UNL     1      -0.036   1.241  25.644  0.00  0.00    +0.176 C 
ATOM     12  C   UNL     1      -2.046   0.091  25.244  0.00  0.00    +0.158 C 
ATOM     13  C   UNL     1      -0.657   1.759  24.352  0.00  0.00    +0.167 C 
ENDROOT
BRANCH  10   2
ATOM      2  O   UNL     1      -0.616  -0.669  27.057  0.00  0.00    -0.387 OA
ATOM     25  H   UNL     1      -0.109  -1.499  27.034  0.00  0.00    +0.210 HD
ENDBRANCH  10   2
BRANCH  11   3
ATOM      3  O   UNL     1      -0.501   2.058  26.718  0.00  0.00    -0.387 OA
ATOM     26  H   UNL     1       0.247   2.610  27.006  0.00  0.00    +0.210 HD
ENDBRANCH  11   3
BRANCH  12  14
ATOM     14  C   UNL     1      -2.702  -1.156  24.677  0.00  0.00    +0.130 C 
BRANCH  14  16
ATOM      4  O   UNL     1      -4.850  -1.767  23.748  0.00  0.00    -0.276 OA
ATOM      7  N   UNL     1      -4.635   0.257  24.870  0.00  0.00    -0.314 N 
ATOM     16  C   UNL     1      -4.174  -0.952  24.369  0.00  0.00    +0.216 C 
ATOM     28  H   UNL     1      -3.995   0.860  25.378  0.00  0.00    +0.149 HD
BRANCH   7  18
ATOM     18  C   UNL     1      -6.000   0.705  24.717  0.00  0.00    +0.119 C 
BRANCH  18  19
ATOM     19  C   UNL     1      -6.091   2.223  24.768  0.00  0.00    +0.102 C 
BRANCH  19   9
ATOM      9  N   UNL     1      -4.763   2.805  24.921  0.00  0.00    -0.307 NA
ATOM     23  C   UNL     1      -4.749   3.781  26.012  0.00  0.00    +0.104 C 
ATOM     24  C   UNL     1      -4.328   3.433  23.673  0.00  0.00    +0.104 C 
ENDBRANCH  19   9
ENDBRANCH  18  19
ENDBRANCH   7  18
ENDBRANCH  14  16
ENDBRANCH  12  14
BRANCH  13  15
ATOM     15  C   UNL     1       0.176   1.438  23.119  0.00  0.00    +0.140 C 
BRANCH  15   6
ATOM      5  O   UNL     1       2.203  -0.472  22.361  0.00  0.00    -0.253 OA
ATOM      6  N   UNL     1       1.608   1.476  23.468  0.00  0.00    -0.297 N 
ATOM      8  N   UNL     1       3.772   0.787  23.518  0.00  0.00    -0.297 N 
ATOM     17  C   UNL     1       2.490   0.506  23.050  0.00  0.00    +0.300 C 
ATOM     27  H   UNL     1       1.947   2.253  24.028  0.00  0.00    +0.150 HD
ATOM     29  H   UNL     1       3.925   1.658  24.015  0.00  0.00    +0.150 HD
BRANCH   8  20
ATOM     20  C   UNL     1       4.909  -0.057  23.238  0.00  0.00    +0.068 C 
ATOM     21  C   UNL     1       4.694  -1.447  23.823  0.00  0.00    +0.027 C 
ATOM     22  C   UNL     1       6.188   0.574  23.773  0.00  0.00    +0.027 C 
ENDBRANCH   8  20
ENDBRANCH  15   6
ENDBRANCH  13  15
TORSDOF 10
ENDMDL
MODEL 7
REMARK VINA RESULT:      -1.6      2.191      5.934
REMARK  Name = 25390395
REMARK  14 active torsions:
REMARK  status: ('A' for Active; 'I' for Inactive)
REMARK    1  A    between atoms: O_2  and  C_10
REMARK    2  A    between atoms: O_3  and  C_11
REMARK    3  A    between atoms: N_6  and  C_15
REMARK    4  A    between atoms: N_7  and  C_18
REMARK    5  A    between atoms: N_8  and  C_20
REMARK    6  A    between atoms: N_9  and  C_19
REMARK    7  A    between atoms: N_9  and  C_23
REMARK    8  A    between atoms: N_9  and  C_24
REMARK    9  A    between atoms: C_12  and  C_14
REMARK   10  A    between atoms: C_13  and  C_15
REMARK   11  A    between atoms: C_14  and  C_16
REMARK   12  A    between atoms: C_18  and  C_19
REMARK   13  A    between atoms: C_20  and  C_21
REMARK   14  A    between atoms: C_20  and  C_22
REMARK                            x       y       z     vdW  Elec       q    Type
REMARK                         _______ _______ _______ _____ _____    ______ ____
ROOT
ATOM      1  O   UNL     1       0.248   0.384  23.149  0.00  0.00    -0.366 OA
ATOM     10  C   UNL     1       2.473   1.123  23.399  0.00  0.00    +0.175 C 
ATOM     11  C   UNL     1       2.501  -0.197  22.657  0.00  0.00    +0.176 C 
ATOM     12  C   UNL     1       1.046   1.581  23.150  0.00  0.00    +0.158 C 
ATOM     13  C   UNL     1       1.115  -0.757  22.951  0.00  0.00    +0.167 C 
ENDROOT
BRANCH  10   2
ATOM      2  O   UNL     1       3.419   2.054  22.920  0.00  0.00    -0.387 OA
ATOM     25  H   UNL     1       3.982   1.593  22.275  0.00  0.00    +0.210 HD
ENDBRANCH  10   2
BRANCH  11   3
ATOM      3  O   UNL     1       2.600   0.028  21.250  0.00  0.00    -0.387 OA
ATOM     26  H   UNL     1       3.539  -0.046  21.010  0.00  0.00    +0.210 HD
ENDBRANCH  11   3
BRANCH  12  14
ATOM     14  C   UNL     1       0.528   2.539  24.209  0.00  0.00    +0.130 C 
BRANCH  14  16
ATOM      4  O   UNL     1      -1.273   1.882  25.684  0.00  0.00    -0.276 OA
ATOM      7  N   UNL     1      -1.769   2.527  23.507  0.00  0.00    -0.314 N 
ATOM     16  C   UNL     1      -0.921   2.274  24.575  0.00  0.00    +0.216 C 
ATOM     28  H   UNL     1      -1.378   2.858  22.630  0.00  0.00    +0.149 HD
BRANCH   7  18
ATOM     18  C   UNL     1      -3.202   2.355  23.581  0.00  0.00    +0.119 C 
BRANCH  18  19
ATOM     19  C   UNL     1      -3.878   3.599  24.141  0.00  0.00    +0.102 C 
BRANCH  19   9
ATOM      9  N   UNL     1      -4.249   3.389  25.535  0.00  0.00    -0.307 NA
ATOM     23  C   UNL     1      -5.688   3.585  25.722  0.00  0.00    +0.104 C 
ATOM     24  C   UNL     1      -3.496   4.289  26.411  0.00  0.00    +0.104 C 
ENDBRANCH  19   9
ENDBRANCH  18  19
ENDBRANCH   7  18
ENDBRANCH  14  16
ENDBRANCH  12  14
BRANCH  13  15
ATOM     15  C   UNL     1       1.068  -1.602  24.216  0.00  0.00    +0.140 C 
BRANCH  15   6
ATOM      5  O   UNL     1      -1.688  -2.398  23.904  0.00  0.00    -0.253 OA
ATOM      6  N   UNL     1      -0.076  -1.184  25.046  0.00  0.00    -0.297 N 
ATOM      8  N   UNL     1      -2.239  -1.082  25.734  0.00  0.00    -0.297 N 
ATOM     17  C   UNL     1      -1.357  -1.628  24.805  0.00  0.00    +0.300 C 
ATOM     27  H   UNL     1       0.097  -0.556  25.824  0.00  0.00    +0.150 HD
ATOM     29  H   UNL     1      -1.859  -0.518  26.488  0.00  0.00    +0.150 HD
BRANCH   8  20
ATOM     20  C   UNL     1      -3.654  -1.368  25.731  0.00  0.00    +0.068 C 
ATOM     21  C   UNL     1      -3.960  -2.520  24.783  0.00  0.00    +0.027 C 
ATOM     22  C   UNL     1      -4.450  -0.123  25.361  0.00  0.00    +0.027 C 
ENDBRANCH   8  20
ENDBRANCH  15   6
ENDBRANCH  13  15
TORSDOF 10
ENDMDL
MODEL 8
REMARK VINA RESULT:      -1.4      2.160      3.634
REMARK  Name = 25390395
REMARK  14 active torsions:
REMARK  status: ('A' for Active; 'I' for Inactive)
REMARK    1  A    between atoms: O_2  and  C_10
REMARK    2  A    between atoms: O_3  and  C_11
REMARK    3  A    between atoms: N_6  and  C_15
REMARK    4  A    between atoms: N_7  and  C_18
REMARK    5  A    between atoms: N_8  and  C_20
REMARK    6  A    between atoms: N_9  and  C_19
REMARK    7  A    between atoms: N_9  and  C_23
REMARK    8  A    between atoms: N_9  and  C_24
REMARK    9  A    between atoms: C_12  and  C_14
REMARK   10  A    between atoms: C_13  and  C_15
REMARK   11  A    between atoms: C_14  and  C_16
REMARK   12  A    between atoms: C_18  and  C_19
REMARK   13  A    between atoms: C_20  and  C_21
REMARK   14  A    between atoms: C_20  and  C_22
REMARK                            x       y       z     vdW  Elec       q    Type
REMARK                         _______ _______ _______ _____ _____    ______ ____
ROOT
ATOM      1  O   UNL     1      -1.532   0.725  23.258  0.00  0.00    -0.366 OA
ATOM     10  C   UNL     1      -0.410   0.765  25.331  0.00  0.00    +0.175 C 
ATOM     11  C   UNL     1       0.420   1.550  24.337  0.00  0.00    +0.176 C 
ATOM     12  C   UNL     1      -1.779   0.793  24.674  0.00  0.00    +0.158 C 
ATOM     13  C   UNL     1      -0.155   1.084  23.004  0.00  0.00    +0.167 C 
ENDROOT
BRANCH  10   2
ATOM      2  O   UNL     1      -0.429   1.338  26.621  0.00  0.00    -0.387 OA
ATOM     25  H   UNL     1       0.124   2.138  26.592  0.00  0.00    +0.210 HD
ENDBRANCH  10   2
BRANCH  11   3
ATOM      3  O   UNL     1       0.158   2.947  24.468  0.00  0.00    -0.387 OA
ATOM     26  H   UNL     1      -0.797   3.077  24.339  0.00  0.00    +0.210 HD
ENDBRANCH  11   3
BRANCH  12  14
ATOM     14  C   UNL     1      -2.672  -0.361  25.093  0.00  0.00    +0.130 C 
BRANCH  14  16
ATOM      4  O   UNL     1      -4.922  -0.888  24.376  0.00  0.00    -0.276 OA
ATOM      7  N   UNL     1      -4.479   1.212  25.267  0.00  0.00    -0.314 N 
ATOM     16  C   UNL     1      -4.144  -0.072  24.863  0.00  0.00    +0.216 C 
ATOM     28  H   UNL     1      -3.762   1.809  25.667  0.00  0.00    +0.149 HD
BRANCH   7  18
ATOM     18  C   UNL     1      -5.816   1.749  25.159  0.00  0.00    +0.119 C 
BRANCH  18  19
ATOM     19  C   UNL     1      -5.871   3.192  25.642  0.00  0.00    +0.102 C 
BRANCH  19   9
ATOM      9  N   UNL     1      -4.721   3.936  25.144  0.00  0.00    -0.307 NA
ATOM     23  C   UNL     1      -4.337   3.463  23.812  0.00  0.00    +0.104 C 
ATOM     24  C   UNL     1      -3.592   3.821  26.068  0.00  0.00    +0.104 C 
ENDBRANCH  19   9
ENDBRANCH  18  19
ENDBRANCH   7  18
ENDBRANCH  14  16
ENDBRANCH  12  14
BRANCH  13  15
ATOM     15  C   UNL     1       0.551  -0.144  22.447  0.00  0.00    +0.140 C 
BRANCH  15   6
ATOM      5  O   UNL     1       3.239   0.495  21.615  0.00  0.00    -0.253 OA
ATOM      6  N   UNL     1       1.795  -0.382  23.202  0.00  0.00    -0.297 N 
ATOM      8  N   UNL     1       4.028  -0.368  23.619  0.00  0.00    -0.297 N 
ATOM     17  C   UNL     1       3.031  -0.035  22.706  0.00  0.00    +0.300 C 
ATOM     27  H   UNL     1       1.728  -0.807  24.122  0.00  0.00    +0.150 HD
ATOM     29  H   UNL     1       3.752  -0.731  24.525  0.00  0.00    +0.150 HD
BRANCH   8  20
ATOM     20  C   UNL     1       5.430  -0.122  23.372  0.00  0.00    +0.068 C 
ATOM     21  C   UNL     1       6.242  -1.383  23.633  0.00  0.00    +0.027 C 
ATOM     22  C   UNL     1       5.926   1.040  24.223  0.00  0.00    +0.027 C 
ENDBRANCH   8  20
ENDBRANCH  15   6
ENDBRANCH  13  15
TORSDOF 10
ENDMDL
