MODEL 1
REMARK VINA RESULT:       7.1      0.000      0.000
REMARK  Name = 40780092
REMARK  7 active torsions:
REMARK  status: ('A' for Active; 'I' for Inactive)
REMARK    1  A    between atoms: N_3  and  C_24
REMARK    2  A    between atoms: N_4  and  C_16
REMARK    3  A    between atoms: N_6  and  C_27
REMARK    4  A    between atoms: C_9  and  C_15
REMARK    5  A    between atoms: C_10  and  C_16
REMARK    6  A    between atoms: C_18  and  C_19
REMARK    7  A    between atoms: C_30  and  C_33
REMARK                            x       y       z     vdW  Elec       q    Type
REMARK                         _______ _______ _______ _____ _____    ______ ____
ROOT
ATOM      2  N   UNL     1      -3.963   1.970  25.392  0.00  0.00    -0.297 NA
ATOM      8  C   UNL     1      -3.621   0.331  23.397  0.00  0.00    +0.002 C 
ATOM      9  C   UNL     1      -2.708  -0.066  24.589  0.00  0.00    +0.055 C 
ATOM     10  C   UNL     1      -3.732   2.736  24.139  0.00  0.00    +0.074 C 
ATOM     11  C   UNL     1      -3.324   1.790  22.990  0.00  0.00    +0.024 C 
ATOM     12  C   UNL     1      -2.817   1.064  25.653  0.00  0.00    +0.094 C 
ATOM     13  C   UNL     1      -5.074   0.294  23.918  0.00  0.00    +0.019 C 
ATOM     14  C   UNL     1      -5.176   1.139  25.199  0.00  0.00    +0.085 C 
ENDROOT
BRANCH   9  15
ATOM      3  N   UNL     1      -0.718  -1.641  24.652  0.00  0.00    -0.271 N 
ATOM      5  N   UNL     1       0.572  -1.778  24.300  0.00  0.00    -0.176 NA
ATOM     15  C   UNL     1      -1.263  -0.443  24.294  0.00  0.00    +0.044 A 
ATOM     17  C   UNL     1      -0.260   0.252  23.664  0.00  0.00    +0.048 A 
ATOM     18  C   UNL     1       0.845  -0.619  23.696  0.00  0.00    +0.066 A 
ATOM     24  C   UNL     1      -1.379  -2.722  25.346  0.00  0.00    +0.172 C 
BRANCH  18  19
ATOM     19  C   UNL     1       2.235  -0.370  23.139  0.00  0.00    +0.040 C 
ATOM     20  C   UNL     1       3.304  -1.198  23.873  0.00  0.00    +0.010 C 
ATOM     21  C   UNL     1       2.596   1.126  23.148  0.00  0.00    +0.010 C 
ATOM     22  C   UNL     1       4.697  -0.949  23.300  0.00  0.00    +0.001 C 
ATOM     23  C   UNL     1       3.992   1.367  22.577  0.00  0.00    +0.001 C 
ATOM     25  C   UNL     1       5.048   0.537  23.302  0.00  0.00    +0.000 C 
ENDBRANCH  18  19
ENDBRANCH   9  15
BRANCH  10  16
ATOM     16  C   UNL     1      -2.724   3.872  24.327  0.00  0.00    +0.124 C 
BRANCH  16   4
ATOM      1  O   UNL     1      -1.723   4.008  27.007  0.00  0.00    -0.253 OA
ATOM      4  N   UNL     1      -1.471   3.370  24.798  0.00  0.00    -0.298 N 
ATOM      6  N   UNL     1       0.219   2.896  26.296  0.00  0.00    -0.269 N 
ATOM     26  C   UNL     1      -1.044   3.474  26.134  0.00  0.00    +0.304 C 
ATOM     34  H   UNL     1      -0.854   2.918  24.130  0.00  0.00    +0.150 HD
ATOM     35  H   UNL     1       0.647   2.495  25.467  0.00  0.00    +0.156 HD
BRANCH   6  27
ATOM     27  C   UNL     1       0.983   2.801  27.484  0.00  0.00    +0.036 A 
ATOM     28  C   UNL     1       0.343   2.662  28.716  0.00  0.00    +0.042 A 
ATOM     29  C   UNL     1       2.376   2.845  27.422  0.00  0.00    +0.023 A 
ATOM     30  C   UNL     1       1.096   2.567  29.886  0.00  0.00    +0.054 A 
ATOM     31  C   UNL     1       3.128   2.750  28.593  0.00  0.00    +0.003 A 
ATOM     32  C   UNL     1       2.489   2.611  29.824  0.00  0.00    +0.019 A 
BRANCH  30  33
ATOM      7  N   UNL     1      -0.092   2.310  32.172  0.00  0.00    -0.191 NA
ATOM     33  C   UNL     1       0.441   2.425  31.148  0.00  0.00    +0.099 C 
ENDBRANCH  30  33
ENDBRANCH   6  27
ENDBRANCH  16   4
ENDBRANCH  10  16
TORSDOF 6
ENDMDL
MODEL 2
REMARK VINA RESULT:       7.4      3.164      5.282
REMARK  Name = 40780092
REMARK  7 active torsions:
REMARK  status: ('A' for Active; 'I' for Inactive)
REMARK    1  A    between atoms: N_3  and  C_24
REMARK    2  A    between atoms: N_4  and  C_16
REMARK    3  A    between atoms: N_6  and  C_27
REMARK    4  A    between atoms: C_9  and  C_15
REMARK    5  A    between atoms: C_10  and  C_16
REMARK    6  A    between atoms: C_18  and  C_19
REMARK    7  A    between atoms: C_30  and  C_33
REMARK                            x       y       z     vdW  Elec       q    Type
REMARK                         _______ _______ _______ _____ _____    ______ ____
ROOT
ATOM      2  N   UNL     1      -3.789   4.908  26.446  0.00  0.00    -0.297 NA
ATOM      8  C   UNL     1      -4.951   3.765  24.415  0.00  0.00    +0.002 C 
ATOM      9  C   UNL     1      -4.662   2.725  25.532  0.00  0.00    +0.055 C 
ATOM     10  C   UNL     1      -3.089   5.276  25.187  0.00  0.00    +0.074 C 
ATOM     11  C   UNL     1      -3.631   4.450  24.001  0.00  0.00    +0.024 C 
ATOM     12  C   UNL     1      -3.795   3.434  26.611  0.00  0.00    +0.094 C 
ATOM     13  C   UNL     1      -5.848   4.854  25.041  0.00  0.00    +0.019 C 
ATOM     14  C   UNL     1      -5.194   5.368  26.335  0.00  0.00    +0.085 C 
ENDROOT
BRANCH   9  15
ATOM      3  N   UNL     1      -4.855   0.355  24.641  0.00  0.00    -0.271 N 
ATOM      5  N   UNL     1      -4.157  -0.753  24.342  0.00  0.00    -0.176 NA
ATOM     15  C   UNL     1      -4.089   1.375  25.126  0.00  0.00    +0.044 A 
ATOM     17  C   UNL     1      -2.800   0.899  25.145  0.00  0.00    +0.048 A 
ATOM     18  C   UNL     1      -2.903  -0.415  24.651  0.00  0.00    +0.066 A 
ATOM     24  C   UNL     1      -6.284   0.367  24.435  0.00  0.00    +0.172 C 
BRANCH  18  19
ATOM     19  C   UNL     1      -1.781  -1.418  24.452  0.00  0.00    +0.040 C 
ATOM     20  C   UNL     1      -2.312  -2.859  24.352  0.00  0.00    +0.010 C 
ATOM     21  C   UNL     1      -0.708  -1.302  25.549  0.00  0.00    +0.010 C 
ATOM     22  C   UNL     1      -1.178  -3.860  24.142  0.00  0.00    +0.001 C 
ATOM     23  C   UNL     1       0.420  -2.310  25.335  0.00  0.00    +0.001 C 
ATOM     25  C   UNL     1      -0.111  -3.736  25.227  0.00  0.00    +0.000 C 
ENDBRANCH  18  19
ENDBRANCH   9  15
BRANCH  10  16
ATOM     16  C   UNL     1      -1.568   5.165  25.310  0.00  0.00    +0.124 C 
BRANCH  16   4
ATOM      1  O   UNL     1       0.256   4.107  23.371  0.00  0.00    -0.253 OA
ATOM      4  N   UNL     1      -1.143   3.805  25.188  0.00  0.00    -0.298 N 
ATOM      6  N   UNL     1      -0.015   1.983  24.333  0.00  0.00    -0.269 N 
ATOM     26  C   UNL     1      -0.241   3.357  24.207  0.00  0.00    +0.304 C 
ATOM     34  H   UNL     1      -1.517   3.125  25.843  0.00  0.00    +0.150 HD
ATOM     35  H   UNL     1      -0.510   1.506  25.082  0.00  0.00    +0.156 HD
BRANCH   6  27
ATOM     27  C   UNL     1       0.823   1.165  23.538  0.00  0.00    +0.036 A 
ATOM     28  C   UNL     1       2.205   1.189  23.730  0.00  0.00    +0.042 A 
ATOM     29  C   UNL     1       0.268   0.335  22.565  0.00  0.00    +0.023 A 
ATOM     30  C   UNL     1       3.032   0.382  22.948  0.00  0.00    +0.054 A 
ATOM     31  C   UNL     1       1.095  -0.472  21.783  0.00  0.00    +0.003 A 
ATOM     32  C   UNL     1       2.476  -0.448  21.974  0.00  0.00    +0.019 A 
BRANCH  30  33
ATOM      7  N   UNL     1       5.596   0.429  23.303  0.00  0.00    -0.191 NA
ATOM     33  C   UNL     1       4.447   0.407  23.144  0.00  0.00    +0.099 C 
ENDBRANCH  30  33
ENDBRANCH   6  27
ENDBRANCH  16   4
ENDBRANCH  10  16
TORSDOF 6
ENDMDL
MODEL 3
REMARK VINA RESULT:       8.0      1.924      5.686
REMARK  Name = 40780092
REMARK  7 active torsions:
REMARK  status: ('A' for Active; 'I' for Inactive)
REMARK    1  A    between atoms: N_3  and  C_24
REMARK    2  A    between atoms: N_4  and  C_16
REMARK    3  A    between atoms: N_6  and  C_27
REMARK    4  A    between atoms: C_9  and  C_15
REMARK    5  A    between atoms: C_10  and  C_16
REMARK    6  A    between atoms: C_18  and  C_19
REMARK    7  A    between atoms: C_30  and  C_33
REMARK                            x       y       z     vdW  Elec       q    Type
REMARK                         _______ _______ _______ _____ _____    ______ ____
ROOT
ATOM      2  N   UNL     1      -3.691  -0.826  23.553  0.00  0.00    -0.297 NA
ATOM      8  C   UNL     1      -4.149   0.675  25.631  0.00  0.00    +0.002 C 
ATOM      9  C   UNL     1      -3.087   1.334  24.708  0.00  0.00    +0.055 C 
ATOM     10  C   UNL     1      -3.602  -1.637  24.796  0.00  0.00    +0.074 C 
ATOM     11  C   UNL     1      -3.665  -0.731  26.044  0.00  0.00    +0.024 C 
ATOM     12  C   UNL     1      -2.721   0.296  23.609  0.00  0.00    +0.094 C 
ATOM     13  C   UNL     1      -5.422   0.484  24.779  0.00  0.00    +0.019 C 
ATOM     14  C   UNL     1      -5.057  -0.256  23.480  0.00  0.00    +0.085 C 
ENDROOT
BRANCH   9  15
ATOM      3  N   UNL     1      -0.937   2.683  24.661  0.00  0.00    -0.271 N 
ATOM      5  N   UNL     1       0.079   3.136  25.415  0.00  0.00    -0.176 NA
ATOM     15  C   UNL     1      -1.853   1.948  25.354  0.00  0.00    +0.044 A 
ATOM     17  C   UNL     1      -1.406   1.919  26.653  0.00  0.00    +0.048 A 
ATOM     18  C   UNL     1      -0.214   2.667  26.631  0.00  0.00    +0.066 A 
ATOM     24  C   UNL     1      -0.964   2.997  23.251  0.00  0.00    +0.172 C 
BRANCH  18  19
ATOM     19  C   UNL     1       0.711   2.967  27.797  0.00  0.00    +0.040 C 
ATOM     20  C   UNL     1       2.174   2.617  27.472  0.00  0.00    +0.010 C 
ATOM     21  C   UNL     1       0.251   2.266  29.087  0.00  0.00    +0.010 C 
ATOM     22  C   UNL     1       3.098   2.931  28.647  0.00  0.00    +0.001 C 
ATOM     23  C   UNL     1       1.183   2.582  30.256  0.00  0.00    +0.001 C 
ATOM     25  C   UNL     1       2.634   2.243  29.928  0.00  0.00    +0.000 C 
ENDBRANCH  18  19
ENDBRANCH   9  15
BRANCH  10  16
ATOM     16  C   UNL     1      -2.370  -2.545  24.813  0.00  0.00    +0.124 C 
BRANCH  16   4
ATOM      1  O   UNL     1       0.006  -1.081  25.458  0.00  0.00    -0.253 OA
ATOM      4  N   UNL     1      -1.378  -2.079  23.895  0.00  0.00    -0.298 N 
ATOM      6  N   UNL     1       0.552  -1.041  23.174  0.00  0.00    -0.269 N 
ATOM     26  C   UNL     1      -0.232  -1.363  24.286  0.00  0.00    +0.304 C 
ATOM     34  H   UNL     1      -1.511  -2.272  22.907  0.00  0.00    +0.150 HD
ATOM     35  H   UNL     1       0.209  -1.350  22.269  0.00  0.00    +0.156 HD
BRANCH   6  27
ATOM     27  C   UNL     1       1.776  -0.330  23.153  0.00  0.00    +0.036 A 
ATOM     28  C   UNL     1       2.955  -0.959  23.552  0.00  0.00    +0.042 A 
ATOM     29  C   UNL     1       1.802   1.000  22.732  0.00  0.00    +0.023 A 
ATOM     30  C   UNL     1       4.161  -0.258  23.530  0.00  0.00    +0.054 A 
ATOM     31  C   UNL     1       3.008   1.700  22.710  0.00  0.00    +0.003 A 
ATOM     32  C   UNL     1       4.187   1.072  23.109  0.00  0.00    +0.019 A 
BRANCH  30  33
ATOM      7  N   UNL     1       6.350  -1.425  24.272  0.00  0.00    -0.191 NA
ATOM     33  C   UNL     1       5.369  -0.903  23.939  0.00  0.00    +0.099 C 
ENDBRANCH  30  33
ENDBRANCH   6  27
ENDBRANCH  16   4
ENDBRANCH  10  16
TORSDOF 6
ENDMDL
MODEL 4
REMARK VINA RESULT:       8.2      1.218      1.741
REMARK  Name = 40780092
REMARK  7 active torsions:
REMARK  status: ('A' for Active; 'I' for Inactive)
REMARK    1  A    between atoms: N_3  and  C_24
REMARK    2  A    between atoms: N_4  and  C_16
REMARK    3  A    between atoms: N_6  and  C_27
REMARK    4  A    between atoms: C_9  and  C_15
REMARK    5  A    between atoms: C_10  and  C_16
REMARK    6  A    between atoms: C_18  and  C_19
REMARK    7  A    between atoms: C_30  and  C_33
REMARK                            x       y       z     vdW  Elec       q    Type
REMARK                         _______ _______ _______ _____ _____    ______ ____
ROOT
ATOM      2  N   UNL     1      -4.346   2.386  25.570  0.00  0.00    -0.297 NA
ATOM      8  C   UNL     1      -4.229   0.690  23.598  0.00  0.00    +0.002 C 
ATOM      9  C   UNL     1      -3.240   0.283  24.724  0.00  0.00    +0.055 C 
ATOM     10  C   UNL     1      -4.186   3.113  24.283  0.00  0.00    +0.074 C 
ATOM     11  C   UNL     1      -3.908   2.126  23.130  0.00  0.00    +0.024 C 
ATOM     12  C   UNL     1      -3.219   1.440  25.763  0.00  0.00    +0.094 C 
ATOM     13  C   UNL     1      -5.636   0.724  24.232  0.00  0.00    +0.019 C 
ATOM     14  C   UNL     1      -5.602   1.602  25.495  0.00  0.00    +0.085 C 
ENDROOT
BRANCH   9  15
ATOM      3  N   UNL     1      -1.406  -1.449  24.434  0.00  0.00    -0.271 N 
ATOM      5  N   UNL     1      -0.138  -1.632  24.029  0.00  0.00    -0.176 NA
ATOM     15  C   UNL     1      -1.839  -0.160  24.325  0.00  0.00    +0.044 A 
ATOM     17  C   UNL     1      -0.780   0.550  23.814  0.00  0.00    +0.048 A 
ATOM     18  C   UNL     1       0.239  -0.408  23.651  0.00  0.00    +0.066 A 
ATOM     24  C   UNL     1      -2.161  -2.578  24.925  0.00  0.00    +0.172 C 
BRANCH  18  19
ATOM     19  C   UNL     1       1.642  -0.183  23.117  0.00  0.00    +0.040 C 
ATOM     20  C   UNL     1       2.654  -1.162  23.736  0.00  0.00    +0.010 C 
ATOM     21  C   UNL     1       2.100   1.274  23.304  0.00  0.00    +0.010 C 
ATOM     22  C   UNL     1       4.061  -0.936  23.186  0.00  0.00    +0.001 C 
ATOM     23  C   UNL     1       3.509   1.491  22.756  0.00  0.00    +0.001 C 
ATOM     25  C   UNL     1       4.508   0.513  23.365  0.00  0.00    +0.000 C 
ENDBRANCH  18  19
ENDBRANCH   9  15
BRANCH  10  16
ATOM     16  C   UNL     1      -3.123   4.211  24.362  0.00  0.00    +0.124 C 
BRANCH  16   4
ATOM      1  O   UNL     1      -2.123   4.066  27.043  0.00  0.00    -0.253 OA
ATOM      4  N   UNL     1      -1.864   3.674  24.777  0.00  0.00    -0.298 N 
ATOM      6  N   UNL     1      -0.169   3.058  26.217  0.00  0.00    -0.269 N 
ATOM     26  C   UNL     1      -1.438   3.637  26.117  0.00  0.00    +0.304 C 
ATOM     34  H   UNL     1      -1.242   3.304  24.064  0.00  0.00    +0.150 HD
ATOM     35  H   UNL     1       0.263   2.754  25.349  0.00  0.00    +0.156 HD
BRANCH   6  27
ATOM     27  C   UNL     1       0.596   2.842  27.387  0.00  0.00    +0.036 A 
ATOM     28  C   UNL     1       1.984   2.733  27.303  0.00  0.00    +0.042 A 
ATOM     29  C   UNL     1      -0.039   2.739  28.625  0.00  0.00    +0.023 A 
ATOM     30  C   UNL     1       2.739   2.521  28.457  0.00  0.00    +0.054 A 
ATOM     31  C   UNL     1       0.717   2.527  29.779  0.00  0.00    +0.003 A 
ATOM     32  C   UNL     1       2.104   2.418  29.695  0.00  0.00    +0.019 A 
BRANCH  30  33
ATOM      7  N   UNL     1       5.315   2.320  28.302  0.00  0.00    -0.191 NA
ATOM     33  C   UNL     1       4.161   2.410  28.371  0.00  0.00    +0.099 C 
ENDBRANCH  30  33
ENDBRANCH   6  27
ENDBRANCH  16   4
ENDBRANCH  10  16
TORSDOF 6
ENDMDL
MODEL 5
REMARK VINA RESULT:       8.4      2.644      5.990
REMARK  Name = 40780092
REMARK  7 active torsions:
REMARK  status: ('A' for Active; 'I' for Inactive)
REMARK    1  A    between atoms: N_3  and  C_24
REMARK    2  A    between atoms: N_4  and  C_16
REMARK    3  A    between atoms: N_6  and  C_27
REMARK    4  A    between atoms: C_9  and  C_15
REMARK    5  A    between atoms: C_10  and  C_16
REMARK    6  A    between atoms: C_18  and  C_19
REMARK    7  A    between atoms: C_30  and  C_33
REMARK                            x       y       z     vdW  Elec       q    Type
REMARK                         _______ _______ _______ _____ _____    ______ ____
ROOT
ATOM      2  N   UNL     1      -4.655   3.876  23.599  0.00  0.00    -0.297 NA
ATOM      8  C   UNL     1      -2.749   5.306  24.648  0.00  0.00    +0.002 C 
ATOM      9  C   UNL     1      -2.185   3.963  24.108  0.00  0.00    +0.055 C 
ATOM     10  C   UNL     1      -5.057   4.344  24.951  0.00  0.00    +0.074 C 
ATOM     11  C   UNL     1      -3.868   5.016  25.670  0.00  0.00    +0.024 C 
ATOM     12  C   UNL     1      -3.400   3.088  23.686  0.00  0.00    +0.094 C 
ATOM     13  C   UNL     1      -3.405   6.028  23.451  0.00  0.00    +0.019 C 
ATOM     14  C   UNL     1      -4.394   5.071  22.762  0.00  0.00    +0.085 C 
ENDROOT
BRANCH   9  15
ATOM      3  N   UNL     1      -0.625   2.020  24.590  0.00  0.00    -0.271 N 
ATOM      5  N   UNL     1       0.222   1.505  25.498  0.00  0.00    -0.176 NA
ATOM     15  C   UNL     1      -1.196   3.198  24.974  0.00  0.00    +0.044 A 
ATOM     17  C   UNL     1      -0.687   3.472  26.221  0.00  0.00    +0.048 A 
ATOM     18  C   UNL     1       0.180   2.397  26.491  0.00  0.00    +0.066 A 
ATOM     24  C   UNL     1      -0.845   1.314  23.349  0.00  0.00    +0.172 C 
BRANCH  18  19
ATOM     19  C   UNL     1       1.019   2.176  27.737  0.00  0.00    +0.040 C 
ATOM     20  C   UNL     1       0.221   2.457  29.022  0.00  0.00    +0.010 C 
ATOM     21  C   UNL     1       2.318   3.000  27.706  0.00  0.00    +0.010 C 
ATOM     22  C   UNL     1       1.069   2.223  30.270  0.00  0.00    +0.001 C 
ATOM     23  C   UNL     1       3.159   2.764  28.959  0.00  0.00    +0.001 C 
ATOM     25  C   UNL     1       2.362   3.034  30.232  0.00  0.00    +0.000 C 
ENDBRANCH  18  19
ENDBRANCH   9  15
BRANCH  10  16
ATOM     16  C   UNL     1      -5.676   3.228  25.795  0.00  0.00    +0.124 C 
BRANCH  16   4
ATOM      1  O   UNL     1      -3.635   1.229  26.008  0.00  0.00    -0.253 OA
ATOM      4  N   UNL     1      -5.629   1.978  25.103  0.00  0.00    -0.298 N 
ATOM      6  N   UNL     1      -4.814  -0.082  24.457  0.00  0.00    -0.269 N 
ATOM     26  C   UNL     1      -4.591   1.042  25.258  0.00  0.00    +0.304 C 
ATOM     34  H   UNL     1      -6.384   1.756  24.462  0.00  0.00    +0.150 HD
ATOM     35  H   UNL     1      -5.658  -0.079  23.892  0.00  0.00    +0.156 HD
BRANCH   6  27
ATOM     27  C   UNL     1      -4.002  -1.235  24.335  0.00  0.00    +0.036 A 
ATOM     28  C   UNL     1      -2.685  -1.213  24.793  0.00  0.00    +0.042 A 
ATOM     29  C   UNL     1      -4.521  -2.394  23.756  0.00  0.00    +0.023 A 
ATOM     30  C   UNL     1      -1.886  -2.350  24.673  0.00  0.00    +0.054 A 
ATOM     31  C   UNL     1      -3.720  -3.530  23.636  0.00  0.00    +0.003 A 
ATOM     32  C   UNL     1      -2.404  -3.508  24.094  0.00  0.00    +0.019 A 
BRANCH  30  33
ATOM      7  N   UNL     1       0.560  -2.309  25.523  0.00  0.00    -0.191 NA
ATOM     33  C   UNL     1      -0.536  -2.327  25.143  0.00  0.00    +0.099 C 
ENDBRANCH  30  33
ENDBRANCH   6  27
ENDBRANCH  16   4
ENDBRANCH  10  16
TORSDOF 6
ENDMDL
MODEL 6
REMARK VINA RESULT:       8.4      1.981      5.638
REMARK  Name = 40780092
REMARK  7 active torsions:
REMARK  status: ('A' for Active; 'I' for Inactive)
REMARK    1  A    between atoms: N_3  and  C_24
REMARK    2  A    between atoms: N_4  and  C_16
REMARK    3  A    between atoms: N_6  and  C_27
REMARK    4  A    between atoms: C_9  and  C_15
REMARK    5  A    between atoms: C_10  and  C_16
REMARK    6  A    between atoms: C_18  and  C_19
REMARK    7  A    between atoms: C_30  and  C_33
REMARK                            x       y       z     vdW  Elec       q    Type
REMARK                         _______ _______ _______ _____ _____    ______ ____
ROOT
ATOM      2  N   UNL     1      -5.469   2.785  24.129  0.00  0.00    -0.297 NA
ATOM      8  C   UNL     1      -4.526   3.936  26.266  0.00  0.00    +0.002 C 
ATOM      9  C   UNL     1      -3.418   3.808  25.185  0.00  0.00    +0.055 C 
ATOM     10  C   UNL     1      -5.818   1.987  25.333  0.00  0.00    +0.074 C 
ATOM     11  C   UNL     1      -5.097   2.538  26.581  0.00  0.00    +0.024 C 
ATOM     12  C   UNL     1      -3.996   2.938  24.032  0.00  0.00    +0.094 C 
ATOM     13  C   UNL     1      -5.669   4.761  25.637  0.00  0.00    +0.019 C 
ATOM     14  C   UNL     1      -6.065   4.133  24.289  0.00  0.00    +0.085 C 
ENDROOT
BRANCH   9  15
ATOM      3  N   UNL     1      -1.045   3.023  24.741  0.00  0.00    -0.271 N 
ATOM      5  N   UNL     1       0.100   2.635  25.329  0.00  0.00    -0.176 NA
ATOM     15  C   UNL     1      -2.037   3.342  25.622  0.00  0.00    +0.044 A 
ATOM     17  C   UNL     1      -1.503   3.149  26.873  0.00  0.00    +0.048 A 
ATOM     18  C   UNL     1      -0.187   2.715  26.631  0.00  0.00    +0.066 A 
ATOM     24  C   UNL     1      -1.120   3.064  23.299  0.00  0.00    +0.172 C 
BRANCH  18  19
ATOM     19  C   UNL     1       0.871   2.351  27.658  0.00  0.00    +0.040 C 
ATOM     20  C   UNL     1       0.321   2.416  29.093  0.00  0.00    +0.010 C 
ATOM     21  C   UNL     1       2.133   3.220  27.513  0.00  0.00    +0.010 C 
ATOM     22  C   UNL     1       1.388   2.039  30.119  0.00  0.00    +0.001 C 
ATOM     23  C   UNL     1       3.193   2.840  28.544  0.00  0.00    +0.001 C 
ATOM     25  C   UNL     1       2.642   2.895  29.966  0.00  0.00    +0.000 C 
ENDBRANCH  18  19
ENDBRANCH   9  15
BRANCH  10  16
ATOM     16  C   UNL     1      -5.556   0.492  25.138  0.00  0.00    +0.124 C 
BRANCH  16   4
ATOM      1  O   UNL     1      -3.029  -0.452  26.102  0.00  0.00    -0.253 OA
ATOM      4  N   UNL     1      -4.372   0.277  24.365  0.00  0.00    -0.298 N 
ATOM      6  N   UNL     1      -2.184  -0.301  23.916  0.00  0.00    -0.269 N 
ATOM     26  C   UNL     1      -3.163  -0.190  24.909  0.00  0.00    +0.304 C 
ATOM     34  H   UNL     1      -4.407   0.476  23.370  0.00  0.00    +0.150 HD
ATOM     35  H   UNL     1      -2.460  -0.042  22.973  0.00  0.00    +0.156 HD
BRANCH   6  27
ATOM     27  C   UNL     1      -0.845  -0.734  24.063  0.00  0.00    +0.036 A 
ATOM     28  C   UNL     1       0.169  -0.127  23.321  0.00  0.00    +0.042 A 
ATOM     29  C   UNL     1      -0.539  -1.766  24.949  0.00  0.00    +0.023 A 
ATOM     30  C   UNL     1       1.490  -0.552  23.467  0.00  0.00    +0.054 A 
ATOM     31  C   UNL     1       0.782  -2.191  25.094  0.00  0.00    +0.003 A 
ATOM     32  C   UNL     1       1.796  -1.585  24.353  0.00  0.00    +0.019 A 
BRANCH  30  33
ATOM      7  N   UNL     1       3.371   0.573  22.089  0.00  0.00    -0.191 NA
ATOM     33  C   UNL     1       2.529   0.069  22.707  0.00  0.00    +0.099 C 
ENDBRANCH  30  33
ENDBRANCH   6  27
ENDBRANCH  16   4
ENDBRANCH  10  16
TORSDOF 6
ENDMDL
MODEL 7
REMARK VINA RESULT:       9.2      3.205      5.421
REMARK  Name = 40780092
REMARK  7 active torsions:
REMARK  status: ('A' for Active; 'I' for Inactive)
REMARK    1  A    between atoms: N_3  and  C_24
REMARK    2  A    between atoms: N_4  and  C_16
REMARK    3  A    between atoms: N_6  and  C_27
REMARK    4  A    between atoms: C_9  and  C_15
REMARK    5  A    between atoms: C_10  and  C_16
REMARK    6  A    between atoms: C_18  and  C_19
REMARK    7  A    between atoms: C_30  and  C_33
REMARK                            x       y       z     vdW  Elec       q    Type
REMARK                         _______ _______ _______ _____ _____    ______ ____
ROOT
ATOM      2  N   UNL     1      -5.025   4.894  25.328  0.00  0.00    -0.297 NA
ATOM      8  C   UNL     1      -3.033   3.810  26.607  0.00  0.00    +0.002 C 
ATOM      9  C   UNL     1      -2.625   4.138  25.144  0.00  0.00    +0.055 C 
ATOM     10  C   UNL     1      -5.474   3.651  26.009  0.00  0.00    +0.074 C 
ATOM     11  C   UNL     1      -4.270   2.886  26.597  0.00  0.00    +0.024 C 
ATOM     12  C   UNL     1      -3.912   4.588  24.395  0.00  0.00    +0.094 C 
ATOM     13  C   UNL     1      -3.466   5.140  27.258  0.00  0.00    +0.019 C 
ATOM     14  C   UNL     1      -4.518   5.822  26.366  0.00  0.00    +0.085 C 
ENDROOT
BRANCH   9  15
ATOM      3  N   UNL     1      -2.284   2.546  23.197  0.00  0.00    -0.271 N 
ATOM      5  N   UNL     1      -1.443   1.643  22.665  0.00  0.00    -0.176 NA
ATOM     15  C   UNL     1      -1.840   3.093  24.365  0.00  0.00    +0.044 A 
ATOM     17  C   UNL     1      -0.623   2.506  24.615  0.00  0.00    +0.048 A 
ATOM     18  C   UNL     1      -0.430   1.624  23.536  0.00  0.00    +0.066 A 
ATOM     24  C   UNL     1      -3.524   2.841  22.517  0.00  0.00    +0.172 C 
BRANCH  18  19
ATOM     19  C   UNL     1       0.756   0.708  23.291  0.00  0.00    +0.040 C 
ATOM     20  C   UNL     1       2.092   1.466  23.375  0.00  0.00    +0.010 C 
ATOM     21  C   UNL     1       0.633  -0.044  21.954  0.00  0.00    +0.010 C 
ATOM     22  C   UNL     1       3.279   0.535  23.138  0.00  0.00    +0.001 C 
ATOM     23  C   UNL     1       1.826  -0.969  21.722  0.00  0.00    +0.001 C 
ATOM     25  C   UNL     1       3.150  -0.216  21.815  0.00  0.00    +0.000 C 
ENDBRANCH  18  19
ENDBRANCH   9  15
BRANCH  10  16
ATOM     16  C   UNL     1      -6.323   2.761  25.098  0.00  0.00    +0.124 C 
BRANCH  16   4
ATOM      1  O   UNL     1      -5.173   0.318  26.054  0.00  0.00    -0.253 OA
ATOM      4  N   UNL     1      -5.501   1.856  24.357  0.00  0.00    -0.298 N 
ATOM      6  N   UNL     1      -4.208  -0.009  23.939  0.00  0.00    -0.269 N 
ATOM     26  C   UNL     1      -4.969   0.670  24.895  0.00  0.00    +0.304 C 
ATOM     34  H   UNL     1      -5.286   2.084  23.391  0.00  0.00    +0.150 HD
ATOM     35  H   UNL     1      -4.138   0.422  23.021  0.00  0.00    +0.156 HD
BRANCH   6  27
ATOM     27  C   UNL     1      -3.514  -1.233  24.092  0.00  0.00    +0.036 A 
ATOM     28  C   UNL     1      -2.198  -1.235  24.556  0.00  0.00    +0.042 A 
ATOM     29  C   UNL     1      -4.146  -2.436  23.780  0.00  0.00    +0.023 A 
ATOM     30  C   UNL     1      -1.514  -2.442  24.708  0.00  0.00    +0.054 A 
ATOM     31  C   UNL     1      -3.462  -3.642  23.933  0.00  0.00    +0.003 A 
ATOM     32  C   UNL     1      -2.147  -3.645  24.396  0.00  0.00    +0.019 A 
BRANCH  30  33
ATOM      7  N   UNL     1       0.928  -2.446  25.569  0.00  0.00    -0.191 NA
ATOM     33  C   UNL     1      -0.166  -2.444  25.183  0.00  0.00    +0.099 C 
ENDBRANCH  30  33
ENDBRANCH   6  27
ENDBRANCH  16   4
ENDBRANCH  10  16
TORSDOF 6
ENDMDL
