MODEL 1
REMARK VINA RESULT:       2.1      0.000      0.000
REMARK  Name = 51138113
REMARK  12 active torsions:
REMARK  status: ('A' for Active; 'I' for Inactive)
REMARK    1  A    between atoms: N_4  and  C_20
REMARK    2  A    between atoms: N_5  and  C_25
REMARK    3  A    between atoms: C_7  and  C_13
REMARK    4  A    between atoms: C_10  and  C_18
REMARK    5  A    between atoms: C_13  and  C_15
REMARK    6  A    between atoms: C_15  and  C_22
REMARK    7  A    between atoms: C_15  and  C_23
REMARK    8  A    between atoms: C_20  and  C_24
REMARK    9  A    between atoms: C_25  and  C_28
REMARK   10  A    between atoms: C_26  and  C_29
REMARK   11  A    between atoms: C_27  and  C_30
REMARK   12  A    between atoms: C_28  and  C_31
REMARK                            x       y       z     vdW  Elec       q    Type
REMARK                         _______ _______ _______ _____ _____    ______ ____
ROOT
ATOM      3  N   UNL     1      -2.917   1.558  25.146  0.00  0.00    -0.299 NA
ATOM      4  N   UNL     1       1.368  -0.098  23.049  0.00  0.00    -0.342 N 
ATOM      7  C   UNL     1      -2.627   0.273  25.797  0.00  0.00    +0.085 C 
ATOM      8  C   UNL     1      -1.464  -0.529  25.203  0.00  0.00    -0.021 A 
ATOM      9  C   UNL     1      -0.463  -0.005  24.335  0.00  0.00    +0.008 A 
ATOM     10  C   UNL     1      -1.851   2.544  25.243  0.00  0.00    +0.145 C 
ATOM     11  C   UNL     1      -0.203   1.297  23.782  0.00  0.00    -0.020 A 
ATOM     12  C   UNL     1      -0.980   2.554  23.988  0.00  0.00    +0.065 C 
ATOM     14  C   UNL     1       0.557  -0.843  23.872  0.00  0.00    +0.050 A 
ATOM     16  C   UNL     1       0.924   1.190  22.992  0.00  0.00    +0.091 A 
ATOM     17  C   UNL     1      -1.304  -1.883  25.594  0.00  0.00    +0.006 A 
ATOM     19  C   UNL     1       0.670  -2.187  24.233  0.00  0.00    +0.026 A 
ATOM     21  C   UNL     1      -0.276  -2.692  25.116  0.00  0.00    +0.002 A 
ATOM     32  H   UNL     1      -3.204   1.418  24.178  0.00  0.00    +0.123 HD
ENDROOT
BRANCH  10  18
ATOM      1  O   UNL     1      -1.925   4.915  25.509  0.00  0.00    -0.274 OA
ATOM      5  N   UNL     1      -3.925   3.737  25.326  0.00  0.00    -0.314 N 
ATOM     18  C   UNL     1      -2.547   3.865  25.368  0.00  0.00    +0.230 C 
ATOM     33  H   UNL     1      -4.343   2.820  25.201  0.00  0.00    +0.149 HD
BRANCH   5  25
ATOM     25  C   UNL     1      -4.826   4.859  25.448  0.00  0.00    +0.104 C 
BRANCH  25  28
ATOM     28  C   UNL     1      -6.269   4.424  25.679  0.00  0.00    +0.015 C 
ATOM     31  C   UNL     1      -6.427   2.911  25.721  0.00  0.00    +0.005 C 
ENDBRANCH  25  28
ENDBRANCH   5  25
ENDBRANCH  10  18
BRANCH   7  13
ATOM     13  C   UNL     1      -3.959  -0.497  25.751  0.00  0.00    +0.026 C 
BRANCH  13  15
ATOM     15  C   UNL     1      -4.473  -0.721  24.326  0.00  0.00    -0.015 C 
ATOM     22  C   UNL     1      -4.301  -2.195  23.953  0.00  0.00    +0.007 C 
ATOM     23  C   UNL     1      -3.760   0.158  23.298  0.00  0.00    +0.007 C 
ENDBRANCH  13  15
ENDBRANCH   7  13
BRANCH   4  20
ATOM     20  C   UNL     1       2.539  -0.588  22.353  0.00  0.00    +0.162 C 
BRANCH  20  24
ATOM      2  O   UNL     1       5.596   0.968  23.737  0.00  0.00    -0.359 OA
ATOM      6  N   UNL     1       5.765  -0.324  24.220  0.00  0.00    -0.083 NA
ATOM     24  C   UNL     1       3.835  -0.197  23.019  0.00  0.00    +0.037 A 
ATOM     26  C   UNL     1       4.442   1.031  23.023  0.00  0.00    +0.139 A 
ATOM     27  C   UNL     1       4.701  -1.001  23.778  0.00  0.00    +0.086 A 
ATOM     29  C   UNL     1       4.109   2.336  22.437  0.00  0.00    +0.089 C 
ATOM     30  C   UNL     1       4.558  -2.428  24.112  0.00  0.00    +0.069 C 
ENDBRANCH  20  24
ENDBRANCH   4  20
TORSDOF 7
ENDMDL
MODEL 2
REMARK VINA RESULT:       4.0      1.835      7.582
REMARK  Name = 51138113
REMARK  12 active torsions:
REMARK  status: ('A' for Active; 'I' for Inactive)
REMARK    1  A    between atoms: N_4  and  C_20
REMARK    2  A    between atoms: N_5  and  C_25
REMARK    3  A    between atoms: C_7  and  C_13
REMARK    4  A    between atoms: C_10  and  C_18
REMARK    5  A    between atoms: C_13  and  C_15
REMARK    6  A    between atoms: C_15  and  C_22
REMARK    7  A    between atoms: C_15  and  C_23
REMARK    8  A    between atoms: C_20  and  C_24
REMARK    9  A    between atoms: C_25  and  C_28
REMARK   10  A    between atoms: C_26  and  C_29
REMARK   11  A    between atoms: C_27  and  C_30
REMARK   12  A    between atoms: C_28  and  C_31
REMARK                            x       y       z     vdW  Elec       q    Type
REMARK                         _______ _______ _______ _____ _____    ______ ____
ROOT
ATOM      3  N   UNL     1       0.560  -0.931  23.739  0.00  0.00    -0.299 NA
ATOM      4  N   UNL     1      -1.454   3.580  24.785  0.00  0.00    -0.342 N 
ATOM      7  C   UNL     1      -0.883  -1.075  23.503  0.00  0.00    +0.085 C 
ATOM      8  C   UNL     1      -1.752   0.113  23.928  0.00  0.00    -0.021 A 
ATOM      9  C   UNL     1      -1.271   1.426  24.200  0.00  0.00    +0.008 A 
ATOM     10  C   UNL     1       1.197   0.136  22.980  0.00  0.00    +0.145 C 
ATOM     11  C   UNL     1       0.029   2.041  24.167  0.00  0.00    -0.020 A 
ATOM     12  C   UNL     1       1.333   1.411  23.810  0.00  0.00    +0.065 C 
ATOM     14  C   UNL     1      -2.175   2.429  24.567  0.00  0.00    +0.050 A 
ATOM     16  C   UNL     1      -0.131   3.360  24.542  0.00  0.00    +0.091 A 
ATOM     17  C   UNL     1      -3.158  -0.062  23.987  0.00  0.00    +0.006 A 
ATOM     19  C   UNL     1      -3.552   2.225  24.665  0.00  0.00    +0.026 A 
ATOM     21  C   UNL     1      -4.032   0.959  24.355  0.00  0.00    +0.002 A 
ATOM     32  H   UNL     1       0.759  -0.844  24.735  0.00  0.00    +0.123 HD
ENDROOT
BRANCH  10  18
ATOM      1  O   UNL     1       3.056  -0.236  21.530  0.00  0.00    -0.274 OA
ATOM      5  N   UNL     1       3.152  -1.033  23.715  0.00  0.00    -0.314 N 
ATOM     18  C   UNL     1       2.563  -0.381  22.646  0.00  0.00    +0.230 C 
ATOM     33  H   UNL     1       2.661  -1.096  24.601  0.00  0.00    +0.149 HD
BRANCH   5  25
ATOM     25  C   UNL     1       4.461  -1.642  23.645  0.00  0.00    +0.104 C 
BRANCH  25  28
ATOM     28  C   UNL     1       5.545  -0.761  24.255  0.00  0.00    +0.015 C 
ATOM     31  C   UNL     1       5.468   0.681  23.777  0.00  0.00    +0.005 C 
ENDBRANCH  25  28
ENDBRANCH   5  25
ENDBRANCH  10  18
BRANCH   7  13
ATOM     13  C   UNL     1      -1.267  -2.378  24.229  0.00  0.00    +0.026 C 
BRANCH  13  15
ATOM     15  C   UNL     1      -2.754  -2.444  24.592  0.00  0.00    -0.015 C 
ATOM     22  C   UNL     1      -2.897  -2.574  26.110  0.00  0.00    +0.007 C 
ATOM     23  C   UNL     1      -3.478  -3.601  23.903  0.00  0.00    +0.007 C 
ENDBRANCH  13  15
ENDBRANCH   7  13
BRANCH   4  20
ATOM     20  C   UNL     1      -2.007   4.855  25.192  0.00  0.00    +0.162 C 
BRANCH  20  24
ATOM      2  O   UNL     1      -5.464   4.518  26.462  0.00  0.00    -0.359 OA
ATOM      6  N   UNL     1      -5.742   4.965  25.176  0.00  0.00    -0.083 NA
ATOM     24  C   UNL     1      -3.489   4.802  25.466  0.00  0.00    +0.037 A 
ATOM     26  C   UNL     1      -4.119   4.425  26.623  0.00  0.00    +0.139 A 
ATOM     27  C   UNL     1      -4.547   5.127  24.600  0.00  0.00    +0.086 A 
ATOM     29  C   UNL     1      -3.650   3.965  27.936  0.00  0.00    +0.089 C 
ATOM     30  C   UNL     1      -4.469   5.600  23.208  0.00  0.00    +0.069 C 
ENDBRANCH  20  24
ENDBRANCH   4  20
TORSDOF 7
ENDMDL
MODEL 3
REMARK VINA RESULT:       4.1      1.384      2.034
REMARK  Name = 51138113
REMARK  12 active torsions:
REMARK  status: ('A' for Active; 'I' for Inactive)
REMARK    1  A    between atoms: N_4  and  C_20
REMARK    2  A    between atoms: N_5  and  C_25
REMARK    3  A    between atoms: C_7  and  C_13
REMARK    4  A    between atoms: C_10  and  C_18
REMARK    5  A    between atoms: C_13  and  C_15
REMARK    6  A    between atoms: C_15  and  C_22
REMARK    7  A    between atoms: C_15  and  C_23
REMARK    8  A    between atoms: C_20  and  C_24
REMARK    9  A    between atoms: C_25  and  C_28
REMARK   10  A    between atoms: C_26  and  C_29
REMARK   11  A    between atoms: C_27  and  C_30
REMARK   12  A    between atoms: C_28  and  C_31
REMARK                            x       y       z     vdW  Elec       q    Type
REMARK                         _______ _______ _______ _____ _____    ______ ____
ROOT
ATOM      3  N   UNL     1      -3.050   2.198  25.048  0.00  0.00    -0.299 NA
ATOM      4  N   UNL     1       1.001  -0.221  23.249  0.00  0.00    -0.342 N 
ATOM      7  C   UNL     1      -3.198   0.801  25.479  0.00  0.00    +0.085 C 
ATOM      8  C   UNL     1      -2.180  -0.188  24.900  0.00  0.00    -0.021 A 
ATOM      9  C   UNL     1      -0.947   0.171  24.282  0.00  0.00    +0.008 A 
ATOM     10  C   UNL     1      -1.809   2.835  25.465  0.00  0.00    +0.145 C 
ATOM     11  C   UNL     1      -0.286   1.421  24.022  0.00  0.00    -0.020 A 
ATOM     12  C   UNL     1      -0.759   2.796  24.357  0.00  0.00    +0.065 C 
ATOM     14  C   UNL     1      -0.097  -0.834  23.806  0.00  0.00    +0.050 A 
ATOM     16  C   UNL     1       0.900   1.133  23.378  0.00  0.00    +0.091 A 
ATOM     17  C   UNL     1      -2.424  -1.577  25.048  0.00  0.00    +0.006 A 
ATOM     19  C   UNL     1      -0.378  -2.196  23.920  0.00  0.00    +0.026 A 
ATOM     21  C   UNL     1      -1.556  -2.553  24.563  0.00  0.00    +0.002 A 
ATOM     32  H   UNL     1      -3.190   2.285  24.043  0.00  0.00    +0.123 HD
ENDROOT
BRANCH  10  18
ATOM      1  O   UNL     1      -2.984   4.563  26.618  0.00  0.00    -0.274 OA
ATOM      5  N   UNL     1      -1.519   5.145  24.904  0.00  0.00    -0.314 N 
ATOM     18  C   UNL     1      -2.175   4.262  25.745  0.00  0.00    +0.230 C 
ATOM     33  H   UNL     1      -0.863   4.792  24.215  0.00  0.00    +0.149 HD
BRANCH   5  25
ATOM     25  C   UNL     1      -1.715   6.575  24.955  0.00  0.00    +0.104 C 
BRANCH  25  28
ATOM     28  C   UNL     1      -2.576   7.085  23.805  0.00  0.00    +0.015 C 
ATOM     31  C   UNL     1      -3.625   6.075  23.363  0.00  0.00    +0.005 C 
ENDBRANCH  25  28
ENDBRANCH   5  25
ENDBRANCH  10  18
BRANCH   7  13
ATOM     13  C   UNL     1      -4.649   0.433  25.119  0.00  0.00    +0.026 C 
BRANCH  13  15
ATOM     15  C   UNL     1      -5.618   1.610  25.264  0.00  0.00    -0.015 C 
ATOM     22  C   UNL     1      -6.157   1.646  26.696  0.00  0.00    +0.007 C 
ATOM     23  C   UNL     1      -6.782   1.541  24.275  0.00  0.00    +0.007 C 
ENDBRANCH  13  15
ENDBRANCH   7  13
BRANCH   4  20
ATOM     20  C   UNL     1       2.120  -0.899  22.630  0.00  0.00    +0.162 C 
BRANCH  20  24
ATOM      2  O   UNL     1       5.221   0.876  23.581  0.00  0.00    -0.359 OA
ATOM      6  N   UNL     1       5.519  -0.381  24.093  0.00  0.00    -0.083 NA
ATOM     24  C   UNL     1       3.460  -0.411  23.122  0.00  0.00    +0.037 A 
ATOM     26  C   UNL     1       3.992   0.846  23.005  0.00  0.00    +0.139 A 
ATOM     27  C   UNL     1       4.452  -1.133  23.807  0.00  0.00    +0.086 A 
ATOM     29  C   UNL     1       3.520   2.102  22.410  0.00  0.00    +0.089 C 
ATOM     30  C   UNL     1       4.429  -2.547  24.213  0.00  0.00    +0.069 C 
ENDBRANCH  20  24
ENDBRANCH   4  20
TORSDOF 7
ENDMDL
MODEL 4
REMARK VINA RESULT:       4.1      1.673      7.530
REMARK  Name = 51138113
REMARK  12 active torsions:
REMARK  status: ('A' for Active; 'I' for Inactive)
REMARK    1  A    between atoms: N_4  and  C_20
REMARK    2  A    between atoms: N_5  and  C_25
REMARK    3  A    between atoms: C_7  and  C_13
REMARK    4  A    between atoms: C_10  and  C_18
REMARK    5  A    between atoms: C_13  and  C_15
REMARK    6  A    between atoms: C_15  and  C_22
REMARK    7  A    between atoms: C_15  and  C_23
REMARK    8  A    between atoms: C_20  and  C_24
REMARK    9  A    between atoms: C_25  and  C_28
REMARK   10  A    between atoms: C_26  and  C_29
REMARK   11  A    between atoms: C_27  and  C_30
REMARK   12  A    between atoms: C_28  and  C_31
REMARK                            x       y       z     vdW  Elec       q    Type
REMARK                         _______ _______ _______ _____ _____    ______ ____
ROOT
ATOM      3  N   UNL     1       0.851  -1.123  24.020  0.00  0.00    -0.299 NA
ATOM      4  N   UNL     1      -2.911   2.212  23.548  0.00  0.00    -0.342 N 
ATOM      7  C   UNL     1      -0.364  -1.922  23.809  0.00  0.00    +0.085 C 
ATOM      8  C   UNL     1      -1.685  -1.145  23.819  0.00  0.00    -0.021 A 
ATOM      9  C   UNL     1      -1.807   0.267  23.675  0.00  0.00    +0.008 A 
ATOM     10  C   UNL     1       1.123  -0.143  22.978  0.00  0.00    +0.145 C 
ATOM     11  C   UNL     1      -0.866   1.337  23.479  0.00  0.00    -0.020 A 
ATOM     12  C   UNL     1       0.618   1.244  23.368  0.00  0.00    +0.065 C 
ATOM     14  C   UNL     1      -3.078   0.854  23.687  0.00  0.00    +0.050 A 
ATOM     16  C   UNL     1      -1.587   2.513  23.417  0.00  0.00    +0.091 A 
ATOM     17  C   UNL     1      -2.900  -1.873  23.898  0.00  0.00    +0.006 A 
ATOM     19  C   UNL     1      -4.260   0.124  23.813  0.00  0.00    +0.026 A 
ATOM     21  C   UNL     1      -4.150  -1.257  23.906  0.00  0.00    +0.002 A 
ATOM     32  H   UNL     1       0.846  -0.690  24.942  0.00  0.00    +0.123 HD
ENDROOT
BRANCH  10  18
ATOM      1  O   UNL     1       3.192   0.770  22.214  0.00  0.00    -0.274 OA
ATOM      5  N   UNL     1       3.223  -1.162  23.514  0.00  0.00    -0.314 N 
ATOM     18  C   UNL     1       2.616  -0.106  22.855  0.00  0.00    +0.230 C 
ATOM     33  H   UNL     1       2.655  -1.834  24.020  0.00  0.00    +0.149 HD
BRANCH   5  25
ATOM     25  C   UNL     1       4.653  -1.366  23.528  0.00  0.00    +0.104 C 
BRANCH  25  28
ATOM     28  C   UNL     1       5.360  -0.456  24.526  0.00  0.00    +0.015 C 
ATOM     31  C   UNL     1       6.058   0.719  23.858  0.00  0.00    +0.005 C 
ENDBRANCH  25  28
ENDBRANCH   5  25
ENDBRANCH  10  18
BRANCH   7  13
ATOM     13  C   UNL     1      -0.311  -3.008  24.898  0.00  0.00    +0.026 C 
BRANCH  13  15
ATOM     15  C   UNL     1      -1.002  -2.587  26.198  0.00  0.00    -0.015 C 
ATOM     22  C   UNL     1      -2.482  -2.969  26.129  0.00  0.00    +0.007 C 
ATOM     23  C   UNL     1      -0.867  -1.090  26.479  0.00  0.00    +0.007 C 
ENDBRANCH  13  15
ENDBRANCH   7  13
BRANCH   4  20
ATOM     20  C   UNL     1      -3.976   3.193  23.522  0.00  0.00    +0.162 C 
BRANCH  20  24
ATOM      2  O   UNL     1      -5.090   4.030  26.948  0.00  0.00    -0.359 OA
ATOM      6  N   UNL     1      -6.160   3.236  26.554  0.00  0.00    -0.083 NA
ATOM     24  C   UNL     1      -4.644   3.383  24.861  0.00  0.00    +0.037 A 
ATOM     26  C   UNL     1      -4.193   4.110  25.930  0.00  0.00    +0.139 A 
ATOM     27  C   UNL     1      -5.871   2.862  25.304  0.00  0.00    +0.086 A 
ATOM     29  C   UNL     1      -2.993   4.919  26.182  0.00  0.00    +0.089 C 
ATOM     30  C   UNL     1      -6.809   1.997  24.569  0.00  0.00    +0.069 C 
ENDBRANCH  20  24
ENDBRANCH   4  20
TORSDOF 7
ENDMDL
MODEL 5
REMARK VINA RESULT:       5.3      1.999      4.662
REMARK  Name = 51138113
REMARK  12 active torsions:
REMARK  status: ('A' for Active; 'I' for Inactive)
REMARK    1  A    between atoms: N_4  and  C_20
REMARK    2  A    between atoms: N_5  and  C_25
REMARK    3  A    between atoms: C_7  and  C_13
REMARK    4  A    between atoms: C_10  and  C_18
REMARK    5  A    between atoms: C_13  and  C_15
REMARK    6  A    between atoms: C_15  and  C_22
REMARK    7  A    between atoms: C_15  and  C_23
REMARK    8  A    between atoms: C_20  and  C_24
REMARK    9  A    between atoms: C_25  and  C_28
REMARK   10  A    between atoms: C_26  and  C_29
REMARK   11  A    between atoms: C_27  and  C_30
REMARK   12  A    between atoms: C_28  and  C_31
REMARK                            x       y       z     vdW  Elec       q    Type
REMARK                         _______ _______ _______ _____ _____    ______ ____
ROOT
ATOM      3  N   UNL     1      -3.722   1.543  25.231  0.00  0.00    -0.299 NA
ATOM      4  N   UNL     1       1.077   2.040  23.743  0.00  0.00    -0.342 N 
ATOM      7  C   UNL     1      -3.529   2.979  24.986  0.00  0.00    +0.085 C 
ATOM      8  C   UNL     1      -2.090   3.420  24.697  0.00  0.00    -0.021 A 
ATOM      9  C   UNL     1      -1.026   2.551  24.319  0.00  0.00    +0.008 A 
ATOM     10  C   UNL     1      -3.416   0.685  24.095  0.00  0.00    +0.145 C 
ATOM     11  C   UNL     1      -0.926   1.135  24.087  0.00  0.00    -0.020 A 
ATOM     12  C   UNL     1      -2.005   0.109  24.192  0.00  0.00    +0.065 C 
ATOM     14  C   UNL     1       0.243   3.084  24.068  0.00  0.00    +0.050 A 
ATOM     16  C   UNL     1       0.384   0.865  23.746  0.00  0.00    +0.091 A 
ATOM     17  C   UNL     1      -1.786   4.805  24.725  0.00  0.00    +0.006 A 
ATOM     19  C   UNL     1       0.534   4.447  24.147  0.00  0.00    +0.026 A 
ATOM     21  C   UNL     1      -0.511   5.303  24.469  0.00  0.00    +0.002 A 
ATOM     32  H   UNL     1      -3.218   1.245  26.065  0.00  0.00    +0.123 HD
ENDROOT
BRANCH  10  18
ATOM      1  O   UNL     1      -5.472  -0.319  24.775  0.00  0.00    -0.274 OA
ATOM      5  N   UNL     1      -3.969  -1.570  23.510  0.00  0.00    -0.314 N 
ATOM     18  C   UNL     1      -4.409  -0.435  24.169  0.00  0.00    +0.230 C 
ATOM     33  H   UNL     1      -3.072  -1.562  23.035  0.00  0.00    +0.149 HD
BRANCH   5  25
ATOM     25  C   UNL     1      -4.732  -2.795  23.453  0.00  0.00    +0.104 C 
BRANCH  25  28
ATOM     28  C   UNL     1      -4.106  -3.909  24.284  0.00  0.00    +0.015 C 
ATOM     31  C   UNL     1      -3.106  -3.390  25.306  0.00  0.00    +0.005 C 
ENDBRANCH  25  28
ENDBRANCH   5  25
ENDBRANCH  10  18
BRANCH   7  13
ATOM     13  C   UNL     1      -4.119   3.669  26.229  0.00  0.00    +0.026 C 
BRANCH  13  15
ATOM     15  C   UNL     1      -5.639   3.839  26.154  0.00  0.00    -0.015 C 
ATOM     22  C   UNL     1      -6.249   2.624  25.453  0.00  0.00    +0.007 C 
ATOM     23  C   UNL     1      -6.054   5.118  25.426  0.00  0.00    +0.007 C 
ENDBRANCH  13  15
ENDBRANCH   7  13
BRANCH   4  20
ATOM     20  C   UNL     1       2.484   2.155  23.420  0.00  0.00    +0.162 C 
BRANCH  20  24
ATOM      2  O   UNL     1       3.556  -1.220  22.354  0.00  0.00    -0.359 OA
ATOM      6  N   UNL     1       4.652  -0.876  23.137  0.00  0.00    -0.083 NA
ATOM     24  C   UNL     1       3.140   0.827  23.133  0.00  0.00    +0.037 A 
ATOM     26  C   UNL     1       2.663  -0.197  22.359  0.00  0.00    +0.139 A 
ATOM     27  C   UNL     1       4.380   0.351  23.592  0.00  0.00    +0.086 A 
ATOM     29  C   UNL     1       1.438  -0.398  21.574  0.00  0.00    +0.089 C 
ATOM     30  C   UNL     1       5.346   1.031  24.469  0.00  0.00    +0.069 C 
ENDBRANCH  20  24
ENDBRANCH   4  20
TORSDOF 7
ENDMDL
