MODEL 1
REMARK VINA RESULT:      -2.0      0.000      0.000
REMARK  Name = 45783493
REMARK  10 active torsions:
REMARK  status: ('A' for Active; 'I' for Inactive)
REMARK    1  A    between atoms: O_5  and  C_31
REMARK    2  A    between atoms: O_5  and  C_32
REMARK    3  A    between atoms: N_6  and  C_15
REMARK    4  A    between atoms: N_10  and  C_29
REMARK    5  A    between atoms: N_10  and  C_30
REMARK    6  A    between atoms: C_11  and  C_16
REMARK    7  A    between atoms: C_15  and  C_17
REMARK    8  A    between atoms: C_20  and  C_24
REMARK    9  A    between atoms: C_23  and  C_25
REMARK   10  A    between atoms: C_30  and  C_31
REMARK                            x       y       z     vdW  Elec       q    Type
REMARK                         _______ _______ _______ _____ _____    ______ ____
ROOT
ATOM      4  O   UNL     1      -2.521   3.126  25.762  0.00  0.00    -0.336 OA
ATOM      7  N   UNL     1      -2.363   2.158  23.749  0.00  0.00    -0.190 NA
ATOM      8  N   UNL     1      -1.202   2.667  25.654  0.00  0.00    -0.056 NA
ATOM     16  C   UNL     1      -3.135   2.785  24.599  0.00  0.00    +0.245 A 
ATOM     20  C   UNL     1      -1.186   2.108  24.441  0.00  0.00    +0.204 A 
ENDROOT
BRANCH  20  24
ATOM      9  N   UNL     1       2.365   1.586  23.470  0.00  0.00    -0.240 NA
ATOM     24  C   UNL     1      -0.014   1.492  23.889  0.00  0.00    +0.041 A 
ATOM     26  C   UNL     1      -0.083   0.254  23.261  0.00  0.00    +0.016 A 
ATOM     27  C   UNL     1       1.222   2.112  23.967  0.00  0.00    +0.124 A 
ATOM     28  C   UNL     1       1.070  -0.319  22.737  0.00  0.00    +0.044 A 
ATOM     29  C   UNL     1       2.259   0.381  22.866  0.00  0.00    +0.119 A 
BRANCH  29  10
ATOM     10  N   UNL     1       3.425  -0.215  22.328  0.00  0.00    -0.327 N 
ATOM     33  H   UNL     1       3.306  -1.113  21.876  0.00  0.00    +0.148 HD
BRANCH  10  30
ATOM     30  C   UNL     1       4.712   0.397  22.412  0.00  0.00    +0.131 C 
BRANCH  30  31
ATOM     31  C   UNL     1       5.135   0.520  23.866  0.00  0.00    +0.178 C 
BRANCH  31   5
ATOM      5  O   UNL     1       5.731  -0.699  24.291  0.00  0.00    -0.381 OA
ATOM     32  C   UNL     1       4.895  -1.813  24.014  0.00  0.00    +0.194 C 
ENDBRANCH  31   5
ENDBRANCH  30  31
ENDBRANCH  10  30
ENDBRANCH  29  10
ENDBRANCH  20  24
BRANCH  16  11
ATOM      6  N   UNL     1      -5.448   2.536  25.484  0.00  0.00    -0.287 NA
ATOM     11  C   UNL     1      -4.592   3.177  24.465  0.00  0.00    +0.146 C 
ATOM     12  C   UNL     1      -4.821   4.687  24.655  0.00  0.00    +0.030 C 
ATOM     13  C   UNL     1      -5.864   4.796  25.757  0.00  0.00    +0.017 C 
ATOM     14  C   UNL     1      -6.564   3.452  25.720  0.00  0.00    +0.085 C 
BRANCH   6  15
ATOM     15  C   UNL     1      -5.902   1.207  25.099  0.00  0.00    +0.120 C 
BRANCH  15  17
ATOM     17  C   UNL     1      -4.763   0.224  25.024  0.00  0.00    -0.033 A 
ATOM     18  C   UNL     1      -4.521  -0.474  23.842  0.00  0.00    +0.005 A 
ATOM     19  C   UNL     1      -3.949   0.014  26.138  0.00  0.00    +0.005 A 
ATOM     21  C   UNL     1      -3.466  -1.384  23.772  0.00  0.00    +0.012 A 
ATOM     22  C   UNL     1      -2.894  -0.895  26.068  0.00  0.00    +0.012 A 
ATOM     23  C   UNL     1      -2.652  -1.594  24.886  0.00  0.00    +0.055 A 
BRANCH  23  25
ATOM      1  F   UNL     1      -1.167  -2.892  23.532  0.00  0.00    -0.166 F 
ATOM      2  F   UNL     1      -1.802  -3.748  25.427  0.00  0.00    -0.166 F 
ATOM      3  F   UNL     1      -0.372  -2.110  25.391  0.00  0.00    -0.166 F 
ATOM     25  C   UNL     1      -1.522  -2.563  24.809  0.00  0.00    +0.417 C 
ENDBRANCH  23  25
ENDBRANCH  15  17
ENDBRANCH   6  15
ENDBRANCH  16  11
TORSDOF 9
ENDMDL
MODEL 2
REMARK VINA RESULT:       0.1      2.811      4.376
REMARK  Name = 45783493
REMARK  10 active torsions:
REMARK  status: ('A' for Active; 'I' for Inactive)
REMARK    1  A    between atoms: O_5  and  C_31
REMARK    2  A    between atoms: O_5  and  C_32
REMARK    3  A    between atoms: N_6  and  C_15
REMARK    4  A    between atoms: N_10  and  C_29
REMARK    5  A    between atoms: N_10  and  C_30
REMARK    6  A    between atoms: C_11  and  C_16
REMARK    7  A    between atoms: C_15  and  C_17
REMARK    8  A    between atoms: C_20  and  C_24
REMARK    9  A    between atoms: C_23  and  C_25
REMARK   10  A    between atoms: C_30  and  C_31
REMARK                            x       y       z     vdW  Elec       q    Type
REMARK                         _______ _______ _______ _____ _____    ______ ____
ROOT
ATOM      4  O   UNL     1      -2.119   0.171  26.015  0.00  0.00    -0.336 OA
ATOM      7  N   UNL     1      -1.482  -0.782  24.091  0.00  0.00    -0.190 NA
ATOM      8  N   UNL     1      -0.848   0.684  25.728  0.00  0.00    -0.056 NA
ATOM     16  C   UNL     1      -2.416  -0.685  25.002  0.00  0.00    +0.245 A 
ATOM     20  C   UNL     1      -0.539   0.076  24.579  0.00  0.00    +0.204 A 
ENDROOT
BRANCH  20  24
ATOM      9  N   UNL     1       2.579   1.758  23.450  0.00  0.00    -0.240 NA
ATOM     24  C   UNL     1       0.701   0.302  23.895  0.00  0.00    +0.041 A 
ATOM     26  C   UNL     1       1.233  -0.658  23.041  0.00  0.00    +0.016 A 
ATOM     27  C   UNL     1       1.405   1.482  24.064  0.00  0.00    +0.124 A 
ATOM     28  C   UNL     1       2.438  -0.412  22.392  0.00  0.00    +0.044 A 
ATOM     29  C   UNL     1       3.065   0.801  22.628  0.00  0.00    +0.119 A 
BRANCH  29  10
ATOM     10  N   UNL     1       4.291   1.038  21.960  0.00  0.00    -0.327 N 
ATOM     33  H   UNL     1       4.257   1.653  21.156  0.00  0.00    +0.148 HD
BRANCH  10  30
ATOM     30  C   UNL     1       5.523   0.447  22.377  0.00  0.00    +0.131 C 
BRANCH  30  31
ATOM     31  C   UNL     1       5.638   0.502  23.891  0.00  0.00    +0.178 C 
BRANCH  31   5
ATOM      5  O   UNL     1       5.868  -0.807  24.396  0.00  0.00    -0.381 OA
ATOM     32  C   UNL     1       4.855  -1.712  23.981  0.00  0.00    +0.194 C 
ENDBRANCH  31   5
ENDBRANCH  30  31
ENDBRANCH  10  30
ENDBRANCH  29  10
ENDBRANCH  20  24
BRANCH  16  11
ATOM      6  N   UNL     1      -4.676  -0.966  23.998  0.00  0.00    -0.287 NA
ATOM     11  C   UNL     1      -3.759  -1.381  25.079  0.00  0.00    +0.146 C 
ATOM     12  C   UNL     1      -3.646  -2.909  24.931  0.00  0.00    +0.030 C 
ATOM     13  C   UNL     1      -4.579  -3.268  23.784  0.00  0.00    +0.017 C 
ATOM     14  C   UNL     1      -5.553  -2.108  23.740  0.00  0.00    +0.085 C 
BRANCH   6  15
ATOM     15  C   UNL     1      -5.427   0.242  24.312  0.00  0.00    +0.120 C 
BRANCH  15  17
ATOM     17  C   UNL     1      -4.524   1.433  24.493  0.00  0.00    -0.033 A 
ATOM     18  C   UNL     1      -4.605   2.200  25.654  0.00  0.00    +0.005 A 
ATOM     19  C   UNL     1      -3.605   1.768  23.498  0.00  0.00    +0.005 A 
ATOM     21  C   UNL     1      -3.770   3.304  25.822  0.00  0.00    +0.012 A 
ATOM     22  C   UNL     1      -2.768   2.871  23.666  0.00  0.00    +0.012 A 
ATOM     23  C   UNL     1      -2.850   3.639  24.827  0.00  0.00    +0.055 A 
BRANCH  23  25
ATOM      1  F   UNL     1      -2.015   5.715  23.983  0.00  0.00    -0.166 F 
ATOM      2  F   UNL     1      -0.638   4.465  25.109  0.00  0.00    -0.166 F 
ATOM      3  F   UNL     1      -2.224   5.542  26.134  0.00  0.00    -0.166 F 
ATOM     25  C   UNL     1      -1.953   4.816  25.009  0.00  0.00    +0.417 C 
ENDBRANCH  23  25
ENDBRANCH  15  17
ENDBRANCH   6  15
ENDBRANCH  16  11
TORSDOF 9
ENDMDL
