MODEL 1
REMARK VINA RESULT:      -1.3      0.000      0.000
REMARK  Name = 45361529
REMARK  11 active torsions:
REMARK  status: ('A' for Active; 'I' for Inactive)
REMARK    1  A    between atoms: O_2  and  C_10
REMARK    2  A    between atoms: N_5  and  C_14
REMARK    3  A    between atoms: N_6  and  C_24
REMARK    4  A    between atoms: C_7  and  C_17
REMARK    5  A    between atoms: C_9  and  C_19
REMARK    6  A    between atoms: C_13  and  C_18
REMARK    7  A    between atoms: C_18  and  C_20
REMARK    8  A    between atoms: C_18  and  C_21
REMARK    9  A    between atoms: C_22  and  C_23
REMARK   10  A    between atoms: C_23  and  C_25
REMARK   11  A    between atoms: C_24  and  C_26
REMARK                            x       y       z     vdW  Elec       q    Type
REMARK                         _______ _______ _______ _____ _____    ______ ____
ROOT
ATOM      7  C   UNL     1      -2.237  -0.841  25.291  0.00  0.00    -0.027 C 
ATOM      8  C   UNL     1      -2.414   0.225  24.158  0.00  0.00    +0.028 C 
ATOM      9  C   UNL     1      -1.023   0.797  23.706  0.00  0.00    +0.012 C 
ATOM     10  C   UNL     1      -3.481   1.289  24.546  0.00  0.00    +0.122 C 
ATOM     11  C   UNL     1      -3.611  -1.465  25.631  0.00  0.00    +0.007 C 
ATOM     12  C   UNL     1      -1.320  -1.974  24.778  0.00  0.00    +0.009 C 
ATOM     13  C   UNL     1      -4.821   0.655  24.987  0.00  0.00    +0.029 C 
ATOM     14  C   UNL     1      -0.083  -0.358  23.264  0.00  0.00    +0.076 C 
ATOM     15  C   UNL     1      -4.647  -0.429  26.050  0.00  0.00    +0.007 C 
ATOM     16  C   UNL     1       0.036  -1.475  24.301  0.00  0.00    +0.023 C 
ATOM     17  C   UNL     1      -1.631  -0.237  26.583  0.00  0.00    +0.011 C 
ATOM     19  C   UNL     1      -1.122   1.831  22.572  0.00  0.00    +0.010 C 
ENDROOT
BRANCH  14   5
ATOM      4  O   UNL     1       1.321  -0.672  20.771  0.00  0.00    -0.275 OA
ATOM      5  N   UNL     1       1.247   0.121  22.951  0.00  0.00    -0.312 N 
ATOM     22  C   UNL     1       1.840  -0.081  21.716  0.00  0.00    +0.218 C 
ATOM     35  H   UNL     1       1.774   0.566  23.697  0.00  0.00    +0.149 HD
BRANCH  22  23
ATOM     23  C   UNL     1       3.227   0.529  21.661  0.00  0.00    +0.130 C 
BRANCH  23  25
ATOM     25  C   UNL     1       4.140   0.037  22.753  0.00  0.00    -0.039 A 
ATOM     27  C   UNL     1       5.055   0.910  23.342  0.00  0.00    +0.004 A 
ATOM     28  C   UNL     1       4.070  -1.290  23.174  0.00  0.00    +0.004 A 
ATOM     30  C   UNL     1       5.901   0.454  24.353  0.00  0.00    +0.000 A 
ATOM     31  C   UNL     1       4.916  -1.746  24.186  0.00  0.00    +0.000 A 
ATOM     32  C   UNL     1       5.831  -0.874  24.775  0.00  0.00    +0.000 A 
ENDBRANCH  23  25
ENDBRANCH  22  23
ENDBRANCH  14   5
BRANCH  10   2
ATOM      2  O   UNL     1      -3.771   2.109  23.414  0.00  0.00    -0.391 OA
ATOM     36  H   UNL     1      -3.945   1.527  22.655  0.00  0.00    +0.210 HD
ENDBRANCH  10   2
BRANCH  13  18
ATOM     18  C   UNL     1      -5.813   1.710  25.488  0.00  0.00    +0.077 C 
ATOM     20  C   UNL     1      -7.016   1.785  24.555  0.00  0.00    +0.017 C 
BRANCH  18  21
ATOM      3  O   UNL     1      -5.436   4.037  24.928  0.00  0.00    -0.276 OA
ATOM      6  N   UNL     1      -4.105   3.058  26.557  0.00  0.00    -0.310 N 
ATOM     21  C   UNL     1      -5.118   3.063  25.609  0.00  0.00    +0.216 C 
ATOM     37  H   UNL     1      -3.892   2.199  27.056  0.00  0.00    +0.149 HD
BRANCH   6  24
ATOM     24  C   UNL     1      -3.302   4.223  26.848  0.00  0.00    +0.146 C 
BRANCH  24  26
ATOM      1  S   UNL     1      -0.845   3.110  26.184  0.00  0.00    -0.100 S 
ATOM     26  C   UNL     1      -2.073   4.287  25.988  0.00  0.00    +0.007 A 
ATOM     29  C   UNL     1      -1.759   5.202  25.007  0.00  0.00    +0.013 A 
ATOM     33  C   UNL     1      -0.495   4.933  24.409  0.00  0.00    +0.008 A 
ATOM     34  C   UNL     1       0.111   3.823  24.955  0.00  0.00    +0.045 A 
ENDBRANCH  24  26
ENDBRANCH   6  24
ENDBRANCH  18  21
ENDBRANCH  13  18
TORSDOF 8
ENDMDL
