MODEL 1
REMARK VINA RESULT:      -3.6      0.000      0.000
REMARK  Name = 11883404
REMARK  7 active torsions:
REMARK  status: ('A' for Active; 'I' for Inactive)
REMARK    1  A    between atoms: O_6  and  C_15
REMARK    2  A    between atoms: O_6  and  C_19
REMARK    3  A    between atoms: N_9  and  C_14
REMARK    4  A    between atoms: N_10  and  C_20
REMARK    5  A    between atoms: N_11  and  C_21
REMARK    6  A    between atoms: C_20  and  C_22
REMARK    7  A    between atoms: C_25  and  C_28
REMARK                            x       y       z     vdW  Elec       q    Type
REMARK                         _______ _______ _______ _____ _____    ______ ____
ROOT
ATOM      4  O   UNL     1      -2.003  -0.517  25.244  0.00  0.00    -0.368 OA
ATOM      5  O   UNL     1      -1.487  -3.193  23.838  0.00  0.00    -0.368 OA
ATOM     12  C   UNL     1      -1.088  -1.846  23.506  0.00  0.00    +0.173 C 
ATOM     13  C   UNL     1      -2.241  -0.940  23.891  0.00  0.00    +0.192 C 
ATOM     14  C   UNL     1       0.039  -1.401  24.408  0.00  0.00    +0.131 C 
ATOM     15  C   UNL     1      -3.429  -1.866  23.795  0.00  0.00    +0.235 C 
ATOM     16  C   UNL     1      -0.702  -0.963  25.659  0.00  0.00    +0.185 C 
ATOM     17  C   UNL     1      -2.853  -3.178  24.277  0.00  0.00    +0.207 C 
ENDROOT
BRANCH  14   9
ATOM      7  O   UNL     1       2.789  -1.428  23.529  0.00  0.00    -0.253 OA
ATOM      9  N   UNL     1       0.776  -0.307  23.824  0.00  0.00    -0.292 N 
ATOM     10  N   UNL     1       2.571   0.794  22.896  0.00  0.00    -0.300 N 
ATOM     18  C   UNL     1       2.108  -0.408  23.427  0.00  0.00    +0.300 C 
ATOM     29  H   UNL     1       0.284   0.560  23.635  0.00  0.00    +0.151 HD
ATOM     30  H   UNL     1       1.933   1.582  22.843  0.00  0.00    +0.150 HD
BRANCH  10  20
ATOM     20  C   UNL     1       3.919   0.965  22.407  0.00  0.00    +0.102 C 
ATOM     22  C   UNL     1       4.942   0.544  23.441  0.00  0.00    +0.024 C 
ENDBRANCH  10  20
ENDBRANCH  14   9
BRANCH  15   6
ATOM      6  O   UNL     1      -4.529  -1.452  24.573  0.00  0.00    -0.442 OA
BRANCH   6  19
ATOM      8  O   UNL     1      -4.375  -0.272  26.526  0.00  0.00    -0.226 OA
ATOM     11  N   UNL     1      -4.236   0.781  24.439  0.00  0.00    -0.251 N 
ATOM     19  C   UNL     1      -4.377  -0.290  25.301  0.00  0.00    +0.405 C 
ATOM     31  H   UNL     1      -4.264   0.564  23.445  0.00  0.00    +0.158 HD
BRANCH  11  21
ATOM     21  C   UNL     1      -4.056   2.144  24.767  0.00  0.00    +0.037 A 
ATOM     23  C   UNL     1      -2.780   2.707  24.733  0.00  0.00    +0.035 A 
ATOM     24  C   UNL     1      -5.154   2.925  25.124  0.00  0.00    +0.023 A 
ATOM     25  C   UNL     1      -2.603   4.053  25.057  0.00  0.00    +0.057 A 
ATOM     26  C   UNL     1      -4.977   4.270  25.449  0.00  0.00    +0.002 A 
ATOM     27  C   UNL     1      -3.701   4.834  25.415  0.00  0.00    +0.012 A 
BRANCH  25  28
ATOM      1  F   UNL     1      -0.636   4.571  23.797  0.00  0.00    -0.166 F 
ATOM      2  F   UNL     1      -1.219   5.983  25.337  0.00  0.00    -0.166 F 
ATOM      3  F   UNL     1      -0.377   4.057  25.895  0.00  0.00    -0.166 F 
ATOM     28  C   UNL     1      -1.239   4.654  25.021  0.00  0.00    +0.417 C 
ENDBRANCH  25  28
ENDBRANCH  11  21
ENDBRANCH   6  19
ENDBRANCH  15   6
TORSDOF 6
ENDMDL
MODEL 2
REMARK VINA RESULT:      -3.3      3.335      4.851
REMARK  Name = 11883404
REMARK  7 active torsions:
REMARK  status: ('A' for Active; 'I' for Inactive)
REMARK    1  A    between atoms: O_6  and  C_15
REMARK    2  A    between atoms: O_6  and  C_19
REMARK    3  A    between atoms: N_9  and  C_14
REMARK    4  A    between atoms: N_10  and  C_20
REMARK    5  A    between atoms: N_11  and  C_21
REMARK    6  A    between atoms: C_20  and  C_22
REMARK    7  A    between atoms: C_25  and  C_28
REMARK                            x       y       z     vdW  Elec       q    Type
REMARK                         _______ _______ _______ _____ _____    ______ ____
ROOT
ATOM      4  O   UNL     1      -0.464   2.541  25.758  0.00  0.00    -0.368 OA
ATOM      5  O   UNL     1      -1.154   3.449  22.911  0.00  0.00    -0.368 OA
ATOM     12  C   UNL     1       0.112   3.315  23.592  0.00  0.00    +0.173 C 
ATOM     13  C   UNL     1      -0.118   3.732  25.031  0.00  0.00    +0.192 C 
ATOM     14  C   UNL     1       0.495   1.857  23.694  0.00  0.00    +0.131 C 
ATOM     15  C   UNL     1      -1.288   4.677  24.914  0.00  0.00    +0.235 C 
ATOM     16  C   UNL     1      -0.300   1.398  24.904  0.00  0.00    +0.185 C 
ATOM     17  C   UNL     1      -2.103   4.043  23.809  0.00  0.00    +0.207 C 
ENDROOT
BRANCH  14   9
ATOM      7  O   UNL     1       2.286   0.095  22.273  0.00  0.00    -0.253 OA
ATOM      9  N   UNL     1       1.913   1.702  23.907  0.00  0.00    -0.292 N 
ATOM     10  N   UNL     1       4.035   0.874  23.583  0.00  0.00    -0.300 N 
ATOM     18  C   UNL     1       2.705   0.823  23.172  0.00  0.00    +0.300 C 
ATOM     29  H   UNL     1       2.369   2.307  24.582  0.00  0.00    +0.151 HD
ATOM     30  H   UNL     1       4.292   1.513  24.328  0.00  0.00    +0.150 HD
BRANCH  10  20
ATOM     20  C   UNL     1       5.070   0.063  22.986  0.00  0.00    +0.102 C 
ATOM     22  C   UNL     1       5.786  -0.777  24.023  0.00  0.00    +0.024 C 
ENDBRANCH  10  20
ENDBRANCH  14   9
BRANCH  15   6
ATOM      6  O   UNL     1      -2.026   4.809  26.109  0.00  0.00    -0.442 OA
BRANCH   6  19
ATOM      8  O   UNL     1      -3.820   3.989  27.265  0.00  0.00    -0.226 OA
ATOM     11  N   UNL     1      -3.117   3.032  25.247  0.00  0.00    -0.251 N 
ATOM     19  C   UNL     1      -3.074   3.931  26.296  0.00  0.00    +0.405 C 
ATOM     31  H   UNL     1      -2.405   3.146  24.529  0.00  0.00    +0.158 HD
BRANCH  11  21
ATOM     21  C   UNL     1      -4.030   1.972  25.047  0.00  0.00    +0.037 A 
ATOM     23  C   UNL     1      -3.558   0.676  24.836  0.00  0.00    +0.035 A 
ATOM     24  C   UNL     1      -5.401   2.221  25.061  0.00  0.00    +0.023 A 
ATOM     25  C   UNL     1      -4.459  -0.371  24.640  0.00  0.00    +0.057 A 
ATOM     26  C   UNL     1      -6.303   1.175  24.864  0.00  0.00    +0.002 A 
ATOM     27  C   UNL     1      -5.831  -0.121  24.653  0.00  0.00    +0.012 A 
BRANCH  25  28
ATOM      1  F   UNL     1      -3.853  -2.494  25.560  0.00  0.00    -0.166 F 
ATOM      2  F   UNL     1      -4.745  -2.498  23.583  0.00  0.00    -0.166 F 
ATOM      3  F   UNL     1      -2.711  -1.778  23.853  0.00  0.00    -0.166 F 
ATOM     28  C   UNL     1      -3.955  -1.756  24.415  0.00  0.00    +0.417 C 
ENDBRANCH  25  28
ENDBRANCH  11  21
ENDBRANCH   6  19
ENDBRANCH  15   6
TORSDOF 6
ENDMDL
MODEL 3
REMARK VINA RESULT:      -3.1      1.454      2.054
REMARK  Name = 11883404
REMARK  7 active torsions:
REMARK  status: ('A' for Active; 'I' for Inactive)
REMARK    1  A    between atoms: O_6  and  C_15
REMARK    2  A    between atoms: O_6  and  C_19
REMARK    3  A    between atoms: N_9  and  C_14
REMARK    4  A    between atoms: N_10  and  C_20
REMARK    5  A    between atoms: N_11  and  C_21
REMARK    6  A    between atoms: C_20  and  C_22
REMARK    7  A    between atoms: C_25  and  C_28
REMARK                            x       y       z     vdW  Elec       q    Type
REMARK                         _______ _______ _______ _____ _____    ______ ____
ROOT
ATOM      4  O   UNL     1      -2.039  -0.849  23.562  0.00  0.00    -0.368 OA
ATOM      5  O   UNL     1      -1.240  -1.035  26.517  0.00  0.00    -0.368 OA
ATOM     12  C   UNL     1      -0.538  -1.405  25.312  0.00  0.00    +0.173 C 
ATOM     13  C   UNL     1      -1.573  -1.956  24.352  0.00  0.00    +0.192 C 
ATOM     14  C   UNL     1      -0.019  -0.170  24.614  0.00  0.00    +0.131 C 
ATOM     15  C   UNL     1      -2.644  -2.467  25.285  0.00  0.00    +0.235 C 
ATOM     16  C   UNL     1      -1.242   0.310  23.853  0.00  0.00    +0.185 C 
ATOM     17  C   UNL     1      -2.610  -1.447  26.400  0.00  0.00    +0.207 C 
ENDROOT
BRANCH  14   9
ATOM      7  O   UNL     1       2.191   1.533  23.872  0.00  0.00    -0.253 OA
ATOM      9  N   UNL     1       1.064  -0.492  23.717  0.00  0.00    -0.292 N 
ATOM     10  N   UNL     1       3.005  -0.171  22.523  0.00  0.00    -0.300 N 
ATOM     18  C   UNL     1       2.095   0.395  23.413  0.00  0.00    +0.300 C 
ATOM     29  H   UNL     1       1.113  -1.432  23.337  0.00  0.00    +0.151 HD
ATOM     30  H   UNL     1       2.849  -1.122  22.204  0.00  0.00    +0.150 HD
BRANCH  10  20
ATOM     20  C   UNL     1       4.170   0.534  22.042  0.00  0.00    +0.102 C 
ATOM     22  C   UNL     1       5.336   0.397  22.999  0.00  0.00    +0.024 C 
ENDBRANCH  10  20
ENDBRANCH  14   9
BRANCH  15   6
ATOM      6  O   UNL     1      -3.917  -2.557  24.686  0.00  0.00    -0.442 OA
BRANCH   6  19
ATOM      8  O   UNL     1      -5.289  -1.260  23.396  0.00  0.00    -0.226 OA
ATOM     11  N   UNL     1      -4.170  -0.390  25.260  0.00  0.00    -0.251 N 
ATOM     19  C   UNL     1      -4.537  -1.370  24.356  0.00  0.00    +0.405 C 
ATOM     31  H   UNL     1      -3.530  -0.676  25.997  0.00  0.00    +0.158 HD
BRANCH  11  21
ATOM     21  C   UNL     1      -4.576   0.964  25.287  0.00  0.00    +0.037 A 
ATOM     23  C   UNL     1      -3.633   1.978  25.118  0.00  0.00    +0.035 A 
ATOM     24  C   UNL     1      -5.918   1.284  25.483  0.00  0.00    +0.023 A 
ATOM     25  C   UNL     1      -4.034   3.314  25.144  0.00  0.00    +0.057 A 
ATOM     26  C   UNL     1      -6.320   2.620  25.511  0.00  0.00    +0.002 A 
ATOM     27  C   UNL     1      -5.377   3.635  25.341  0.00  0.00    +0.012 A 
BRANCH  25  28
ATOM      1  F   UNL     1      -2.813   5.141  26.089  0.00  0.00    -0.166 F 
ATOM      2  F   UNL     1      -1.791   3.942  24.598  0.00  0.00    -0.166 F 
ATOM      3  F   UNL     1      -3.385   5.293  23.997  0.00  0.00    -0.166 F 
ATOM     28  C   UNL     1      -3.027   4.398  24.963  0.00  0.00    +0.417 C 
ENDBRANCH  25  28
ENDBRANCH  11  21
ENDBRANCH   6  19
ENDBRANCH  15   6
TORSDOF 6
ENDMDL
MODEL 4
REMARK VINA RESULT:      -3.1     15.327     17.982
REMARK  Name = 11883404
REMARK  7 active torsions:
REMARK  status: ('A' for Active; 'I' for Inactive)
REMARK    1  A    between atoms: O_6  and  C_15
REMARK    2  A    between atoms: O_6  and  C_19
REMARK    3  A    between atoms: N_9  and  C_14
REMARK    4  A    between atoms: N_10  and  C_20
REMARK    5  A    between atoms: N_11  and  C_21
REMARK    6  A    between atoms: C_20  and  C_22
REMARK    7  A    between atoms: C_25  and  C_28
REMARK                            x       y       z     vdW  Elec       q    Type
REMARK                         _______ _______ _______ _____ _____    ______ ____
ROOT
ATOM      4  O   UNL     1      -6.513  -9.462  11.446  0.00  0.00    -0.368 OA
ATOM      5  O   UNL     1      -9.336 -10.097  10.431  0.00  0.00    -0.368 OA
ATOM     12  C   UNL     1      -8.557 -10.661  11.508  0.00  0.00    +0.173 C 
ATOM     13  C   UNL     1      -7.118 -10.699  11.035  0.00  0.00    +0.192 C 
ATOM     14  C   UNL     1      -8.528  -9.709  12.681  0.00  0.00    +0.131 C 
ATOM     15  C   UNL     1      -7.269 -10.778   9.536  0.00  0.00    +0.235 C 
ATOM     16  C   UNL     1      -7.430  -8.739  12.283  0.00  0.00    +0.185 C 
ATOM     17  C   UNL     1      -8.485  -9.913   9.291  0.00  0.00    +0.207 C 
ENDROOT
BRANCH  14   9
ATOM      7  O   UNL     1      -9.171  -8.878  15.370  0.00  0.00    -0.253 OA
ATOM      9  N   UNL     1      -8.202 -10.399  13.906  0.00  0.00    -0.292 N 
ATOM     10  N   UNL     1      -8.114 -10.781  16.173  0.00  0.00    -0.300 N 
ATOM     18  C   UNL     1      -8.552  -9.922  15.167  0.00  0.00    +0.300 C 
ATOM     29  H   UNL     1      -7.750 -11.305  13.844  0.00  0.00    +0.151 HD
ATOM     30  H   UNL     1      -7.619 -11.627  15.911  0.00  0.00    +0.150 HD
BRANCH  10  20
ATOM     20  C   UNL     1      -8.346 -10.526  17.576  0.00  0.00    +0.102 C 
ATOM     22  C   UNL     1      -7.102  -9.994  18.256  0.00  0.00    +0.024 C 
ENDBRANCH  10  20
ENDBRANCH  14   9
BRANCH  15   6
ATOM      6  O   UNL     1      -6.138 -10.316   8.831  0.00  0.00    -0.442 OA
BRANCH   6  19
ATOM      8  O   UNL     1      -5.016  -8.455   9.541  0.00  0.00    -0.226 OA
ATOM     11  N   UNL     1      -4.441 -10.597  10.290  0.00  0.00    -0.251 N 
ATOM     19  C   UNL     1      -5.166  -9.670   9.566  0.00  0.00    +0.405 C 
ATOM     31  H   UNL     1      -4.719 -11.570  10.179  0.00  0.00    +0.158 HD
BRANCH  11  21
ATOM     21  C   UNL     1      -3.359 -10.362  11.169  0.00  0.00    +0.037 A 
ATOM     23  C   UNL     1      -2.215  -9.709  10.708  0.00  0.00    +0.035 A 
ATOM     24  C   UNL     1      -3.436 -10.781  12.496  0.00  0.00    +0.023 A 
ATOM     25  C   UNL     1      -1.148  -9.476  11.576  0.00  0.00    +0.057 A 
ATOM     26  C   UNL     1      -2.369 -10.549  13.364  0.00  0.00    +0.002 A 
ATOM     27  C   UNL     1      -1.225  -9.897  12.903  0.00  0.00    +0.012 A 
BRANCH  25  28
ATOM      1  F   UNL     1       0.458  -7.727  11.865  0.00  0.00    -0.166 F 
ATOM      2  F   UNL     1       1.173  -9.587  11.010  0.00  0.00    -0.166 F 
ATOM      3  F   UNL     1      -0.084  -8.264   9.829  0.00  0.00    -0.166 F 
ATOM     28  C   UNL     1       0.074  -8.779  11.083  0.00  0.00    +0.417 C 
ENDBRANCH  25  28
ENDBRANCH  11  21
ENDBRANCH   6  19
ENDBRANCH  15   6
TORSDOF 6
ENDMDL
MODEL 5
REMARK VINA RESULT:      -2.5     15.011     17.644
REMARK  Name = 11883404
REMARK  7 active torsions:
REMARK  status: ('A' for Active; 'I' for Inactive)
REMARK    1  A    between atoms: O_6  and  C_15
REMARK    2  A    between atoms: O_6  and  C_19
REMARK    3  A    between atoms: N_9  and  C_14
REMARK    4  A    between atoms: N_10  and  C_20
REMARK    5  A    between atoms: N_11  and  C_21
REMARK    6  A    between atoms: C_20  and  C_22
REMARK    7  A    between atoms: C_25  and  C_28
REMARK                            x       y       z     vdW  Elec       q    Type
REMARK                         _______ _______ _______ _____ _____    ______ ____
ROOT
ATOM      4  O   UNL     1      -5.279  -9.295  11.260  0.00  0.00    -0.368 OA
ATOM      5  O   UNL     1      -5.748  -9.519   8.238  0.00  0.00    -0.368 OA
ATOM     12  C   UNL     1      -6.393 -10.165   9.356  0.00  0.00    +0.173 C 
ATOM     13  C   UNL     1      -5.315 -10.437  10.387  0.00  0.00    +0.192 C 
ATOM     14  C   UNL     1      -7.322  -9.198  10.050  0.00  0.00    +0.131 C 
ATOM     15  C   UNL     1      -4.070 -10.533   9.540  0.00  0.00    +0.235 C 
ATOM     16  C   UNL     1      -6.371  -8.418  10.941  0.00  0.00    +0.185 C 
ATOM     17  C   UNL     1      -4.332  -9.499   8.468  0.00  0.00    +0.207 C 
ENDROOT
BRANCH  14   9
ATOM      7  O   UNL     1      -7.670  -9.108  12.914  0.00  0.00    -0.253 OA
ATOM      9  N   UNL     1      -8.318  -9.894  10.827  0.00  0.00    -0.292 N 
ATOM     10  N   UNL     1      -9.461 -10.568  12.707  0.00  0.00    -0.300 N 
ATOM     18  C   UNL     1      -8.414  -9.794  12.213  0.00  0.00    +0.300 C 
ATOM     29  H   UNL     1      -9.023 -10.435  10.336  0.00  0.00    +0.151 HD
ATOM     30  H   UNL     1     -10.030 -11.096  12.051  0.00  0.00    +0.150 HD
BRANCH  10  20
ATOM     20  C   UNL     1      -9.783 -10.645  14.112  0.00  0.00    +0.102 C 
ATOM     22  C   UNL     1     -10.636  -9.473  14.552  0.00  0.00    +0.024 C 
ENDBRANCH  10  20
ENDBRANCH  14   9
BRANCH  15   6
ATOM      6  O   UNL     1      -2.883 -10.269  10.253  0.00  0.00    -0.442 OA
BRANCH   6  19
ATOM      8  O   UNL     1      -3.158  -8.543  11.727  0.00  0.00    -0.226 OA
ATOM     11  N   UNL     1      -2.975 -10.762  12.452  0.00  0.00    -0.251 N 
ATOM     19  C   UNL     1      -3.019  -9.742  11.520  0.00  0.00    +0.405 C 
ATOM     31  H   UNL     1      -2.854 -11.702  12.083  0.00  0.00    +0.158 HD
BRANCH  11  21
ATOM     21  C   UNL     1      -3.078 -10.660  13.858  0.00  0.00    +0.037 A 
ATOM     23  C   UNL     1      -4.321 -10.440  14.453  0.00  0.00    +0.035 A 
ATOM     24  C   UNL     1      -1.937 -10.781  14.650  0.00  0.00    +0.023 A 
ATOM     25  C   UNL     1      -4.422 -10.340  15.840  0.00  0.00    +0.057 A 
ATOM     26  C   UNL     1      -2.038 -10.681  16.038  0.00  0.00    +0.002 A 
ATOM     27  C   UNL     1      -3.281 -10.460  16.633  0.00  0.00    +0.012 A 
BRANCH  25  28
ATOM      1  F   UNL     1      -6.030  -8.784  16.686  0.00  0.00    -0.166 F 
ATOM      2  F   UNL     1      -6.800 -10.578  15.740  0.00  0.00    -0.166 F 
ATOM      3  F   UNL     1      -5.862 -10.701  17.698  0.00  0.00    -0.166 F 
ATOM     28  C   UNL     1      -5.750 -10.105  16.475  0.00  0.00    +0.417 C 
ENDBRANCH  25  28
ENDBRANCH  11  21
ENDBRANCH   6  19
ENDBRANCH  15   6
TORSDOF 6
ENDMDL
MODEL 6
REMARK VINA RESULT:      -2.4      3.058      5.481
REMARK  Name = 11883404
REMARK  7 active torsions:
REMARK  status: ('A' for Active; 'I' for Inactive)
REMARK    1  A    between atoms: O_6  and  C_15
REMARK    2  A    between atoms: O_6  and  C_19
REMARK    3  A    between atoms: N_9  and  C_14
REMARK    4  A    between atoms: N_10  and  C_20
REMARK    5  A    between atoms: N_11  and  C_21
REMARK    6  A    between atoms: C_20  and  C_22
REMARK    7  A    between atoms: C_25  and  C_28
REMARK                            x       y       z     vdW  Elec       q    Type
REMARK                         _______ _______ _______ _____ _____    ______ ____
ROOT
ATOM      4  O   UNL     1      -3.320   3.245  24.145  0.00  0.00    -0.368 OA
ATOM      5  O   UNL     1      -3.208   5.248  26.464  0.00  0.00    -0.368 OA
ATOM     12  C   UNL     1      -2.413   4.080  26.170  0.00  0.00    +0.173 C 
ATOM     13  C   UNL     1      -3.350   3.051  25.569  0.00  0.00    +0.192 C 
ATOM     14  C   UNL     1      -1.441   4.381  25.054  0.00  0.00    +0.131 C 
ATOM     15  C   UNL     1      -4.684   3.440  26.159  0.00  0.00    +0.235 C 
ATOM     16  C   UNL     1      -2.305   4.207  23.817  0.00  0.00    +0.185 C 
ATOM     17  C   UNL     1      -4.587   4.949  26.202  0.00  0.00    +0.207 C 
ENDROOT
BRANCH  14   9
ATOM      7  O   UNL     1      -0.948   2.254  23.165  0.00  0.00    -0.253 OA
ATOM      9  N   UNL     1      -0.336   3.453  25.058  0.00  0.00    -0.292 N 
ATOM     10  N   UNL     1       0.972   1.700  24.343  0.00  0.00    -0.300 N 
ATOM     18  C   UNL     1      -0.176   2.451  24.102  0.00  0.00    +0.300 C 
ATOM     29  H   UNL     1       0.393   3.573  25.753  0.00  0.00    +0.151 HD
ATOM     30  H   UNL     1       1.556   1.942  25.137  0.00  0.00    +0.150 HD
BRANCH  10  20
ATOM     20  C   UNL     1       1.376   0.598  23.502  0.00  0.00    +0.102 C 
ATOM     22  C   UNL     1       2.792   0.776  22.995  0.00  0.00    +0.024 C 
ENDBRANCH  10  20
ENDBRANCH  14   9
BRANCH  15   6
ATOM      6  O   UNL     1      -5.786   3.001  25.397  0.00  0.00    -0.442 OA
BRANCH   6  19
ATOM      8  O   UNL     1      -6.662   1.194  24.304  0.00  0.00    -0.226 OA
ATOM     11  N   UNL     1      -4.487   1.170  25.172  0.00  0.00    -0.251 N 
ATOM     19  C   UNL     1      -5.726   1.717  24.896  0.00  0.00    +0.405 C 
ATOM     31  H   UNL     1      -3.836   1.766  25.678  0.00  0.00    +0.158 HD
BRANCH  11  21
ATOM     21  C   UNL     1      -4.011  -0.118  24.837  0.00  0.00    +0.037 A 
ATOM     23  C   UNL     1      -2.683  -0.460  25.096  0.00  0.00    +0.035 A 
ATOM     24  C   UNL     1      -4.868  -1.046  24.247  0.00  0.00    +0.023 A 
ATOM     25  C   UNL     1      -2.214  -1.732  24.766  0.00  0.00    +0.057 A 
ATOM     26  C   UNL     1      -4.399  -2.317  23.916  0.00  0.00    +0.002 A 
ATOM     27  C   UNL     1      -3.071  -2.659  24.176  0.00  0.00    +0.012 A 
BRANCH  25  28
ATOM      1  F   UNL     1      -0.257  -1.433  26.109  0.00  0.00    -0.166 F 
ATOM      2  F   UNL     1      -0.616  -3.422  25.324  0.00  0.00    -0.166 F 
ATOM      3  F   UNL     1       0.032  -1.831  23.991  0.00  0.00    -0.166 F 
ATOM     28  C   UNL     1      -0.796  -2.097  25.044  0.00  0.00    +0.417 C 
ENDBRANCH  25  28
ENDBRANCH  11  21
ENDBRANCH   6  19
ENDBRANCH  15   6
TORSDOF 6
ENDMDL
MODEL 7
REMARK VINA RESULT:      -2.2      3.151      6.323
REMARK  Name = 11883404
REMARK  7 active torsions:
REMARK  status: ('A' for Active; 'I' for Inactive)
REMARK    1  A    between atoms: O_6  and  C_15
REMARK    2  A    between atoms: O_6  and  C_19
REMARK    3  A    between atoms: N_9  and  C_14
REMARK    4  A    between atoms: N_10  and  C_20
REMARK    5  A    between atoms: N_11  and  C_21
REMARK    6  A    between atoms: C_20  and  C_22
REMARK    7  A    between atoms: C_25  and  C_28
REMARK                            x       y       z     vdW  Elec       q    Type
REMARK                         _______ _______ _______ _____ _____    ______ ____
ROOT
ATOM      4  O   UNL     1      -2.197   0.200  23.737  0.00  0.00    -0.368 OA
ATOM      5  O   UNL     1      -4.812  -1.188  24.536  0.00  0.00    -0.368 OA
ATOM     12  C   UNL     1      -4.099  -0.080  25.125  0.00  0.00    +0.173 C 
ATOM     13  C   UNL     1      -2.621  -0.383  24.981  0.00  0.00    +0.192 C 
ATOM     14  C   UNL     1      -4.297   1.165  24.293  0.00  0.00    +0.131 C 
ATOM     15  C   UNL     1      -2.600  -1.891  24.928  0.00  0.00    +0.235 C 
ATOM     16  C   UNL     1      -3.269   0.982  23.189  0.00  0.00    +0.185 C 
ATOM     17  C   UNL     1      -3.867  -2.201  24.163  0.00  0.00    +0.207 C 
ENDROOT
BRANCH  14   9
ATOM      7  O   UNL     1      -2.388   3.244  23.685  0.00  0.00    -0.253 OA
ATOM      9  N   UNL     1      -4.033   2.356  25.063  0.00  0.00    -0.292 N 
ATOM     10  N   UNL     1      -3.039   4.357  25.614  0.00  0.00    -0.300 N 
ATOM     18  C   UNL     1      -3.088   3.312  24.694  0.00  0.00    +0.300 C 
ATOM     29  H   UNL     1      -4.607   2.540  25.880  0.00  0.00    +0.151 HD
ATOM     30  H   UNL     1      -3.663   4.333  26.415  0.00  0.00    +0.150 HD
BRANCH  10  20
ATOM     20  C   UNL     1      -2.144   5.482  25.473  0.00  0.00    +0.102 C 
ATOM     22  C   UNL     1      -0.776   5.047  24.990  0.00  0.00    +0.024 C 
ENDBRANCH  10  20
ENDBRANCH  14   9
BRANCH  15   6
ATOM      6  O   UNL     1      -1.456  -2.416  24.295  0.00  0.00    -0.442 OA
BRANCH   6  19
ATOM      8  O   UNL     1       0.289  -1.919  25.686  0.00  0.00    -0.226 OA
ATOM     11  N   UNL     1       0.208  -1.127  23.484  0.00  0.00    -0.251 N 
ATOM     19  C   UNL     1      -0.249  -1.818  24.590  0.00  0.00    +0.405 C 
ATOM     31  H   UNL     1      -0.384  -1.162  22.657  0.00  0.00    +0.158 HD
BRANCH  11  21
ATOM     21  C   UNL     1       1.400  -0.378  23.357  0.00  0.00    +0.037 A 
ATOM     23  C   UNL     1       2.634  -0.985  23.591  0.00  0.00    +0.035 A 
ATOM     24  C   UNL     1       1.341   0.968  22.998  0.00  0.00    +0.023 A 
ATOM     25  C   UNL     1       3.810  -0.245  23.466  0.00  0.00    +0.057 A 
ATOM     26  C   UNL     1       2.517   1.709  22.873  0.00  0.00    +0.002 A 
ATOM     27  C   UNL     1       3.751   1.102  23.107  0.00  0.00    +0.012 A 
BRANCH  25  28
ATOM      1  F   UNL     1       5.654  -0.610  24.945  0.00  0.00    -0.166 F 
ATOM      2  F   UNL     1       5.089  -2.258  23.653  0.00  0.00    -0.166 F 
ATOM      3  F   UNL     1       6.081  -0.514  22.815  0.00  0.00    -0.166 F 
ATOM     28  C   UNL     1       5.129  -0.893  23.716  0.00  0.00    +0.417 C 
ENDBRANCH  25  28
ENDBRANCH  11  21
ENDBRANCH   6  19
ENDBRANCH  15   6
TORSDOF 6
ENDMDL
MODEL 8
REMARK VINA RESULT:      -1.8      2.989      6.483
REMARK  Name = 11883404
REMARK  7 active torsions:
REMARK  status: ('A' for Active; 'I' for Inactive)
REMARK    1  A    between atoms: O_6  and  C_15
REMARK    2  A    between atoms: O_6  and  C_19
REMARK    3  A    between atoms: N_9  and  C_14
REMARK    4  A    between atoms: N_10  and  C_20
REMARK    5  A    between atoms: N_11  and  C_21
REMARK    6  A    between atoms: C_20  and  C_22
REMARK    7  A    between atoms: C_25  and  C_28
REMARK                            x       y       z     vdW  Elec       q    Type
REMARK                         _______ _______ _______ _____ _____    ______ ____
ROOT
ATOM      4  O   UNL     1      -2.717   2.054  25.746  0.00  0.00    -0.368 OA
ATOM      5  O   UNL     1      -4.729   4.090  24.646  0.00  0.00    -0.368 OA
ATOM     12  C   UNL     1      -4.287   2.813  24.139  0.00  0.00    +0.173 C 
ATOM     13  C   UNL     1      -2.811   2.699  24.464  0.00  0.00    +0.192 C 
ATOM     14  C   UNL     1      -4.920   1.693  24.930  0.00  0.00    +0.131 C 
ATOM     15  C   UNL     1      -2.379   4.144  24.532  0.00  0.00    +0.235 C 
ATOM     16  C   UNL     1      -4.022   1.613  26.152  0.00  0.00    +0.185 C 
ATOM     17  C   UNL     1      -3.591   4.812  25.140  0.00  0.00    +0.207 C 
ENDROOT
BRANCH  14   9
ATOM      7  O   UNL     1      -3.707  -0.803  25.725  0.00  0.00    -0.253 OA
ATOM      9  N   UNL     1      -4.908   0.456  24.187  0.00  0.00    -0.292 N 
ATOM     10  N   UNL     1      -4.433  -1.750  23.735  0.00  0.00    -0.300 N 
ATOM     18  C   UNL     1      -4.295  -0.707  24.649  0.00  0.00    +0.300 C 
ATOM     29  H   UNL     1      -5.424   0.412  23.314  0.00  0.00    +0.151 HD
ATOM     30  H   UNL     1      -4.944  -1.580  22.874  0.00  0.00    +0.150 HD
BRANCH  10  20
ATOM     20  C   UNL     1      -3.891  -3.068  23.966  0.00  0.00    +0.102 C 
ATOM     22  C   UNL     1      -2.404  -3.015  24.251  0.00  0.00    +0.024 C 
ENDBRANCH  10  20
ENDBRANCH  14   9
BRANCH  15   6
ATOM      6  O   UNL     1      -1.217   4.348  25.305  0.00  0.00    -0.442 OA
BRANCH   6  19
ATOM      8  O   UNL     1       0.397   3.100  26.337  0.00  0.00    -0.226 OA
ATOM     11  N   UNL     1      -0.365   2.585  24.184  0.00  0.00    -0.251 N 
ATOM     19  C   UNL     1      -0.315   3.306  25.362  0.00  0.00    +0.405 C 
ATOM     31  H   UNL     1      -1.027   2.914  23.485  0.00  0.00    +0.158 HD
BRANCH  11  21
ATOM     21  C   UNL     1       0.391   1.445  23.829  0.00  0.00    +0.037 A 
ATOM     23  C   UNL     1       1.724   1.585  23.442  0.00  0.00    +0.035 A 
ATOM     24  C   UNL     1      -0.195   0.181  23.867  0.00  0.00    +0.023 A 
ATOM     25  C   UNL     1       2.470   0.459  23.092  0.00  0.00    +0.057 A 
ATOM     26  C   UNL     1       0.550  -0.945  23.517  0.00  0.00    +0.002 A 
ATOM     27  C   UNL     1       1.883  -0.805  23.130  0.00  0.00    +0.012 A 
BRANCH  25  28
ATOM      1  F   UNL     1       4.075   0.600  21.324  0.00  0.00    -0.166 F 
ATOM      2  F   UNL     1       4.470   1.772  23.106  0.00  0.00    -0.166 F 
ATOM      3  F   UNL     1       4.690  -0.391  23.159  0.00  0.00    -0.166 F 
ATOM     28  C   UNL     1       3.895   0.609  22.678  0.00  0.00    +0.417 C 
ENDBRANCH  25  28
ENDBRANCH  11  21
ENDBRANCH   6  19
ENDBRANCH  15   6
TORSDOF 6
ENDMDL
MODEL 9
REMARK VINA RESULT:      -1.0      3.672      5.789
REMARK  Name = 11883404
REMARK  7 active torsions:
REMARK  status: ('A' for Active; 'I' for Inactive)
REMARK    1  A    between atoms: O_6  and  C_15
REMARK    2  A    between atoms: O_6  and  C_19
REMARK    3  A    between atoms: N_9  and  C_14
REMARK    4  A    between atoms: N_10  and  C_20
REMARK    5  A    between atoms: N_11  and  C_21
REMARK    6  A    between atoms: C_20  and  C_22
REMARK    7  A    between atoms: C_25  and  C_28
REMARK                            x       y       z     vdW  Elec       q    Type
REMARK                         _______ _______ _______ _____ _____    ______ ____
ROOT
ATOM      4  O   UNL     1      -2.671   2.190  25.862  0.00  0.00    -0.368 OA
ATOM      5  O   UNL     1      -2.934   4.599  23.982  0.00  0.00    -0.368 OA
ATOM     12  C   UNL     1      -2.149   4.399  25.178  0.00  0.00    +0.173 C 
ATOM     13  C   UNL     1      -2.993   3.567  26.122  0.00  0.00    +0.192 C 
ATOM     14  C   UNL     1      -0.962   3.516  24.878  0.00  0.00    +0.131 C 
ATOM     15  C   UNL     1      -4.398   3.905  25.688  0.00  0.00    +0.235 C 
ATOM     16  C   UNL     1      -1.569   2.125  24.943  0.00  0.00    +0.185 C 
ATOM     17  C   UNL     1      -4.244   4.054  24.192  0.00  0.00    +0.207 C 
ENDROOT
BRANCH  14   9
ATOM      7  O   UNL     1      -0.072   1.567  26.813  0.00  0.00    -0.253 OA
ATOM      9  N   UNL     1       0.077   3.682  25.865  0.00  0.00    -0.292 N 
ATOM     10  N   UNL     1       1.470   3.110  27.605  0.00  0.00    -0.300 N 
ATOM     18  C   UNL     1       0.443   2.684  26.765  0.00  0.00    +0.300 C 
ATOM     29  H   UNL     1       0.610   4.546  25.864  0.00  0.00    +0.151 HD
ATOM     30  H   UNL     1       1.841   4.048  27.486  0.00  0.00    +0.150 HD
BRANCH  10  20
ATOM     20  C   UNL     1       2.040   2.270  28.632  0.00  0.00    +0.102 C 
ATOM     22  C   UNL     1       1.371   2.499  29.971  0.00  0.00    +0.024 C 
ENDBRANCH  10  20
ENDBRANCH  14   9
BRANCH  15   6
ATOM      6  O   UNL     1      -5.345   2.917  26.029  0.00  0.00    -0.442 OA
BRANCH   6  19
ATOM      8  O   UNL     1      -6.275   1.699  24.332  0.00  0.00    -0.226 OA
ATOM     11  N   UNL     1      -4.415   0.925  25.525  0.00  0.00    -0.251 N 
ATOM     19  C   UNL     1      -5.422   1.815  25.203  0.00  0.00    +0.405 C 
ATOM     31  H   UNL     1      -3.798   1.201  26.285  0.00  0.00    +0.158 HD
BRANCH  11  21
ATOM     21  C   UNL     1      -4.135  -0.325  24.927  0.00  0.00    +0.037 A 
ATOM     23  C   UNL     1      -2.830  -0.820  24.924  0.00  0.00    +0.035 A 
ATOM     24  C   UNL     1      -5.162  -1.063  24.342  0.00  0.00    +0.023 A 
ATOM     25  C   UNL     1      -2.554  -2.054  24.334  0.00  0.00    +0.057 A 
ATOM     26  C   UNL     1      -4.887  -2.297  23.752  0.00  0.00    +0.002 A 
ATOM     27  C   UNL     1      -3.582  -2.792  23.748  0.00  0.00    +0.012 A 
BRANCH  25  28
ATOM      1  F   UNL     1      -0.804  -3.198  25.497  0.00  0.00    -0.166 F 
ATOM      2  F   UNL     1      -0.929  -3.510  23.354  0.00  0.00    -0.166 F 
ATOM      3  F   UNL     1      -0.228  -1.605  24.134  0.00  0.00    -0.166 F 
ATOM     28  C   UNL     1      -1.160  -2.582  24.330  0.00  0.00    +0.417 C 
ENDBRANCH  25  28
ENDBRANCH  11  21
ENDBRANCH   6  19
ENDBRANCH  15   6
TORSDOF 6
ENDMDL
MODEL 10
REMARK VINA RESULT:      -1.0      2.090      5.241
REMARK  Name = 11883404
REMARK  7 active torsions:
REMARK  status: ('A' for Active; 'I' for Inactive)
REMARK    1  A    between atoms: O_6  and  C_15
REMARK    2  A    between atoms: O_6  and  C_19
REMARK    3  A    between atoms: N_9  and  C_14
REMARK    4  A    between atoms: N_10  and  C_20
REMARK    5  A    between atoms: N_11  and  C_21
REMARK    6  A    between atoms: C_20  and  C_22
REMARK    7  A    between atoms: C_25  and  C_28
REMARK                            x       y       z     vdW  Elec       q    Type
REMARK                         _______ _______ _______ _____ _____    ______ ____
ROOT
ATOM      4  O   UNL     1      -2.317  -0.220  24.349  0.00  0.00    -0.368 OA
ATOM      5  O   UNL     1      -3.490  -3.046  24.142  0.00  0.00    -0.368 OA
ATOM     12  C   UNL     1      -3.888  -1.900  24.925  0.00  0.00    +0.173 C 
ATOM     13  C   UNL     1      -2.615  -1.201  25.357  0.00  0.00    +0.192 C 
ATOM     14  C   UNL     1      -4.578  -0.885  24.046  0.00  0.00    +0.131 C 
ATOM     15  C   UNL     1      -1.608  -2.325  25.358  0.00  0.00    +0.235 C 
ATOM     16  C   UNL     1      -3.406  -0.152  23.416  0.00  0.00    +0.185 C 
ATOM     17  C   UNL     1      -2.060  -3.160  24.181  0.00  0.00    +0.207 C 
ENDROOT
BRANCH  14   9
ATOM      7  O   UNL     1      -3.963   1.835  24.794  0.00  0.00    -0.253 OA
ATOM      9  N   UNL     1      -5.399   0.010  24.825  0.00  0.00    -0.292 N 
ATOM     10  N   UNL     1      -5.998   1.953  25.902  0.00  0.00    -0.300 N 
ATOM     18  C   UNL     1      -5.022   1.313  25.141  0.00  0.00    +0.300 C 
ATOM     29  H   UNL     1      -6.324  -0.303  25.104  0.00  0.00    +0.151 HD
ATOM     30  H   UNL     1      -6.847   1.447  26.134  0.00  0.00    +0.150 HD
BRANCH  10  20
ATOM     20  C   UNL     1      -5.861   3.314  26.365  0.00  0.00    +0.102 C 
ATOM     22  C   UNL     1      -6.183   4.309  25.270  0.00  0.00    +0.024 C 
ENDBRANCH  10  20
ENDBRANCH  14   9
BRANCH  15   6
ATOM      6  O   UNL     1      -0.275  -1.888  25.218  0.00  0.00    -0.442 OA
BRANCH   6  19
ATOM      8  O   UNL     1       0.336  -0.752  23.330  0.00  0.00    -0.226 OA
ATOM     11  N   UNL     1      -0.389   0.364  25.256  0.00  0.00    -0.251 N 
ATOM     19  C   UNL     1      -0.069  -0.738  24.486  0.00  0.00    +0.405 C 
ATOM     31  H   UNL     1      -0.712   0.173  26.202  0.00  0.00    +0.158 HD
BRANCH  11  21
ATOM     21  C   UNL     1      -0.322   1.729  24.893  0.00  0.00    +0.037 A 
ATOM     23  C   UNL     1      -1.314   2.613  25.318  0.00  0.00    +0.035 A 
ATOM     24  C   UNL     1       0.735   2.190  24.110  0.00  0.00    +0.023 A 
ATOM     25  C   UNL     1      -1.248   3.960  24.960  0.00  0.00    +0.057 A 
ATOM     26  C   UNL     1       0.801   3.537  23.750  0.00  0.00    +0.002 A 
ATOM     27  C   UNL     1      -0.191   4.421  24.176  0.00  0.00    +0.012 A 
BRANCH  25  28
ATOM      1  F   UNL     1      -3.381   4.970  24.572  0.00  0.00    -0.166 F 
ATOM      2  F   UNL     1      -2.833   4.591  26.636  0.00  0.00    -0.166 F 
ATOM      3  F   UNL     1      -1.855   6.187  25.530  0.00  0.00    -0.166 F 
ATOM     28  C   UNL     1      -2.307   4.904  25.414  0.00  0.00    +0.417 C 
ENDBRANCH  25  28
ENDBRANCH  11  21
ENDBRANCH   6  19
ENDBRANCH  15   6
TORSDOF 6
ENDMDL
