MODEL 1
REMARK VINA RESULT:      -1.2      0.000      0.000
REMARK  Name = 51137799
REMARK  5 active torsions:
REMARK  status: ('A' for Active; 'I' for Inactive)
REMARK    1  A    between atoms: O_3  and  C_18
REMARK    2  A    between atoms: O_3  and  C_26
REMARK    3  A    between atoms: C_7  and  C_11
REMARK    4  A    between atoms: C_12  and  C_13
REMARK    5  A    between atoms: C_14  and  C_17
REMARK                            x       y       z     vdW  Elec       q    Type
REMARK                         _______ _______ _______ _____ _____    ______ ____
ROOT
ATOM      2  O   UNL     1     -10.135 -10.781   9.852  0.00  0.00    -0.270 OA
ATOM      4  N   UNL     1      -8.588  -9.049   9.835  0.00  0.00    -0.297 N 
ATOM      7  C   UNL     1      -6.683  -7.686   9.413  0.00  0.00    +0.095 C 
ATOM      8  C   UNL     1      -7.513  -7.826   8.128  0.00  0.00    +0.033 C 
ATOM      9  C   UNL     1      -7.699  -8.090  10.492  0.00  0.00    +0.121 C 
ATOM     10  C   UNL     1      -8.398  -9.036   8.393  0.00  0.00    +0.109 C 
ATOM     12  C   UNL     1      -9.458  -9.941  10.442  0.00  0.00    +0.247 C 
ENDROOT
BRANCH  12  13
ATOM     13  C   UNL     1      -9.572  -9.889  11.908  0.00  0.00    +0.037 A 
ATOM     15  C   UNL     1     -10.559  -9.103  12.503  0.00  0.00    +0.013 A 
ATOM     16  C   UNL     1      -8.694 -10.625  12.702  0.00  0.00    +0.013 A 
ATOM     19  C   UNL     1     -10.668  -9.055  13.893  0.00  0.00    +0.001 A 
ATOM     20  C   UNL     1      -8.802 -10.578  14.091  0.00  0.00    +0.001 A 
ATOM     22  C   UNL     1      -9.790  -9.792  14.687  0.00  0.00    +0.000 A 
ENDBRANCH  12  13
BRANCH   7  11
ATOM      1  O   UNL     1      -4.580  -8.443  10.429  0.00  0.00    -0.420 OA
ATOM      5  N   UNL     1      -4.954  -9.274   8.386  0.00  0.00    -0.112 NA
ATOM      6  N   UNL     1      -3.748  -9.776   8.837  0.00  0.00    -0.107 NA
ATOM     11  C   UNL     1      -5.404  -8.501   9.347  0.00  0.00    +0.222 A 
ATOM     14  C   UNL     1      -3.571  -9.265  10.033  0.00  0.00    +0.252 A 
BRANCH  14  17
ATOM     17  C   UNL     1      -2.497  -9.435  10.969  0.00  0.00    +0.080 A 
ATOM     18  C   UNL     1      -2.673 -10.186  12.131  0.00  0.00    +0.132 A 
ATOM     21  C   UNL     1      -1.265  -8.839  10.703  0.00  0.00    +0.017 A 
ATOM     23  C   UNL     1      -1.617 -10.338  13.029  0.00  0.00    +0.046 A 
ATOM     24  C   UNL     1      -0.207  -8.991  11.601  0.00  0.00    +0.001 A 
ATOM     25  C   UNL     1      -0.384  -9.741  12.764  0.00  0.00    +0.004 A 
BRANCH  18   3
ATOM      3  O   UNL     1      -3.867 -10.780  12.417  0.00  0.00    -0.494 OA
ATOM     26  C   UNL     1      -4.470 -10.450  13.665  0.00  0.00    +0.277 C 
ENDBRANCH  18   3
ENDBRANCH  14  17
ENDBRANCH   7  11
TORSDOF 4
ENDMDL
MODEL 2
REMARK VINA RESULT:       0.4     16.760     19.344
REMARK  Name = 51137799
REMARK  5 active torsions:
REMARK  status: ('A' for Active; 'I' for Inactive)
REMARK    1  A    between atoms: O_3  and  C_18
REMARK    2  A    between atoms: O_3  and  C_26
REMARK    3  A    between atoms: C_7  and  C_11
REMARK    4  A    between atoms: C_12  and  C_13
REMARK    5  A    between atoms: C_14  and  C_17
REMARK                            x       y       z     vdW  Elec       q    Type
REMARK                         _______ _______ _______ _____ _____    ______ ____
ROOT
ATOM      2  O   UNL     1       1.790  -0.266  21.081  0.00  0.00    -0.270 OA
ATOM      4  N   UNL     1       0.868  -0.813  23.141  0.00  0.00    -0.297 N 
ATOM      7  C   UNL     1      -0.525  -0.925  25.067  0.00  0.00    +0.095 C 
ATOM      8  C   UNL     1      -1.280  -1.485  23.851  0.00  0.00    +0.033 C 
ATOM      9  C   UNL     1       0.934  -0.988  24.592  0.00  0.00    +0.121 C 
ATOM     10  C   UNL     1      -0.497  -0.952  22.658  0.00  0.00    +0.109 C 
ATOM     12  C   UNL     1       1.906  -0.475  22.287  0.00  0.00    +0.247 C 
ENDROOT
BRANCH  12  13
ATOM     13  C   UNL     1       3.250  -0.342  22.870  0.00  0.00    +0.037 A 
ATOM     15  C   UNL     1       3.928   0.875  22.788  0.00  0.00    +0.013 A 
ATOM     16  C   UNL     1       3.846  -1.431  23.506  0.00  0.00    +0.013 A 
ATOM     19  C   UNL     1       5.202   1.002  23.342  0.00  0.00    +0.001 A 
ATOM     20  C   UNL     1       5.119  -1.304  24.060  0.00  0.00    +0.001 A 
ATOM     22  C   UNL     1       5.797  -0.087  23.978  0.00  0.00    +0.000 A 
ENDBRANCH  12  13
BRANCH   7  11
ATOM      1  O   UNL     1      -2.360   0.700  25.212  0.00  0.00    -0.420 OA
ATOM      5  N   UNL     1      -0.422   1.441  26.047  0.00  0.00    -0.112 NA
ATOM      6  N   UNL     1      -1.361   2.445  26.191  0.00  0.00    -0.107 NA
ATOM     11  C   UNL     1      -1.049   0.442  25.471  0.00  0.00    +0.222 A 
ATOM     14  C   UNL     1      -2.476   1.968  25.690  0.00  0.00    +0.252 A 
BRANCH  14  17
ATOM     17  C   UNL     1      -3.774   2.568  25.571  0.00  0.00    +0.080 A 
ATOM     18  C   UNL     1      -3.959   3.929  25.814  0.00  0.00    +0.132 A 
ATOM     21  C   UNL     1      -4.858   1.770  25.207  0.00  0.00    +0.017 A 
ATOM     23  C   UNL     1      -5.229   4.492  25.694  0.00  0.00    +0.046 A 
ATOM     24  C   UNL     1      -6.130   2.333  25.086  0.00  0.00    +0.001 A 
ATOM     25  C   UNL     1      -6.315   3.694  25.330  0.00  0.00    +0.004 A 
BRANCH  18   3
ATOM      3  O   UNL     1      -2.917   4.732  26.172  0.00  0.00    -0.494 OA
ATOM     26  C   UNL     1      -2.142   5.294  25.116  0.00  0.00    +0.277 C 
ENDBRANCH  18   3
ENDBRANCH  14  17
ENDBRANCH   7  11
TORSDOF 4
ENDMDL
MODEL 3
REMARK VINA RESULT:       0.4     16.571     19.150
REMARK  Name = 51137799
REMARK  5 active torsions:
REMARK  status: ('A' for Active; 'I' for Inactive)
REMARK    1  A    between atoms: O_3  and  C_18
REMARK    2  A    between atoms: O_3  and  C_26
REMARK    3  A    between atoms: C_7  and  C_11
REMARK    4  A    between atoms: C_12  and  C_13
REMARK    5  A    between atoms: C_14  and  C_17
REMARK                            x       y       z     vdW  Elec       q    Type
REMARK                         _______ _______ _______ _____ _____    ______ ____
ROOT
ATOM      2  O   UNL     1       1.756  -0.287  21.091  0.00  0.00    -0.270 OA
ATOM      4  N   UNL     1       0.835  -0.688  23.185  0.00  0.00    -0.297 N 
ATOM      7  C   UNL     1      -0.548  -0.652  25.121  0.00  0.00    +0.095 C 
ATOM      8  C   UNL     1      -1.323  -1.266  23.945  0.00  0.00    +0.033 C 
ATOM      9  C   UNL     1       0.906  -0.778  24.643  0.00  0.00    +0.121 C 
ATOM     10  C   UNL     1      -0.537  -0.824  22.718  0.00  0.00    +0.109 C 
ATOM     12  C   UNL     1       1.875  -0.427  22.307  0.00  0.00    +0.247 C 
ENDROOT
BRANCH  12  13
ATOM     13  C   UNL     1       3.226  -0.291  22.875  0.00  0.00    +0.037 A 
ATOM     15  C   UNL     1       3.907   0.922  22.769  0.00  0.00    +0.013 A 
ATOM     16  C   UNL     1       3.824  -1.374  23.518  0.00  0.00    +0.013 A 
ATOM     19  C   UNL     1       5.187   1.051  23.309  0.00  0.00    +0.001 A 
ATOM     20  C   UNL     1       5.103  -1.244  24.058  0.00  0.00    +0.001 A 
ATOM     22  C   UNL     1       5.785  -0.031  23.953  0.00  0.00    +0.000 A 
ENDBRANCH  12  13
BRANCH   7  11
ATOM      1  O   UNL     1      -2.362   0.997  25.257  0.00  0.00    -0.420 OA
ATOM      5  N   UNL     1      -0.368   1.785  25.892  0.00  0.00    -0.112 NA
ATOM      6  N   UNL     1      -1.290   2.807  26.016  0.00  0.00    -0.107 NA
ATOM     11  C   UNL     1      -1.037   0.749  25.446  0.00  0.00    +0.222 A 
ATOM     14  C   UNL     1      -2.440   2.302  25.635  0.00  0.00    +0.252 A 
BRANCH  14  17
ATOM     17  C   UNL     1      -3.741   2.901  25.556  0.00  0.00    +0.080 A 
ATOM     18  C   UNL     1      -4.891   2.113  25.531  0.00  0.00    +0.132 A 
ATOM     21  C   UNL     1      -3.845   4.291  25.504  0.00  0.00    +0.017 A 
ATOM     23  C   UNL     1      -6.147   2.716  25.453  0.00  0.00    +0.046 A 
ATOM     24  C   UNL     1      -5.101   4.894  25.426  0.00  0.00    +0.001 A 
ATOM     25  C   UNL     1      -6.252   4.106  25.400  0.00  0.00    +0.004 A 
BRANCH  18   3
ATOM      3  O   UNL     1      -4.819   0.752  25.580  0.00  0.00    -0.494 OA
ATOM     26  C   UNL     1      -4.885   0.057  24.338  0.00  0.00    +0.277 C 
ENDBRANCH  18   3
ENDBRANCH  14  17
ENDBRANCH   7  11
TORSDOF 4
ENDMDL
MODEL 4
REMARK VINA RESULT:       1.1      3.061      6.254
REMARK  Name = 51137799
REMARK  5 active torsions:
REMARK  status: ('A' for Active; 'I' for Inactive)
REMARK    1  A    between atoms: O_3  and  C_18
REMARK    2  A    between atoms: O_3  and  C_26
REMARK    3  A    between atoms: C_7  and  C_11
REMARK    4  A    between atoms: C_12  and  C_13
REMARK    5  A    between atoms: C_14  and  C_17
REMARK                            x       y       z     vdW  Elec       q    Type
REMARK                         _______ _______ _______ _____ _____    ______ ____
ROOT
ATOM      2  O   UNL     1      -5.087  -8.550  12.928  0.00  0.00    -0.270 OA
ATOM      4  N   UNL     1      -6.498  -9.894  11.665  0.00  0.00    -0.297 N 
ATOM      7  C   UNL     1      -7.985 -10.725  10.003  0.00  0.00    +0.095 C 
ATOM      8  C   UNL     1      -6.605 -10.468   9.378  0.00  0.00    +0.033 C 
ATOM      9  C   UNL     1      -7.650 -10.780  11.500  0.00  0.00    +0.121 C 
ATOM     10  C   UNL     1      -5.917  -9.546  10.377  0.00  0.00    +0.109 C 
ATOM     12  C   UNL     1      -6.017  -9.350  12.845  0.00  0.00    +0.247 C 
ENDROOT
BRANCH  12  13
ATOM     13  C   UNL     1      -6.678  -9.750  14.097  0.00  0.00    +0.037 A 
ATOM     15  C   UNL     1      -8.070  -9.717  14.192  0.00  0.00    +0.013 A 
ATOM     16  C   UNL     1      -5.914 -10.162  15.188  0.00  0.00    +0.013 A 
ATOM     19  C   UNL     1      -8.697 -10.097  15.378  0.00  0.00    +0.001 A 
ATOM     20  C   UNL     1      -6.541 -10.542  16.375  0.00  0.00    +0.001 A 
ATOM     22  C   UNL     1      -7.933 -10.510  16.469  0.00  0.00    +0.000 A 
ENDBRANCH  12  13
BRANCH   7  11
ATOM      1  O   UNL     1      -8.567  -8.389   9.518  0.00  0.00    -0.420 OA
ATOM      5  N   UNL     1     -10.259  -9.826   9.236  0.00  0.00    -0.112 NA
ATOM      6  N   UNL     1     -10.719  -8.558   8.931  0.00  0.00    -0.107 NA
ATOM     11  C   UNL     1      -8.999  -9.679   9.573  0.00  0.00    +0.222 A 
ATOM     14  C   UNL     1      -9.699  -7.753   9.110  0.00  0.00    +0.252 A 
BRANCH  14  17
ATOM     17  C   UNL     1      -9.594  -6.332   8.945  0.00  0.00    +0.080 A 
ATOM     18  C   UNL     1      -8.387  -5.742   8.570  0.00  0.00    +0.132 A 
ATOM     21  C   UNL     1     -10.719  -5.538   9.165  0.00  0.00    +0.017 A 
ATOM     23  C   UNL     1      -8.305  -4.358   8.416  0.00  0.00    +0.046 A 
ATOM     24  C   UNL     1     -10.639  -4.154   9.011  0.00  0.00    +0.001 A 
ATOM     25  C   UNL     1      -9.431  -3.564   8.636  0.00  0.00    +0.004 A 
BRANCH  18   3
ATOM      3  O   UNL     1      -7.270  -6.493   8.349  0.00  0.00    -0.494 OA
ATOM     26  C   UNL     1      -6.083  -6.102   9.034  0.00  0.00    +0.277 C 
ENDBRANCH  18   3
ENDBRANCH  14  17
ENDBRANCH   7  11
TORSDOF 4
ENDMDL
MODEL 5
REMARK VINA RESULT:       1.9     16.736     19.053
REMARK  Name = 51137799
REMARK  5 active torsions:
REMARK  status: ('A' for Active; 'I' for Inactive)
REMARK    1  A    between atoms: O_3  and  C_18
REMARK    2  A    between atoms: O_3  and  C_26
REMARK    3  A    between atoms: C_7  and  C_11
REMARK    4  A    between atoms: C_12  and  C_13
REMARK    5  A    between atoms: C_14  and  C_17
REMARK                            x       y       z     vdW  Elec       q    Type
REMARK                         _______ _______ _______ _____ _____    ______ ____
ROOT
ATOM      2  O   UNL     1       1.338  -0.778  21.001  0.00  0.00    -0.270 OA
ATOM      4  N   UNL     1       0.559  -1.298  23.126  0.00  0.00    -0.297 N 
ATOM      7  C   UNL     1      -0.779  -1.524  25.081  0.00  0.00    +0.095 C 
ATOM      8  C   UNL     1      -1.373  -2.375  23.947  0.00  0.00    +0.033 C 
ATOM      9  C   UNL     1       0.656  -1.294  24.586  0.00  0.00    +0.121 C 
ATOM     10  C   UNL     1      -0.732  -1.807  22.688  0.00  0.00    +0.109 C 
ATOM     12  C   UNL     1       1.493  -0.821  22.220  0.00  0.00    +0.247 C 
ENDROOT
BRANCH  12  13
ATOM     13  C   UNL     1       2.764  -0.312  22.758  0.00  0.00    +0.037 A 
ATOM     15  C   UNL     1       3.618  -1.168  23.454  0.00  0.00    +0.013 A 
ATOM     16  C   UNL     1       3.115   1.025  22.572  0.00  0.00    +0.013 A 
ATOM     19  C   UNL     1       4.824  -0.686  23.963  0.00  0.00    +0.001 A 
ATOM     20  C   UNL     1       4.320   1.506  23.080  0.00  0.00    +0.001 A 
ATOM     22  C   UNL     1       5.176   0.651  23.776  0.00  0.00    +0.000 A 
ENDBRANCH  12  13
BRANCH   7  11
ATOM      1  O   UNL     1      -1.038   0.918  25.062  0.00  0.00    -0.420 OA
ATOM      5  N   UNL     1      -2.833  -0.181  25.819  0.00  0.00    -0.112 NA
ATOM      6  N   UNL     1      -3.111   1.173  25.861  0.00  0.00    -0.107 NA
ATOM     11  C   UNL     1      -1.613  -0.283  25.346  0.00  0.00    +0.222 A 
ATOM     14  C   UNL     1      -2.036   1.774  25.410  0.00  0.00    +0.252 A 
BRANCH  14  17
ATOM     17  C   UNL     1      -1.755   3.170  25.232  0.00  0.00    +0.080 A 
ATOM     18  C   UNL     1      -2.683   4.140  25.610  0.00  0.00    +0.132 A 
ATOM     21  C   UNL     1      -0.536   3.550  24.672  0.00  0.00    +0.017 A 
ATOM     23  C   UNL     1      -2.392   5.492  25.427  0.00  0.00    +0.046 A 
ATOM     24  C   UNL     1      -0.244   4.903  24.489  0.00  0.00    +0.001 A 
ATOM     25  C   UNL     1      -1.172   5.874  24.867  0.00  0.00    +0.004 A 
BRANCH  18   3
ATOM      3  O   UNL     1      -3.883   3.797  26.159  0.00  0.00    -0.494 OA
ATOM     26  C   UNL     1      -5.025   3.863  25.309  0.00  0.00    +0.277 C 
ENDBRANCH  18   3
ENDBRANCH  14  17
ENDBRANCH   7  11
TORSDOF 4
ENDMDL
MODEL 6
REMARK VINA RESULT:       2.5     16.992     18.499
REMARK  Name = 51137799
REMARK  5 active torsions:
REMARK  status: ('A' for Active; 'I' for Inactive)
REMARK    1  A    between atoms: O_3  and  C_18
REMARK    2  A    between atoms: O_3  and  C_26
REMARK    3  A    between atoms: C_7  and  C_11
REMARK    4  A    between atoms: C_12  and  C_13
REMARK    5  A    between atoms: C_14  and  C_17
REMARK                            x       y       z     vdW  Elec       q    Type
REMARK                         _______ _______ _______ _____ _____    ______ ____
ROOT
ATOM      2  O   UNL     1      -3.501   3.997  27.641  0.00  0.00    -0.270 OA
ATOM      4  N   UNL     1      -4.353   3.093  25.679  0.00  0.00    -0.297 N 
ATOM      7  C   UNL     1      -5.269   1.626  24.044  0.00  0.00    +0.095 C 
ATOM      8  C   UNL     1      -6.313   1.892  25.140  0.00  0.00    +0.033 C 
ATOM      9  C   UNL     1      -4.289   2.790  24.249  0.00  0.00    +0.121 C 
ATOM     10  C   UNL     1      -5.491   2.434  26.303  0.00  0.00    +0.109 C 
ATOM     12  C   UNL     1      -3.446   3.828  26.424  0.00  0.00    +0.247 C 
ENDROOT
BRANCH  12  13
ATOM     13  C   UNL     1      -2.318   4.444  25.707  0.00  0.00    +0.037 A 
ATOM     15  C   UNL     1      -2.402   5.771  25.285  0.00  0.00    +0.013 A 
ATOM     16  C   UNL     1      -1.166   3.701  25.449  0.00  0.00    +0.013 A 
ATOM     19  C   UNL     1      -1.332   6.355  24.607  0.00  0.00    +0.001 A 
ATOM     20  C   UNL     1      -0.097   4.286  24.771  0.00  0.00    +0.001 A 
ATOM     22  C   UNL     1      -0.180   5.614  24.350  0.00  0.00    +0.000 A 
ENDBRANCH  12  13
BRANCH   7  11
ATOM      1  O   UNL     1      -3.361   0.127  24.422  0.00  0.00    -0.420 OA
ATOM      5  N   UNL     1      -5.286  -0.937  24.013  0.00  0.00    -0.112 NA
ATOM      6  N   UNL     1      -4.303  -1.890  24.206  0.00  0.00    -0.107 NA
ATOM     11  C   UNL     1      -4.691   0.225  24.148  0.00  0.00    +0.222 A 
ATOM     14  C   UNL     1      -3.198  -1.223  24.442  0.00  0.00    +0.252 A 
BRANCH  14  17
ATOM     17  C   UNL     1      -1.868  -1.690  24.711  0.00  0.00    +0.080 A 
ATOM     18  C   UNL     1      -0.758  -0.904  24.404  0.00  0.00    +0.132 A 
ATOM     21  C   UNL     1      -1.695  -2.948  25.287  0.00  0.00    +0.017 A 
ATOM     23  C   UNL     1       0.527  -1.377  24.672  0.00  0.00    +0.046 A 
ATOM     24  C   UNL     1      -0.410  -3.422  25.556  0.00  0.00    +0.001 A 
ATOM     25  C   UNL     1       0.701  -2.636  25.248  0.00  0.00    +0.004 A 
BRANCH  18   3
ATOM      3  O   UNL     1      -0.898   0.330  23.840  0.00  0.00    -0.494 OA
ATOM     26  C   UNL     1       0.299   1.014  23.478  0.00  0.00    +0.277 C 
ENDBRANCH  18   3
ENDBRANCH  14  17
ENDBRANCH   7  11
TORSDOF 4
ENDMDL
