MODEL 1
REMARK VINA RESULT:      -1.3      0.000      0.000
REMARK  Name = 7049255
REMARK  9 active torsions:
REMARK  status: ('A' for Active; 'I' for Inactive)
REMARK    1  A    between atoms: O_1  and  C_12
REMARK    2  A    between atoms: O_2  and  C_14
REMARK    3  A    between atoms: O_3  and  C_16
REMARK    4  A    between atoms: N_7  and  C_11
REMARK    5  A    between atoms: N_8  and  C_17
REMARK    6  A    between atoms: N_9  and  C_25
REMARK    7  A    between atoms: C_12  and  C_18
REMARK    8  A    between atoms: C_25  and  C_26
REMARK    9  A    between atoms: C_25  and  C_27
REMARK                            x       y       z     vdW  Elec       q    Type
REMARK                         _______ _______ _______ _____ _____    ______ ____
ROOT
ATOM     11  C   UNL     1      -0.793   2.762  24.156  0.00  0.00    +0.109 C 
ATOM     12  C   UNL     1      -3.152   1.952  24.644  0.00  0.00    +0.146 C 
ATOM     13  C   UNL     1      -1.681   1.559  24.492  0.00  0.00    +0.069 C 
ATOM     14  C   UNL     1      -0.978   3.906  25.162  0.00  0.00    +0.163 C 
ATOM     15  C   UNL     1      -3.323   3.077  25.662  0.00  0.00    +0.078 C 
ATOM     16  C   UNL     1      -2.450   4.288  25.333  0.00  0.00    +0.148 C 
ENDROOT
BRANCH  11   7
ATOM      5  O   UNL     1       0.369   0.874  22.327  0.00  0.00    -0.253 OA
ATOM      7  N   UNL     1       0.591   2.349  24.104  0.00  0.00    -0.294 N 
ATOM      8  N   UNL     1       2.430   1.203  23.344  0.00  0.00    -0.297 N 
ATOM     24  C   UNL     1       1.066   1.424  23.178  0.00  0.00    +0.300 C 
ATOM     28  H   UNL     1       1.229   2.691  24.816  0.00  0.00    +0.151 HD
ATOM     30  H   UNL     1       2.894   1.656  24.125  0.00  0.00    +0.151 HD
BRANCH   8  17
ATOM     17  C   UNL     1       3.189   0.289  22.520  0.00  0.00    +0.074 C 
ATOM     19  C   UNL     1       3.103  -1.143  23.060  0.00  0.00    +0.022 C 
ATOM     20  C   UNL     1       4.645   0.747  22.387  0.00  0.00    +0.022 C 
ATOM     21  C   UNL     1       3.897  -1.328  24.353  0.00  0.00    +0.002 C 
ATOM     22  C   UNL     1       5.438   0.557  23.682  0.00  0.00    +0.002 C 
ATOM     23  C   UNL     1       5.346  -0.877  24.194  0.00  0.00    +0.000 C 
ENDBRANCH   8  17
ENDBRANCH  11   7
BRANCH  12  18
ATOM      4  O   UNL     1      -5.172   0.865  25.311  0.00  0.00    -0.273 OA
ATOM      9  N   UNL     1      -3.232  -0.402  25.086  0.00  0.00    -0.302 N 
ATOM     18  C   UNL     1      -3.977   0.763  25.042  0.00  0.00    +0.245 C 
ATOM     33  H   UNL     1      -2.238  -0.375  24.883  0.00  0.00    +0.150 HD
BRANCH   9  25
ATOM     25  C   UNL     1      -3.787  -1.681  25.464  0.00  0.00    +0.156 C 
ATOM     26  C   UNL     1      -3.214  -2.156  26.791  0.00  0.00    +0.038 C 
BRANCH  25  27
ATOM      6  O   UNL     1      -4.348  -3.189  23.644  0.00  0.00    -0.274 OA
ATOM     10  N   UNL     1      -2.137  -2.911  24.196  0.00  0.00    -0.328 N 
ATOM     27  C   UNL     1      -3.486  -2.676  24.353  0.00  0.00    +0.231 C 
ATOM     34  H   UNL     1      -1.798  -3.547  23.481  0.00  0.00    +0.145 HD
ATOM     35  H   UNL     1      -1.433  -2.464  24.776  0.00  0.00    +0.145 HD
ENDBRANCH  25  27
ENDBRANCH   9  25
ENDBRANCH  12  18
BRANCH  12   1
ATOM      1  O   UNL     1      -3.687   2.369  23.394  0.00  0.00    -0.379 OA
ATOM     29  H   UNL     1      -4.655   2.275  23.426  0.00  0.00    +0.211 HD
ENDBRANCH  12   1
BRANCH  14   2
ATOM      2  O   UNL     1      -0.283   5.063  24.685  0.00  0.00    -0.387 OA
ATOM     31  H   UNL     1      -0.178   4.976  23.723  0.00  0.00    +0.210 HD
ENDBRANCH  14   2
BRANCH  16   3
ATOM      3  O   UNL     1      -2.550   5.233  26.400  0.00  0.00    -0.389 OA
ATOM     32  H   UNL     1      -2.264   4.785  27.214  0.00  0.00    +0.210 HD
ENDBRANCH  16   3
TORSDOF 8
ENDMDL
MODEL 2
REMARK VINA RESULT:      -1.1      2.281      4.644
REMARK  Name = 7049255
REMARK  9 active torsions:
REMARK  status: ('A' for Active; 'I' for Inactive)
REMARK    1  A    between atoms: O_1  and  C_12
REMARK    2  A    between atoms: O_2  and  C_14
REMARK    3  A    between atoms: O_3  and  C_16
REMARK    4  A    between atoms: N_7  and  C_11
REMARK    5  A    between atoms: N_8  and  C_17
REMARK    6  A    between atoms: N_9  and  C_25
REMARK    7  A    between atoms: C_12  and  C_18
REMARK    8  A    between atoms: C_25  and  C_26
REMARK    9  A    between atoms: C_25  and  C_27
REMARK                            x       y       z     vdW  Elec       q    Type
REMARK                         _______ _______ _______ _____ _____    ______ ____
ROOT
ATOM     11  C   UNL     1      -1.356  -0.637  25.255  0.00  0.00    +0.109 C 
ATOM     12  C   UNL     1      -3.812   0.003  25.118  0.00  0.00    +0.146 C 
ATOM     13  C   UNL     1      -2.366   0.472  24.940  0.00  0.00    +0.069 C 
ATOM     14  C   UNL     1      -1.644  -1.915  24.455  0.00  0.00    +0.163 C 
ATOM     15  C   UNL     1      -4.090  -1.258  24.302  0.00  0.00    +0.078 C 
ATOM     16  C   UNL     1      -3.095  -2.376  24.613  0.00  0.00    +0.148 C 
ENDROOT
BRANCH  11   7
ATOM      5  O   UNL     1       0.131  -0.953  22.815  0.00  0.00    -0.253 OA
ATOM      7  N   UNL     1      -0.014  -0.165  24.993  0.00  0.00    -0.294 N 
ATOM      8  N   UNL     1       1.907   0.185  23.786  0.00  0.00    -0.297 N 
ATOM     24  C   UNL     1       0.628  -0.365  23.775  0.00  0.00    +0.300 C 
ATOM     28  H   UNL     1       0.508   0.265  25.750  0.00  0.00    +0.151 HD
ATOM     30  H   UNL     1       2.245   0.585  24.655  0.00  0.00    +0.151 HD
BRANCH   8  17
ATOM     17  C   UNL     1       2.803   0.126  22.652  0.00  0.00    +0.074 C 
ATOM     19  C   UNL     1       3.502  -1.236  22.571  0.00  0.00    +0.022 C 
ATOM     20  C   UNL     1       3.821   1.271  22.695  0.00  0.00    +0.022 C 
ATOM     21  C   UNL     1       4.549  -1.422  23.669  0.00  0.00    +0.002 C 
ATOM     22  C   UNL     1       4.869   1.081  23.793  0.00  0.00    +0.002 C 
ATOM     23  C   UNL     1       5.558  -0.276  23.685  0.00  0.00    +0.000 C 
ENDBRANCH   8  17
ENDBRANCH  11   7
BRANCH  12  18
ATOM      4  O   UNL     1      -5.930   0.847  24.407  0.00  0.00    -0.273 OA
ATOM      9  N   UNL     1      -4.186   2.344  24.775  0.00  0.00    -0.302 N 
ATOM     18  C   UNL     1      -4.771   1.091  24.734  0.00  0.00    +0.245 C 
ATOM     33  H   UNL     1      -3.206   2.438  25.022  0.00  0.00    +0.150 HD
BRANCH   9  25
ATOM     25  C   UNL     1      -4.890   3.557  24.428  0.00  0.00    +0.156 C 
ATOM     26  C   UNL     1      -3.919   4.670  24.066  0.00  0.00    +0.038 C 
BRANCH  25  27
ATOM      6  O   UNL     1      -6.209   5.088  25.775  0.00  0.00    -0.274 OA
ATOM     10  N   UNL     1      -6.033   2.901  26.454  0.00  0.00    -0.328 N 
ATOM     27  C   UNL     1      -5.761   3.956  25.609  0.00  0.00    +0.231 C 
ATOM     34  H   UNL     1      -6.614   3.029  27.277  0.00  0.00    +0.145 HD
ATOM     35  H   UNL     1      -5.672   1.966  26.294  0.00  0.00    +0.145 HD
ENDBRANCH  25  27
ENDBRANCH   9  25
ENDBRANCH  12  18
BRANCH  12   1
ATOM      1  O   UNL     1      -4.083  -0.261  26.489  0.00  0.00    -0.379 OA
ATOM     29  H   UNL     1      -4.969   0.083  26.700  0.00  0.00    +0.211 HD
ENDBRANCH  12   1
BRANCH  14   2
ATOM      2  O   UNL     1      -0.801  -2.967  24.936  0.00  0.00    -0.387 OA
ATOM     31  H   UNL     1      -0.708  -2.862  25.897  0.00  0.00    +0.210 HD
ENDBRANCH  14   2
BRANCH  16   3
ATOM      3  O   UNL     1      -3.325  -3.462  23.714  0.00  0.00    -0.389 OA
ATOM     32  H   UNL     1      -2.724  -4.183  23.968  0.00  0.00    +0.210 HD
ENDBRANCH  16   3
TORSDOF 8
ENDMDL
MODEL 3
REMARK VINA RESULT:       2.1      2.250      5.792
REMARK  Name = 7049255
REMARK  9 active torsions:
REMARK  status: ('A' for Active; 'I' for Inactive)
REMARK    1  A    between atoms: O_1  and  C_12
REMARK    2  A    between atoms: O_2  and  C_14
REMARK    3  A    between atoms: O_3  and  C_16
REMARK    4  A    between atoms: N_7  and  C_11
REMARK    5  A    between atoms: N_8  and  C_17
REMARK    6  A    between atoms: N_9  and  C_25
REMARK    7  A    between atoms: C_12  and  C_18
REMARK    8  A    between atoms: C_25  and  C_26
REMARK    9  A    between atoms: C_25  and  C_27
REMARK                            x       y       z     vdW  Elec       q    Type
REMARK                         _______ _______ _______ _____ _____    ______ ____
ROOT
ATOM     11  C   UNL     1       0.771   1.300  24.626  0.00  0.00    +0.109 C 
ATOM     12  C   UNL     1      -0.098  -1.060  24.256  0.00  0.00    +0.146 C 
ATOM     13  C   UNL     1      -0.437   0.360  24.715  0.00  0.00    +0.069 C 
ATOM     14  C   UNL     1       1.403   1.286  23.227  0.00  0.00    +0.163 C 
ATOM     15  C   UNL     1       0.511  -1.061  22.856  0.00  0.00    +0.078 C 
ATOM     16  C   UNL     1       1.724  -0.134  22.756  0.00  0.00    +0.148 C 
ENDROOT
BRANCH  11   7
ATOM      5  O   UNL     1      -1.770   2.541  24.114  0.00  0.00    -0.253 OA
ATOM      7  N   UNL     1       0.375   2.641  24.992  0.00  0.00    -0.294 N 
ATOM      8  N   UNL     1      -1.006   4.467  25.161  0.00  0.00    -0.297 N 
ATOM     24  C   UNL     1      -0.883   3.159  24.701  0.00  0.00    +0.300 C 
ATOM     28  H   UNL     1       1.065   3.256  25.413  0.00  0.00    +0.151 HD
ATOM     30  H   UNL     1      -0.187   4.907  25.568  0.00  0.00    +0.151 HD
BRANCH   8  17
ATOM     17  C   UNL     1      -2.208   5.254  24.995  0.00  0.00    +0.074 C 
ATOM     19  C   UNL     1      -3.005   5.326  26.302  0.00  0.00    +0.022 C 
ATOM     20  C   UNL     1      -3.069   4.710  23.850  0.00  0.00    +0.022 C 
ATOM     21  C   UNL     1      -3.677   3.998  26.652  0.00  0.00    +0.002 C 
ATOM     22  C   UNL     1      -3.742   3.383  24.203  0.00  0.00    +0.002 C 
ATOM     23  C   UNL     1      -4.537   3.483  25.501  0.00  0.00    +0.000 C 
ENDBRANCH   8  17
ENDBRANCH  11   7
BRANCH  12  18
ATOM      4  O   UNL     1      -1.396  -2.964  23.629  0.00  0.00    -0.273 OA
ATOM      9  N   UNL     1      -2.307  -1.418  25.111  0.00  0.00    -0.302 N 
ATOM     18  C   UNL     1      -1.319  -1.931  24.290  0.00  0.00    +0.245 C 
ATOM     33  H   UNL     1      -2.161  -0.533  25.587  0.00  0.00    +0.150 HD
BRANCH   9  25
ATOM     25  C   UNL     1      -3.590  -2.055  25.298  0.00  0.00    +0.156 C 
ATOM     26  C   UNL     1      -3.446  -3.569  25.357  0.00  0.00    +0.038 C 
BRANCH  25  27
ATOM      6  O   UNL     1      -4.986  -2.427  23.346  0.00  0.00    -0.274 OA
ATOM     10  N   UNL     1      -4.760  -0.285  24.142  0.00  0.00    -0.328 N 
ATOM     27  C   UNL     1      -4.500  -1.639  24.153  0.00  0.00    +0.231 C 
ATOM     34  H   UNL     1      -5.364   0.124  23.436  0.00  0.00    +0.145 HD
ATOM     35  H   UNL     1      -4.368   0.353  24.828  0.00  0.00    +0.145 HD
ENDBRANCH  25  27
ENDBRANCH   9  25
ENDBRANCH  12  18
BRANCH  12   1
ATOM      1  O   UNL     1       0.815  -1.670  25.161  0.00  0.00    -0.379 OA
ATOM     29  H   UNL     1       0.816  -1.159  25.989  0.00  0.00    +0.211 HD
ENDBRANCH  12   1
BRANCH  14   2
ATOM      2  O   UNL     1       2.632   2.018  23.263  0.00  0.00    -0.387 OA
ATOM     31  H   UNL     1       3.075   1.822  24.105  0.00  0.00    +0.210 HD
ENDBRANCH  14   2
BRANCH  16   3
ATOM      3  O   UNL     1       2.147  -0.073  21.393  0.00  0.00    -0.389 OA
ATOM     32  H   UNL     1       1.643  -0.743  20.901  0.00  0.00    +0.210 HD
ENDBRANCH  16   3
TORSDOF 8
ENDMDL
