MODEL 1
REMARK VINA RESULT:      -5.2      0.000      0.000
REMARK  Name = 38027289
REMARK  10 active torsions:
REMARK  status: ('A' for Active; 'I' for Inactive)
REMARK    1  A    between atoms: N_3  and  C_14
REMARK    2  A    between atoms: N_4  and  C_13
REMARK    3  A    between atoms: C_5  and  C_9
REMARK    4  A    between atoms: C_6  and  C_13
REMARK    5  A    between atoms: C_8  and  C_12
REMARK    6  A    between atoms: C_9  and  C_15
REMARK    7  A    between atoms: C_9  and  C_16
REMARK    8  A    between atoms: C_10  and  C_20
REMARK    9  A    between atoms: C_12  and  C_19
REMARK   10  A    between atoms: C_23  and  C_24
REMARK                            x       y       z     vdW  Elec       q    Type
REMARK                         _______ _______ _______ _____ _____    ______ ____
ROOT
ATOM      5  C   UNL     1      -1.823   0.822  24.777  0.00  0.00    +0.000 C 
ATOM      6  C   UNL     1      -0.973  -0.446  24.510  0.00  0.00    +0.032 C 
ATOM      7  C   UNL     1      -2.954   0.511  25.769  0.00  0.00    +0.012 C 
ATOM      8  C   UNL     1      -3.887  -0.604  25.257  0.00  0.00    +0.023 C 
ATOM     10  C   UNL     1      -3.108  -1.790  24.724  0.00  0.00    -0.073 C 
ATOM     11  C   UNL     1      -1.804  -1.703  24.409  0.00  0.00    -0.022 C 
ATOM     20  C   UNL     1      -3.852  -3.090  24.607  0.00  0.00    +0.039 C 
ENDROOT
BRANCH   5   9
ATOM      9  C   UNL     1      -0.970   1.978  25.309  0.00  0.00    -0.013 C 
ATOM     15  C   UNL     1      -0.148   1.524  26.511  0.00  0.00    +0.007 C 
ATOM     16  C   UNL     1      -0.063   2.521  24.209  0.00  0.00    +0.007 C 
ENDBRANCH   5   9
BRANCH   8  12
ATOM     12  C   UNL     1      -4.860  -0.068  24.202  0.00  0.00    +0.103 C 
BRANCH  12  19
ATOM      1  O   UNL     1      -6.539   1.462  25.036  0.00  0.00    -0.276 OA
ATOM      3  N   UNL     1      -4.486   2.290  24.328  0.00  0.00    -0.312 N 
ATOM     19  C   UNL     1      -5.414   1.288  24.576  0.00  0.00    +0.214 C 
ATOM     30  H   UNL     1      -3.565   2.036  23.983  0.00  0.00    +0.149 HD
BRANCH   3  14
ATOM     14  C   UNL     1      -4.745   3.685  24.587  0.00  0.00    +0.073 C 
ATOM     17  C   UNL     1      -3.640   4.575  24.033  0.00  0.00    +0.022 C 
ATOM     18  C   UNL     1      -4.714   4.000  26.079  0.00  0.00    +0.022 C 
ATOM     21  C   UNL     1      -2.540   4.526  25.089  0.00  0.00    +0.002 C 
ATOM     22  C   UNL     1      -3.237   4.198  26.410  0.00  0.00    +0.002 C 
ENDBRANCH   3  14
ENDBRANCH  12  19
ENDBRANCH   8  12
BRANCH   6  13
ATOM     13  C   UNL     1      -0.128  -0.288  23.241  0.00  0.00    +0.112 C 
BRANCH  13   4
ATOM      2  O   UNL     1       2.052  -0.201  21.375  0.00  0.00    -0.270 OA
ATOM      4  N   UNL     1       1.266  -0.282  23.556  0.00  0.00    -0.311 N 
ATOM     23  C   UNL     1       2.264  -0.239  22.584  0.00  0.00    +0.244 C 
ATOM     31  H   UNL     1       1.516  -0.321  24.538  0.00  0.00    +0.149 HD
BRANCH  23  24
ATOM     24  C   UNL     1       3.665  -0.267  23.074  0.00  0.00    +0.037 A 
ATOM     25  C   UNL     1       4.474   0.862  22.944  0.00  0.00    +0.013 A 
ATOM     26  C   UNL     1       4.173  -1.422  23.668  0.00  0.00    +0.013 A 
ATOM     27  C   UNL     1       5.790   0.837  23.406  0.00  0.00    +0.001 A 
ATOM     28  C   UNL     1       5.489  -1.449  24.131  0.00  0.00    +0.001 A 
ATOM     29  C   UNL     1       6.297  -0.319  23.999  0.00  0.00    +0.000 A 
ENDBRANCH  23  24
ENDBRANCH  13   4
ENDBRANCH   6  13
TORSDOF 7
ENDMDL
MODEL 2
REMARK VINA RESULT:      -2.0      1.416      3.182
REMARK  Name = 38027289
REMARK  10 active torsions:
REMARK  status: ('A' for Active; 'I' for Inactive)
REMARK    1  A    between atoms: N_3  and  C_14
REMARK    2  A    between atoms: N_4  and  C_13
REMARK    3  A    between atoms: C_5  and  C_9
REMARK    4  A    between atoms: C_6  and  C_13
REMARK    5  A    between atoms: C_8  and  C_12
REMARK    6  A    between atoms: C_9  and  C_15
REMARK    7  A    between atoms: C_9  and  C_16
REMARK    8  A    between atoms: C_10  and  C_20
REMARK    9  A    between atoms: C_12  and  C_19
REMARK   10  A    between atoms: C_23  and  C_24
REMARK                            x       y       z     vdW  Elec       q    Type
REMARK                         _______ _______ _______ _____ _____    ______ ____
ROOT
ATOM      5  C   UNL     1      -3.282  -0.688  24.823  0.00  0.00    +0.000 C 
ATOM      6  C   UNL     1      -1.940  -0.065  24.360  0.00  0.00    +0.032 C 
ATOM      7  C   UNL     1      -4.398  -0.366  23.817  0.00  0.00    +0.012 C 
ATOM      8  C   UNL     1      -4.600   1.151  23.637  0.00  0.00    +0.023 C 
ATOM     10  C   UNL     1      -3.283   1.875  23.441  0.00  0.00    -0.073 C 
ATOM     11  C   UNL     1      -2.105   1.310  23.757  0.00  0.00    -0.022 C 
ATOM     20  C   UNL     1      -3.350   3.246  22.830  0.00  0.00    +0.039 C 
ENDROOT
BRANCH   5   9
ATOM      9  C   UNL     1      -3.172  -2.204  25.008  0.00  0.00    -0.013 C 
ATOM     15  C   UNL     1      -4.150  -2.925  24.087  0.00  0.00    +0.007 C 
ATOM     16  C   UNL     1      -1.742  -2.669  24.748  0.00  0.00    +0.007 C 
ENDBRANCH   5   9
BRANCH   8  12
ATOM     12  C   UNL     1      -5.384   1.747  24.810  0.00  0.00    +0.103 C 
BRANCH  12  19
ATOM      1  O   UNL     1      -5.239   4.134  25.179  0.00  0.00    -0.276 OA
ATOM      3  N   UNL     1      -3.560   2.747  25.989  0.00  0.00    -0.312 N 
ATOM     19  C   UNL     1      -4.751   3.018  25.330  0.00  0.00    +0.214 C 
ATOM     30  H   UNL     1      -3.263   1.782  26.096  0.00  0.00    +0.149 HD
BRANCH   3  14
ATOM     14  C   UNL     1      -2.739   3.773  26.585  0.00  0.00    +0.073 C 
ATOM     17  C   UNL     1      -2.635   5.000  25.691  0.00  0.00    +0.022 C 
ATOM     18  C   UNL     1      -1.286   3.330  26.720  0.00  0.00    +0.022 C 
ATOM     21  C   UNL     1      -1.552   4.646  24.676  0.00  0.00    +0.002 C 
ATOM     22  C   UNL     1      -0.662   3.604  25.354  0.00  0.00    +0.002 C 
ENDBRANCH   3  14
ENDBRANCH  12  19
ENDBRANCH   8  12
BRANCH   6  13
ATOM     13  C   UNL     1      -0.933  -0.001  25.513  0.00  0.00    +0.112 C 
BRANCH  13   4
ATOM      2  O   UNL     1       0.103  -0.995  23.027  0.00  0.00    -0.270 OA
ATOM      4  N   UNL     1       0.397   0.162  25.017  0.00  0.00    -0.311 N 
ATOM     23  C   UNL     1       0.820  -0.355  23.793  0.00  0.00    +0.244 C 
ATOM     31  H   UNL     1       1.047   0.673  25.603  0.00  0.00    +0.149 HD
BRANCH  23  24
ATOM     24  C   UNL     1       2.241  -0.122  23.433  0.00  0.00    +0.037 A 
ATOM     25  C   UNL     1       3.199  -1.100  23.704  0.00  0.00    +0.013 A 
ATOM     26  C   UNL     1       2.619   1.073  22.823  0.00  0.00    +0.013 A 
ATOM     27  C   UNL     1       4.534  -0.882  23.364  0.00  0.00    +0.001 A 
ATOM     28  C   UNL     1       3.954   1.292  22.482  0.00  0.00    +0.001 A 
ATOM     29  C   UNL     1       4.911   0.314  22.753  0.00  0.00    +0.000 A 
ENDBRANCH  23  24
ENDBRANCH  13   4
ENDBRANCH   6  13
TORSDOF 7
ENDMDL
MODEL 3
REMARK VINA RESULT:      -1.9      1.563      7.200
REMARK  Name = 38027289
REMARK  10 active torsions:
REMARK  status: ('A' for Active; 'I' for Inactive)
REMARK    1  A    between atoms: N_3  and  C_14
REMARK    2  A    between atoms: N_4  and  C_13
REMARK    3  A    between atoms: C_5  and  C_9
REMARK    4  A    between atoms: C_6  and  C_13
REMARK    5  A    between atoms: C_8  and  C_12
REMARK    6  A    between atoms: C_9  and  C_15
REMARK    7  A    between atoms: C_9  and  C_16
REMARK    8  A    between atoms: C_10  and  C_20
REMARK    9  A    between atoms: C_12  and  C_19
REMARK   10  A    between atoms: C_23  and  C_24
REMARK                            x       y       z     vdW  Elec       q    Type
REMARK                         _______ _______ _______ _____ _____    ______ ____
ROOT
ATOM      5  C   UNL     1      -2.077   3.384  25.100  0.00  0.00    +0.000 C 
ATOM      6  C   UNL     1      -3.321   3.258  24.185  0.00  0.00    +0.032 C 
ATOM      7  C   UNL     1      -0.810   3.593  24.257  0.00  0.00    +0.012 C 
ATOM      8  C   UNL     1      -0.573   2.438  23.266  0.00  0.00    +0.023 C 
ATOM     10  C   UNL     1      -1.836   2.075  22.511  0.00  0.00    -0.073 C 
ATOM     11  C   UNL     1      -3.053   2.462  22.929  0.00  0.00    -0.022 C 
ATOM     20  C   UNL     1      -1.662   1.295  21.238  0.00  0.00    +0.039 C 
ENDROOT
BRANCH   5   9
ATOM      9  C   UNL     1      -2.225   4.528  26.107  0.00  0.00    -0.013 C 
ATOM     15  C   UNL     1      -2.066   5.876  25.410  0.00  0.00    +0.007 C 
ATOM     16  C   UNL     1      -3.573   4.442  26.817  0.00  0.00    +0.007 C 
ENDBRANCH   5   9
BRANCH   8  12
ATOM     12  C   UNL     1       0.014   1.213  23.976  0.00  0.00    +0.103 C 
BRANCH  12  19
ATOM      1  O   UNL     1       0.476  -0.474  22.304  0.00  0.00    -0.276 OA
ATOM      3  N   UNL     1       2.230   0.760  23.200  0.00  0.00    -0.312 N 
ATOM     19  C   UNL     1       0.898   0.395  23.061  0.00  0.00    +0.214 C 
ATOM     30  H   UNL     1       2.470   1.522  23.826  0.00  0.00    +0.149 HD
BRANCH   3  14
ATOM     14  C   UNL     1       3.297   0.143  22.451  0.00  0.00    +0.073 C 
ATOM     17  C   UNL     1       3.791  -1.131  23.123  0.00  0.00    +0.022 C 
ATOM     18  C   UNL     1       4.547   1.015  22.422  0.00  0.00    +0.022 C 
ATOM     21  C   UNL     1       4.754  -0.648  24.203  0.00  0.00    +0.002 C 
ATOM     22  C   UNL     1       5.272   0.711  23.731  0.00  0.00    +0.002 C 
ENDBRANCH   3  14
ENDBRANCH  12  19
ENDBRANCH   8  12
BRANCH   6  13
ATOM     13  C   UNL     1      -4.503   2.640  24.940  0.00  0.00    +0.112 C 
BRANCH  13   4
ATOM      2  O   UNL     1      -2.529   0.751  25.822  0.00  0.00    -0.270 OA
ATOM      4  N   UNL     1      -4.537   1.223  24.758  0.00  0.00    -0.311 N 
ATOM     23  C   UNL     1      -3.532   0.375  25.221  0.00  0.00    +0.244 C 
ATOM     31  H   UNL     1      -5.333   0.842  24.260  0.00  0.00    +0.149 HD
BRANCH  23  24
ATOM     24  C   UNL     1      -3.702  -1.071  24.928  0.00  0.00    +0.037 A 
ATOM     25  C   UNL     1      -4.415  -1.477  23.800  0.00  0.00    +0.013 A 
ATOM     26  C   UNL     1      -3.146  -2.025  25.780  0.00  0.00    +0.013 A 
ATOM     27  C   UNL     1      -4.573  -2.835  23.524  0.00  0.00    +0.001 A 
ATOM     28  C   UNL     1      -3.302  -3.384  25.505  0.00  0.00    +0.001 A 
ATOM     29  C   UNL     1      -4.016  -3.788  24.377  0.00  0.00    +0.000 A 
ENDBRANCH  23  24
ENDBRANCH  13   4
ENDBRANCH   6  13
TORSDOF 7
ENDMDL
MODEL 4
REMARK VINA RESULT:      -1.8      2.738      6.731
REMARK  Name = 38027289
REMARK  10 active torsions:
REMARK  status: ('A' for Active; 'I' for Inactive)
REMARK    1  A    between atoms: N_3  and  C_14
REMARK    2  A    between atoms: N_4  and  C_13
REMARK    3  A    between atoms: C_5  and  C_9
REMARK    4  A    between atoms: C_6  and  C_13
REMARK    5  A    between atoms: C_8  and  C_12
REMARK    6  A    between atoms: C_9  and  C_15
REMARK    7  A    between atoms: C_9  and  C_16
REMARK    8  A    between atoms: C_10  and  C_20
REMARK    9  A    between atoms: C_12  and  C_19
REMARK   10  A    between atoms: C_23  and  C_24
REMARK                            x       y       z     vdW  Elec       q    Type
REMARK                         _______ _______ _______ _____ _____    ______ ____
ROOT
ATOM      5  C   UNL     1      -4.161   3.381  25.314  0.00  0.00    +0.000 C 
ATOM      6  C   UNL     1      -3.698   3.725  23.875  0.00  0.00    +0.032 C 
ATOM      7  C   UNL     1      -3.453   4.284  26.335  0.00  0.00    +0.012 C 
ATOM      8  C   UNL     1      -1.920   4.146  26.269  0.00  0.00    +0.023 C 
ATOM     10  C   UNL     1      -1.409   4.207  24.844  0.00  0.00    -0.073 C 
ATOM     11  C   UNL     1      -2.222   4.030  23.787  0.00  0.00    -0.022 C 
ATOM     20  C   UNL     1       0.048   4.522  24.660  0.00  0.00    +0.039 C 
ENDROOT
BRANCH   5   9
ATOM      9  C   UNL     1      -5.679   3.513  25.470  0.00  0.00    -0.013 C 
ATOM     15  C   UNL     1      -6.182   2.600  26.584  0.00  0.00    +0.007 C 
ATOM     16  C   UNL     1      -6.062   4.964  25.747  0.00  0.00    +0.007 C 
ENDBRANCH   5   9
BRANCH   8  12
ATOM     12  C   UNL     1      -1.450   2.865  26.966  0.00  0.00    +0.103 C 
BRANCH  12  19
ATOM      1  O   UNL     1       0.926   2.732  26.529  0.00  0.00    -0.276 OA
ATOM      3  N   UNL     1      -0.514   1.228  25.496  0.00  0.00    -0.312 N 
ATOM     19  C   UNL     1      -0.203   2.295  26.328  0.00  0.00    +0.214 C 
ATOM     30  H   UNL     1      -1.479   0.918  25.430  0.00  0.00    +0.149 HD
BRANCH   3  14
ATOM     14  C   UNL     1       0.480   0.494  24.753  0.00  0.00    +0.073 C 
ATOM     17  C   UNL     1       0.574   0.974  23.311  0.00  0.00    +0.022 C 
ATOM     18  C   UNL     1       0.101  -0.974  24.595  0.00  0.00    +0.022 C 
ATOM     21  C   UNL     1      -0.569   0.261  22.593  0.00  0.00    +0.002 C 
ATOM     22  C   UNL     1      -0.843  -1.012  23.395  0.00  0.00    +0.002 C 
ENDBRANCH   3  14
ENDBRANCH  12  19
ENDBRANCH   8  12
BRANCH   6  13
ATOM     13  C   UNL     1      -4.047   2.596  22.898  0.00  0.00    +0.112 C 
BRANCH  13   4
ATOM      2  O   UNL     1      -5.800   0.721  24.184  0.00  0.00    -0.270 OA
ATOM      4  N   UNL     1      -3.686   1.324  23.442  0.00  0.00    -0.311 N 
ATOM     23  C   UNL     1      -4.604   0.471  24.051  0.00  0.00    +0.244 C 
ATOM     31  H   UNL     1      -2.711   1.057  23.376  0.00  0.00    +0.149 HD
BRANCH  23  24
ATOM     24  C   UNL     1      -4.065  -0.803  24.590  0.00  0.00    +0.037 A 
ATOM     25  C   UNL     1      -3.463  -0.831  25.848  0.00  0.00    +0.013 A 
ATOM     26  C   UNL     1      -4.163  -1.974  23.838  0.00  0.00    +0.013 A 
ATOM     27  C   UNL     1      -2.958  -2.029  26.354  0.00  0.00    +0.001 A 
ATOM     28  C   UNL     1      -3.659  -3.173  24.344  0.00  0.00    +0.001 A 
ATOM     29  C   UNL     1      -3.056  -3.199  25.602  0.00  0.00    +0.000 A 
ENDBRANCH  23  24
ENDBRANCH  13   4
ENDBRANCH   6  13
TORSDOF 7
ENDMDL
MODEL 5
REMARK VINA RESULT:      -1.7      1.476      6.990
REMARK  Name = 38027289
REMARK  10 active torsions:
REMARK  status: ('A' for Active; 'I' for Inactive)
REMARK    1  A    between atoms: N_3  and  C_14
REMARK    2  A    between atoms: N_4  and  C_13
REMARK    3  A    between atoms: C_5  and  C_9
REMARK    4  A    between atoms: C_6  and  C_13
REMARK    5  A    between atoms: C_8  and  C_12
REMARK    6  A    between atoms: C_9  and  C_15
REMARK    7  A    between atoms: C_9  and  C_16
REMARK    8  A    between atoms: C_10  and  C_20
REMARK    9  A    between atoms: C_12  and  C_19
REMARK   10  A    between atoms: C_23  and  C_24
REMARK                            x       y       z     vdW  Elec       q    Type
REMARK                         _______ _______ _______ _____ _____    ______ ____
ROOT
ATOM      5  C   UNL     1      -2.836   3.170  25.524  0.00  0.00    +0.000 C 
ATOM      6  C   UNL     1      -3.057   3.728  24.095  0.00  0.00    +0.032 C 
ATOM      7  C   UNL     1      -1.630   3.854  26.186  0.00  0.00    +0.012 C 
ATOM      8  C   UNL     1      -0.333   3.657  25.379  0.00  0.00    +0.023 C 
ATOM     10  C   UNL     1      -0.541   3.931  23.903  0.00  0.00    -0.073 C 
ATOM     11  C   UNL     1      -1.766   3.973  23.351  0.00  0.00    -0.022 C 
ATOM     20  C   UNL     1       0.690   4.204  23.086  0.00  0.00    +0.039 C 
ENDROOT
BRANCH   5   9
ATOM      9  C   UNL     1      -4.079   3.346  26.402  0.00  0.00    -0.013 C 
ATOM     15  C   UNL     1      -3.743   4.168  27.642  0.00  0.00    +0.007 C 
ATOM     16  C   UNL     1      -5.204   4.002  25.607  0.00  0.00    +0.007 C 
ENDBRANCH   5   9
BRANCH   8  12
ATOM     12  C   UNL     1       0.247   2.256  25.600  0.00  0.00    +0.103 C 
BRANCH  12  19
ATOM      1  O   UNL     1      -0.485   1.061  23.627  0.00  0.00    -0.276 OA
ATOM      3  N   UNL     1       1.786   1.402  23.981  0.00  0.00    -0.312 N 
ATOM     19  C   UNL     1       0.439   1.509  24.299  0.00  0.00    +0.214 C 
ATOM     30  H   UNL     1       2.473   1.844  24.585  0.00  0.00    +0.149 HD
BRANCH   3  14
ATOM     14  C   UNL     1       2.264   0.735  22.795  0.00  0.00    +0.073 C 
ATOM     17  C   UNL     1       2.474  -0.755  23.033  0.00  0.00    +0.022 C 
ATOM     18  C   UNL     1       3.657   1.211  22.398  0.00  0.00    +0.022 C 
ATOM     21  C   UNL     1       3.842  -0.848  23.704  0.00  0.00    +0.002 C 
ATOM     22  C   UNL     1       4.616   0.394  23.261  0.00  0.00    +0.002 C 
ENDBRANCH   3  14
ENDBRANCH  12  19
ENDBRANCH   8  12
BRANCH   6  13
ATOM     13  C   UNL     1      -3.955   2.797  23.272  0.00  0.00    +0.112 C 
BRANCH  13   4
ATOM      2  O   UNL     1      -5.254   0.797  24.869  0.00  0.00    -0.270 OA
ATOM      4  N   UNL     1      -3.552   1.435  23.427  0.00  0.00    -0.311 N 
ATOM     23  C   UNL     1      -4.244   0.526  24.226  0.00  0.00    +0.244 C 
ATOM     31  H   UNL     1      -2.718   1.142  22.931  0.00  0.00    +0.149 HD
BRANCH  23  24
ATOM     24  C   UNL     1      -3.681  -0.846  24.304  0.00  0.00    +0.037 A 
ATOM     25  C   UNL     1      -4.405  -1.928  23.802  0.00  0.00    +0.013 A 
ATOM     26  C   UNL     1      -2.427  -1.054  24.878  0.00  0.00    +0.013 A 
ATOM     27  C   UNL     1      -3.876  -3.216  23.874  0.00  0.00    +0.001 A 
ATOM     28  C   UNL     1      -1.896  -2.342  24.950  0.00  0.00    +0.001 A 
ATOM     29  C   UNL     1      -2.621  -3.423  24.448  0.00  0.00    +0.000 A 
ENDBRANCH  23  24
ENDBRANCH  13   4
ENDBRANCH   6  13
TORSDOF 7
ENDMDL
MODEL 6
REMARK VINA RESULT:      -1.5      1.376      7.876
REMARK  Name = 38027289
REMARK  10 active torsions:
REMARK  status: ('A' for Active; 'I' for Inactive)
REMARK    1  A    between atoms: N_3  and  C_14
REMARK    2  A    between atoms: N_4  and  C_13
REMARK    3  A    between atoms: C_5  and  C_9
REMARK    4  A    between atoms: C_6  and  C_13
REMARK    5  A    between atoms: C_8  and  C_12
REMARK    6  A    between atoms: C_9  and  C_15
REMARK    7  A    between atoms: C_9  and  C_16
REMARK    8  A    between atoms: C_10  and  C_20
REMARK    9  A    between atoms: C_12  and  C_19
REMARK   10  A    between atoms: C_23  and  C_24
REMARK                            x       y       z     vdW  Elec       q    Type
REMARK                         _______ _______ _______ _____ _____    ______ ____
ROOT
ATOM      5  C   UNL     1      -1.795  -1.813  24.475  0.00  0.00    +0.000 C 
ATOM      6  C   UNL     1      -2.593  -1.158  25.631  0.00  0.00    +0.032 C 
ATOM      7  C   UNL     1      -0.286  -1.609  24.683  0.00  0.00    +0.012 C 
ATOM      8  C   UNL     1       0.095  -0.118  24.757  0.00  0.00    +0.023 C 
ATOM     10  C   UNL     1      -0.825   0.654  25.680  0.00  0.00    -0.073 C 
ATOM     11  C   UNL     1      -2.016   0.167  26.071  0.00  0.00    -0.022 C 
ATOM     20  C   UNL     1      -0.324   1.979  26.182  0.00  0.00    +0.039 C 
ENDROOT
BRANCH   5   9
ATOM      9  C   UNL     1      -2.103  -3.307  24.346  0.00  0.00    -0.013 C 
ATOM     15  C   UNL     1      -3.610  -3.538  24.295  0.00  0.00    +0.007 C 
ATOM     16  C   UNL     1      -1.425  -3.886  23.107  0.00  0.00    +0.007 C 
ENDBRANCH   5   9
BRANCH   8  12
ATOM     12  C   UNL     1       0.128   0.513  23.361  0.00  0.00    +0.103 C 
BRANCH  12  19
ATOM      1  O   UNL     1       1.096  -0.441  21.359  0.00  0.00    -0.276 OA
ATOM      3  N   UNL     1       2.448  -0.045  23.208  0.00  0.00    -0.312 N 
ATOM     19  C   UNL     1       1.247  -0.044  22.511  0.00  0.00    +0.214 C 
ATOM     30  H   UNL     1       2.475   0.344  24.145  0.00  0.00    +0.149 HD
BRANCH   3  14
ATOM     14  C   UNL     1       3.685  -0.525  22.643  0.00  0.00    +0.073 C 
ATOM     17  C   UNL     1       4.431  -1.432  23.613  0.00  0.00    +0.022 C 
ATOM     18  C   UNL     1       4.680   0.607  22.409  0.00  0.00    +0.022 C 
ATOM     21  C   UNL     1       5.165  -0.475  24.547  0.00  0.00    +0.002 C 
ATOM     22  C   UNL     1       5.362   0.820  23.758  0.00  0.00    +0.002 C 
ENDBRANCH   3  14
ENDBRANCH  12  19
ENDBRANCH   8  12
BRANCH   6  13
ATOM     13  C   UNL     1      -4.066  -0.973  25.249  0.00  0.00    +0.112 C 
BRANCH  13   4
ATOM      2  O   UNL     1      -3.516   1.081  23.322  0.00  0.00    -0.270 OA
ATOM      4  N   UNL     1      -4.445   0.402  25.336  0.00  0.00    -0.311 N 
ATOM     23  C   UNL     1      -4.136   1.338  24.351  0.00  0.00    +0.244 C 
ATOM     31  H   UNL     1      -4.953   0.688  26.166  0.00  0.00    +0.149 HD
BRANCH  23  24
ATOM     24  C   UNL     1      -4.577   2.733  24.603  0.00  0.00    +0.037 A 
ATOM     25  C   UNL     1      -5.667   2.981  25.439  0.00  0.00    +0.013 A 
ATOM     26  C   UNL     1      -3.901   3.797  24.006  0.00  0.00    +0.013 A 
ATOM     27  C   UNL     1      -6.080   4.292  25.677  0.00  0.00    +0.001 A 
ATOM     28  C   UNL     1      -4.313   5.108  24.245  0.00  0.00    +0.001 A 
ATOM     29  C   UNL     1      -5.403   5.355  25.080  0.00  0.00    +0.000 A 
ENDBRANCH  23  24
ENDBRANCH  13   4
ENDBRANCH   6  13
TORSDOF 7
ENDMDL
MODEL 7
REMARK VINA RESULT:      -1.4      2.014      4.468
REMARK  Name = 38027289
REMARK  10 active torsions:
REMARK  status: ('A' for Active; 'I' for Inactive)
REMARK    1  A    between atoms: N_3  and  C_14
REMARK    2  A    between atoms: N_4  and  C_13
REMARK    3  A    between atoms: C_5  and  C_9
REMARK    4  A    between atoms: C_6  and  C_13
REMARK    5  A    between atoms: C_8  and  C_12
REMARK    6  A    between atoms: C_9  and  C_15
REMARK    7  A    between atoms: C_9  and  C_16
REMARK    8  A    between atoms: C_10  and  C_20
REMARK    9  A    between atoms: C_12  and  C_19
REMARK   10  A    between atoms: C_23  and  C_24
REMARK                            x       y       z     vdW  Elec       q    Type
REMARK                         _______ _______ _______ _____ _____    ______ ____
ROOT
ATOM      5  C   UNL     1      -1.492   3.893  24.752  0.00  0.00    +0.000 C 
ATOM      6  C   UNL     1      -1.631   3.695  26.283  0.00  0.00    +0.032 C 
ATOM      7  C   UNL     1      -2.759   4.545  24.178  0.00  0.00    +0.012 C 
ATOM      8  C   UNL     1      -4.021   3.703  24.449  0.00  0.00    +0.023 C 
ATOM     10  C   UNL     1      -4.090   3.241  25.891  0.00  0.00    -0.073 C 
ATOM     11  C   UNL     1      -3.016   3.258  26.698  0.00  0.00    -0.022 C 
ATOM     20  C   UNL     1      -5.436   2.804  26.396  0.00  0.00    +0.039 C 
ENDROOT
BRANCH   5   9
ATOM      9  C   UNL     1      -0.266   4.740  24.396  0.00  0.00    -0.013 C 
ATOM     15  C   UNL     1       0.113   4.541  22.933  0.00  0.00    +0.007 C 
ATOM     16  C   UNL     1      -0.534   6.213  24.690  0.00  0.00    +0.007 C 
ENDBRANCH   5   9
BRANCH   8  12
ATOM     12  C   UNL     1      -4.108   2.514  23.488  0.00  0.00    +0.103 C 
BRANCH  12  19
ATOM      1  O   UNL     1      -5.986   1.356  24.481  0.00  0.00    -0.276 OA
ATOM      3  N   UNL     1      -3.971   0.235  24.198  0.00  0.00    -0.312 N 
ATOM     19  C   UNL     1      -4.817   1.331  24.109  0.00  0.00    +0.214 C 
ATOM     30  H   UNL     1      -3.030   0.305  23.823  0.00  0.00    +0.149 HD
BRANCH   3  14
ATOM     14  C   UNL     1      -4.380  -1.032  24.754  0.00  0.00    +0.073 C 
ATOM     17  C   UNL     1      -3.593  -1.375  26.012  0.00  0.00    +0.022 C 
ATOM     18  C   UNL     1      -4.048  -2.194  23.823  0.00  0.00    +0.022 C 
ATOM     21  C   UNL     1      -2.281  -1.961  25.498  0.00  0.00    +0.002 C 
ATOM     22  C   UNL     1      -2.585  -2.524  24.109  0.00  0.00    +0.002 C 
ENDBRANCH   3  14
ENDBRANCH  12  19
ENDBRANCH   8  12
BRANCH   6  13
ATOM     13  C   UNL     1      -0.598   2.691  26.806  0.00  0.00    +0.112 C 
BRANCH  13   4
ATOM      2  O   UNL     1      -1.296   0.660  24.902  0.00  0.00    -0.270 OA
ATOM      4  N   UNL     1       0.220   2.202  25.741  0.00  0.00    -0.311 N 
ATOM     23  C   UNL     1      -0.198   1.209  24.857  0.00  0.00    +0.244 C 
ATOM     31  H   UNL     1       1.146   2.605  25.650  0.00  0.00    +0.149 HD
BRANCH  23  24
ATOM     24  C   UNL     1       0.780   0.792  23.821  0.00  0.00    +0.037 A 
ATOM     25  C   UNL     1       2.050   1.368  23.787  0.00  0.00    +0.013 A 
ATOM     26  C   UNL     1       0.430  -0.177  22.881  0.00  0.00    +0.013 A 
ATOM     27  C   UNL     1       2.970   0.975  22.815  0.00  0.00    +0.001 A 
ATOM     28  C   UNL     1       1.349  -0.571  21.909  0.00  0.00    +0.001 A 
ATOM     29  C   UNL     1       2.619   0.005  21.876  0.00  0.00    +0.000 A 
ENDBRANCH  23  24
ENDBRANCH  13   4
ENDBRANCH   6  13
TORSDOF 7
ENDMDL
