MODEL 1
REMARK VINA RESULT:      -0.7      0.000      0.000
REMARK  Name = 38030943
REMARK  14 active torsions:
REMARK  status: ('A' for Active; 'I' for Inactive)
REMARK    1  A    between atoms: O_2  and  C_23
REMARK    2  A    between atoms: O_2  and  C_26
REMARK    3  A    between atoms: N_5  and  C_16
REMARK    4  A    between atoms: N_5  and  C_22
REMARK    5  A    between atoms: N_8  and  C_31
REMARK    6  A    between atoms: C_9  and  C_13
REMARK    7  A    between atoms: C_10  and  C_16
REMARK    8  A    between atoms: C_12  and  C_17
REMARK    9  A    between atoms: C_13  and  C_18
REMARK   10  A    between atoms: C_13  and  C_19
REMARK   11  A    between atoms: C_14  and  C_20
REMARK   12  A    between atoms: C_17  and  C_21
REMARK   13  A    between atoms: C_22  and  C_23
REMARK   14  A    between atoms: C_24  and  C_25
REMARK                            x       y       z     vdW  Elec       q    Type
REMARK                         _______ _______ _______ _____ _____    ______ ____
ROOT
ATOM      9  C   UNL     1      -3.669   2.387  24.076  0.00  0.00    +0.000 C 
ATOM     10  C   UNL     1      -4.613   3.507  24.582  0.00  0.00    +0.029 C 
ATOM     11  C   UNL     1      -4.441   1.069  23.913  0.00  0.00    +0.012 C 
ATOM     12  C   UNL     1      -5.088   0.605  25.231  0.00  0.00    +0.024 C 
ATOM     14  C   UNL     1      -5.818   1.735  25.929  0.00  0.00    -0.073 C 
ATOM     15  C   UNL     1      -5.603   3.025  25.617  0.00  0.00    -0.023 C 
ATOM     20  C   UNL     1      -6.837   1.346  26.965  0.00  0.00    +0.039 C 
ENDROOT
BRANCH   9  13
ATOM     13  C   UNL     1      -2.998   2.763  22.752  0.00  0.00    -0.013 C 
ATOM     18  C   UNL     1      -2.470   1.515  22.050  0.00  0.00    +0.007 C 
ATOM     19  C   UNL     1      -3.976   3.515  21.855  0.00  0.00    +0.007 C 
ENDBRANCH   9  13
BRANCH  10  16
ATOM     16  C   UNL     1      -3.815   4.687  25.149  0.00  0.00    +0.088 C 
BRANCH  16   5
ATOM      5  N   UNL     1      -2.639   4.217  25.860  0.00  0.00    -0.313 NA
ATOM     32  H   UNL     1      -2.705   4.439  26.852  0.00  0.00    +0.122 HD
BRANCH   5  22
ATOM     22  C   UNL     1      -1.424   4.811  25.315  0.00  0.00    +0.109 C 
BRANCH  22  23
ATOM     23  C   UNL     1      -0.325   3.767  25.192  0.00  0.00    +0.174 C 
BRANCH  23   2
ATOM      2  O   UNL     1      -0.609   2.697  26.084  0.00  0.00    -0.382 OA
ATOM     26  C   UNL     1       0.472   2.462  26.976  0.00  0.00    +0.194 C 
ENDBRANCH  23   2
ENDBRANCH  22  23
ENDBRANCH   5  22
ENDBRANCH  16   5
ENDBRANCH  10  16
BRANCH  12  17
ATOM     17  C   UNL     1      -4.050  -0.034  26.161  0.00  0.00    +0.105 C 
BRANCH  17  21
ATOM      1  O   UNL     1      -1.835  -0.045  25.136  0.00  0.00    -0.420 OA
ATOM      6  N   UNL     1      -2.969  -1.958  24.888  0.00  0.00    -0.112 NA
ATOM      7  N   UNL     1      -1.744  -2.103  24.265  0.00  0.00    -0.107 NA
ATOM     21  C   UNL     1      -2.979  -0.742  25.383  0.00  0.00    +0.218 A 
ATOM     24  C   UNL     1      -1.116  -0.964  24.435  0.00  0.00    +0.248 A 
BRANCH  24  25
ATOM     25  C   UNL     1       0.186  -0.545  24.004  0.00  0.00    +0.039 A 
ATOM     27  C   UNL     1       0.417   0.791  23.677  0.00  0.00    +0.015 A 
ATOM     28  C   UNL     1       1.222  -1.474  23.913  0.00  0.00    +0.015 A 
ATOM     29  C   UNL     1       1.684   1.198  23.258  0.00  0.00    +0.033 A 
ATOM     30  C   UNL     1       2.489  -1.067  23.493  0.00  0.00    +0.033 A 
ATOM     31  C   UNL     1       2.720   0.268  23.166  0.00  0.00    +0.126 A 
BRANCH  31   8
ATOM      3  O   UNL     1       4.203   0.918  21.525  0.00  0.00    -0.126 OA
ATOM      4  O   UNL     1       4.921   0.803  23.596  0.00  0.00    -0.126 OA
ATOM      8  N   UNL     1       4.010   0.682  22.742  0.00  0.00    +0.056 N 
ENDBRANCH  31   8
ENDBRANCH  24  25
ENDBRANCH  17  21
ENDBRANCH  12  17
TORSDOF 10
ENDMDL
MODEL 2
REMARK VINA RESULT:      -0.6     15.722     17.694
REMARK  Name = 38030943
REMARK  14 active torsions:
REMARK  status: ('A' for Active; 'I' for Inactive)
REMARK    1  A    between atoms: O_2  and  C_23
REMARK    2  A    between atoms: O_2  and  C_26
REMARK    3  A    between atoms: N_5  and  C_16
REMARK    4  A    between atoms: N_5  and  C_22
REMARK    5  A    between atoms: N_8  and  C_31
REMARK    6  A    between atoms: C_9  and  C_13
REMARK    7  A    between atoms: C_10  and  C_16
REMARK    8  A    between atoms: C_12  and  C_17
REMARK    9  A    between atoms: C_13  and  C_18
REMARK   10  A    between atoms: C_13  and  C_19
REMARK   11  A    between atoms: C_14  and  C_20
REMARK   12  A    between atoms: C_17  and  C_21
REMARK   13  A    between atoms: C_22  and  C_23
REMARK   14  A    between atoms: C_24  and  C_25
REMARK                            x       y       z     vdW  Elec       q    Type
REMARK                         _______ _______ _______ _____ _____    ______ ____
ROOT
ATOM      9  C   UNL     1      -6.481  -9.849  11.783  0.00  0.00    +0.000 C 
ATOM     10  C   UNL     1      -7.887  -9.509  11.227  0.00  0.00    +0.029 C 
ATOM     11  C   UNL     1      -5.537  -8.646  11.626  0.00  0.00    +0.012 C 
ATOM     12  C   UNL     1      -5.390  -8.209  10.156  0.00  0.00    +0.024 C 
ATOM     14  C   UNL     1      -6.733  -8.112   9.460  0.00  0.00    -0.073 C 
ATOM     15  C   UNL     1      -7.840  -8.688   9.960  0.00  0.00    -0.023 C 
ATOM     20  C   UNL     1      -6.783  -7.297   8.197  0.00  0.00    +0.039 C 
ENDROOT
BRANCH   9  13
ATOM     13  C   UNL     1      -6.537 -10.275  13.252  0.00  0.00    -0.013 C 
ATOM     18  C   UNL     1      -5.129 -10.490  13.798  0.00  0.00    +0.007 C 
ATOM     19  C   UNL     1      -7.286  -9.235  14.080  0.00  0.00    +0.007 C 
ENDBRANCH   9  13
BRANCH  10  16
ATOM     16  C   UNL     1      -8.706 -10.781  10.981  0.00  0.00    +0.088 C 
BRANCH  16   5
ATOM      5  N   UNL     1      -9.989 -10.457  10.383  0.00  0.00    -0.313 NA
ATOM     32  H   UNL     1     -10.681 -11.172  10.605  0.00  0.00    +0.122 HD
BRANCH   5  22
ATOM     22  C   UNL     1      -9.877 -10.333   8.935  0.00  0.00    +0.109 C 
BRANCH  22  23
ATOM     23  C   UNL     1     -10.718  -9.170   8.429  0.00  0.00    +0.174 C 
BRANCH  23   2
ATOM      2  O   UNL     1     -10.716  -8.144   9.412  0.00  0.00    -0.382 OA
ATOM     26  C   UNL     1     -10.717  -6.853   8.818  0.00  0.00    +0.194 C 
ENDBRANCH  23   2
ENDBRANCH  22  23
ENDBRANCH   5  22
ENDBRANCH  16   5
ENDBRANCH  10  16
BRANCH  12  17
ATOM     17  C   UNL     1      -4.443  -9.143   9.394  0.00  0.00    +0.105 C 
BRANCH  17  21
ATOM      1  O   UNL     1      -2.227  -8.618  10.274  0.00  0.00    -0.420 OA
ATOM      6  N   UNL     1      -3.033 -10.597  10.939  0.00  0.00    -0.112 NA
ATOM      7  N   UNL     1      -1.783 -10.431  11.506  0.00  0.00    -0.107 NA
ATOM     21  C   UNL     1      -3.251  -9.515  10.228  0.00  0.00    +0.218 A 
ATOM     24  C   UNL     1      -1.351  -9.263  11.091  0.00  0.00    +0.248 A 
BRANCH  24  25
ATOM     25  C   UNL     1      -0.122  -8.576  11.361  0.00  0.00    +0.039 A 
ATOM     27  C   UNL     1       1.043  -8.938  10.685  0.00  0.00    +0.015 A 
ATOM     28  C   UNL     1      -0.091  -7.545  12.299  0.00  0.00    +0.015 A 
ATOM     29  C   UNL     1       2.239  -8.270  10.948  0.00  0.00    +0.033 A 
ATOM     30  C   UNL     1       1.105  -6.876  12.563  0.00  0.00    +0.033 A 
ATOM     31  C   UNL     1       2.269  -7.238  11.887  0.00  0.00    +0.126 A 
BRANCH  31   8
ATOM      3  O   UNL     1       3.448  -5.335  12.437  0.00  0.00    -0.126 OA
ATOM      4  O   UNL     1       4.565  -7.194  12.098  0.00  0.00    -0.126 OA
ATOM      8  N   UNL     1       3.485  -6.556  12.153  0.00  0.00    +0.056 N 
ENDBRANCH  31   8
ENDBRANCH  24  25
ENDBRANCH  17  21
ENDBRANCH  12  17
TORSDOF 10
ENDMDL
MODEL 3
REMARK VINA RESULT:       1.4      1.708      2.895
REMARK  Name = 38030943
REMARK  14 active torsions:
REMARK  status: ('A' for Active; 'I' for Inactive)
REMARK    1  A    between atoms: O_2  and  C_23
REMARK    2  A    between atoms: O_2  and  C_26
REMARK    3  A    between atoms: N_5  and  C_16
REMARK    4  A    between atoms: N_5  and  C_22
REMARK    5  A    between atoms: N_8  and  C_31
REMARK    6  A    between atoms: C_9  and  C_13
REMARK    7  A    between atoms: C_10  and  C_16
REMARK    8  A    between atoms: C_12  and  C_17
REMARK    9  A    between atoms: C_13  and  C_18
REMARK   10  A    between atoms: C_13  and  C_19
REMARK   11  A    between atoms: C_14  and  C_20
REMARK   12  A    between atoms: C_17  and  C_21
REMARK   13  A    between atoms: C_22  and  C_23
REMARK   14  A    between atoms: C_24  and  C_25
REMARK                            x       y       z     vdW  Elec       q    Type
REMARK                         _______ _______ _______ _____ _____    ______ ____
ROOT
ATOM      9  C   UNL     1      -2.012   3.882  24.812  0.00  0.00    +0.000 C 
ATOM     10  C   UNL     1      -2.351   3.515  26.278  0.00  0.00    +0.029 C 
ATOM     11  C   UNL     1      -3.246   4.467  24.107  0.00  0.00    +0.012 C 
ATOM     12  C   UNL     1      -4.435   3.487  24.104  0.00  0.00    +0.024 C 
ATOM     14  C   UNL     1      -4.663   2.875  25.471  0.00  0.00    -0.073 C 
ATOM     15  C   UNL     1      -3.725   2.908  26.434  0.00  0.00    -0.023 C 
ATOM     20  C   UNL     1      -6.013   2.261  25.721  0.00  0.00    +0.039 C 
ENDROOT
BRANCH   9  13
ATOM     13  C   UNL     1      -0.848   4.873  24.727  0.00  0.00    -0.013 C 
ATOM     18  C   UNL     1      -0.157   4.768  23.371  0.00  0.00    +0.007 C 
ATOM     19  C   UNL     1      -1.341   6.295  24.974  0.00  0.00    +0.007 C 
ENDBRANCH   9  13
BRANCH  10  16
ATOM     16  C   UNL     1      -1.302   2.564  26.866  0.00  0.00    +0.088 C 
BRANCH  16   5
ATOM      5  N   UNL     1       0.013   2.850  26.320  0.00  0.00    -0.313 NA
ATOM     32  H   UNL     1       0.217   2.238  25.531  0.00  0.00    +0.122 HD
BRANCH   5  22
ATOM     22  C   UNL     1       1.048   2.688  27.334  0.00  0.00    +0.109 C 
BRANCH  22  23
ATOM     23  C   UNL     1       0.428   2.443  28.701  0.00  0.00    +0.174 C 
BRANCH  23   2
ATOM      2  O   UNL     1       1.461   2.456  29.679  0.00  0.00    -0.382 OA
ATOM     26  C   UNL     1       2.704   2.855  29.118  0.00  0.00    +0.194 C 
ENDBRANCH  23   2
ENDBRANCH  22  23
ENDBRANCH   5  22
ENDBRANCH  16   5
ENDBRANCH  10  16
BRANCH  12  17
ATOM     17  C   UNL     1      -4.252   2.400  23.039  0.00  0.00    +0.105 C 
BRANCH  17  21
ATOM      1  O   UNL     1      -1.918   1.688  23.117  0.00  0.00    -0.420 OA
ATOM      6  N   UNL     1      -3.343   0.264  24.090  0.00  0.00    -0.112 NA
ATOM      7  N   UNL     1      -2.069  -0.259  24.207  0.00  0.00    -0.107 NA
ATOM     21  C   UNL     1      -3.208   1.401  23.448  0.00  0.00    +0.218 A 
ATOM     24  C   UNL     1      -1.271   0.605  23.625  0.00  0.00    +0.248 A 
BRANCH  24  25
ATOM     25  C   UNL     1       0.152   0.583  23.446  0.00  0.00    +0.039 A 
ATOM     27  C   UNL     1       0.766  -0.527  22.868  0.00  0.00    +0.015 A 
ATOM     28  C   UNL     1       0.922   1.673  23.851  0.00  0.00    +0.015 A 
ATOM     29  C   UNL     1       2.150  -0.549  22.694  0.00  0.00    +0.033 A 
ATOM     30  C   UNL     1       2.307   1.652  23.678  0.00  0.00    +0.033 A 
ATOM     31  C   UNL     1       2.920   0.542  23.099  0.00  0.00    +0.126 A 
BRANCH  31   8
ATOM      3  O   UNL     1       5.069   0.795  23.896  0.00  0.00    -0.126 OA
ATOM      4  O   UNL     1       4.794   0.230  21.793  0.00  0.00    -0.126 OA
ATOM      8  N   UNL     1       4.328   0.522  22.921  0.00  0.00    +0.056 N 
ENDBRANCH  31   8
ENDBRANCH  24  25
ENDBRANCH  17  21
ENDBRANCH  12  17
TORSDOF 10
ENDMDL
MODEL 4
REMARK VINA RESULT:       1.7      1.690      3.349
REMARK  Name = 38030943
REMARK  14 active torsions:
REMARK  status: ('A' for Active; 'I' for Inactive)
REMARK    1  A    between atoms: O_2  and  C_23
REMARK    2  A    between atoms: O_2  and  C_26
REMARK    3  A    between atoms: N_5  and  C_16
REMARK    4  A    between atoms: N_5  and  C_22
REMARK    5  A    between atoms: N_8  and  C_31
REMARK    6  A    between atoms: C_9  and  C_13
REMARK    7  A    between atoms: C_10  and  C_16
REMARK    8  A    between atoms: C_12  and  C_17
REMARK    9  A    between atoms: C_13  and  C_18
REMARK   10  A    between atoms: C_13  and  C_19
REMARK   11  A    between atoms: C_14  and  C_20
REMARK   12  A    between atoms: C_17  and  C_21
REMARK   13  A    between atoms: C_22  and  C_23
REMARK   14  A    between atoms: C_24  and  C_25
REMARK                            x       y       z     vdW  Elec       q    Type
REMARK                         _______ _______ _______ _____ _____    ______ ____
ROOT
ATOM      9  C   UNL     1      -1.984   3.990  24.784  0.00  0.00    +0.000 C 
ATOM     10  C   UNL     1      -2.297   3.241  26.104  0.00  0.00    +0.029 C 
ATOM     11  C   UNL     1      -3.262   4.619  24.209  0.00  0.00    +0.012 C 
ATOM     12  C   UNL     1      -4.353   3.568  23.929  0.00  0.00    +0.024 C 
ATOM     14  C   UNL     1      -4.532   2.617  25.095  0.00  0.00    -0.073 C 
ATOM     15  C   UNL     1      -3.609   2.494  26.064  0.00  0.00    -0.023 C 
ATOM     20  C   UNL     1      -5.820   1.841  25.145  0.00  0.00    +0.039 C 
ENDROOT
BRANCH   9  13
ATOM     13  C   UNL     1      -0.918   5.072  24.982  0.00  0.00    -0.013 C 
ATOM     18  C   UNL     1       0.144   4.978  23.890  0.00  0.00    +0.007 C 
ATOM     19  C   UNL     1      -1.560   6.455  24.995  0.00  0.00    +0.007 C 
ENDBRANCH   9  13
BRANCH  10  16
ATOM     16  C   UNL     1      -1.167   2.272  26.470  0.00  0.00    +0.088 C 
BRANCH  16   5
ATOM      5  N   UNL     1      -1.315   1.018  25.752  0.00  0.00    -0.313 NA
ATOM     32  H   UNL     1      -2.265   0.916  25.395  0.00  0.00    +0.122 HD
BRANCH   5  22
ATOM     22  C   UNL     1      -1.001  -0.118  26.610  0.00  0.00    +0.109 C 
BRANCH  22  23
ATOM     23  C   UNL     1      -1.513  -1.413  25.997  0.00  0.00    +0.174 C 
BRANCH  23   2
ATOM      2  O   UNL     1      -2.932  -1.428  26.082  0.00  0.00    -0.382 OA
ATOM     26  C   UNL     1      -3.489  -2.481  25.307  0.00  0.00    +0.194 C 
ENDBRANCH  23   2
ENDBRANCH  22  23
ENDBRANCH   5  22
ENDBRANCH  16   5
ENDBRANCH  10  16
BRANCH  12  17
ATOM     17  C   UNL     1      -4.062   2.800  22.634  0.00  0.00    +0.105 C 
BRANCH  17  21
ATOM      1  O   UNL     1      -1.776   1.955  22.781  0.00  0.00    -0.420 OA
ATOM      6  N   UNL     1      -3.351   0.411  23.160  0.00  0.00    -0.112 NA
ATOM      7  N   UNL     1      -2.117  -0.200  23.273  0.00  0.00    -0.107 NA
ATOM     21  C   UNL     1      -3.105   1.668  22.872  0.00  0.00    +0.218 A 
ATOM     24  C   UNL     1      -1.228   0.738  23.044  0.00  0.00    +0.248 A 
BRANCH  24  25
ATOM     25  C   UNL     1       0.205   0.679  23.030  0.00  0.00    +0.039 A 
ATOM     27  C   UNL     1       0.855  -0.322  22.309  0.00  0.00    +0.015 A 
ATOM     28  C   UNL     1       0.948   1.623  23.738  0.00  0.00    +0.015 A 
ATOM     29  C   UNL     1       2.249  -0.380  22.295  0.00  0.00    +0.033 A 
ATOM     30  C   UNL     1       2.343   1.565  23.725  0.00  0.00    +0.033 A 
ATOM     31  C   UNL     1       2.992   0.565  23.003  0.00  0.00    +0.126 A 
BRANCH  31   8
ATOM      3  O   UNL     1       4.994   0.169  21.930  0.00  0.00    -0.126 OA
ATOM      4  O   UNL     1       5.043   0.800  24.032  0.00  0.00    -0.126 OA
ATOM      8  N   UNL     1       4.410   0.508  22.988  0.00  0.00    +0.056 N 
ENDBRANCH  31   8
ENDBRANCH  24  25
ENDBRANCH  17  21
ENDBRANCH  12  17
TORSDOF 10
ENDMDL
MODEL 5
REMARK VINA RESULT:       1.7      2.315      5.337
REMARK  Name = 38030943
REMARK  14 active torsions:
REMARK  status: ('A' for Active; 'I' for Inactive)
REMARK    1  A    between atoms: O_2  and  C_23
REMARK    2  A    between atoms: O_2  and  C_26
REMARK    3  A    between atoms: N_5  and  C_16
REMARK    4  A    between atoms: N_5  and  C_22
REMARK    5  A    between atoms: N_8  and  C_31
REMARK    6  A    between atoms: C_9  and  C_13
REMARK    7  A    between atoms: C_10  and  C_16
REMARK    8  A    between atoms: C_12  and  C_17
REMARK    9  A    between atoms: C_13  and  C_18
REMARK   10  A    between atoms: C_13  and  C_19
REMARK   11  A    between atoms: C_14  and  C_20
REMARK   12  A    between atoms: C_17  and  C_21
REMARK   13  A    between atoms: C_22  and  C_23
REMARK   14  A    between atoms: C_24  and  C_25
REMARK                            x       y       z     vdW  Elec       q    Type
REMARK                         _______ _______ _______ _____ _____    ______ ____
ROOT
ATOM      9  C   UNL     1      -2.901  -0.559  24.641  0.00  0.00    +0.000 C 
ATOM     10  C   UNL     1      -1.710  -0.016  23.812  0.00  0.00    +0.029 C 
ATOM     11  C   UNL     1      -4.216  -0.393  23.863  0.00  0.00    +0.012 C 
ATOM     12  C   UNL     1      -4.499   1.078  23.504  0.00  0.00    +0.024 C 
ATOM     14  C   UNL     1      -3.278   1.762  22.924  0.00  0.00    -0.073 C 
ATOM     15  C   UNL     1      -2.042   1.252  23.060  0.00  0.00    -0.023 C 
ATOM     20  C   UNL     1      -3.516   3.025  22.143  0.00  0.00    +0.039 C 
ENDROOT
BRANCH   9  13
ATOM     13  C   UNL     1      -2.706  -2.029  25.022  0.00  0.00    -0.013 C 
ATOM     18  C   UNL     1      -3.807  -2.888  24.409  0.00  0.00    +0.007 C 
ATOM     19  C   UNL     1      -1.330  -2.515  24.579  0.00  0.00    +0.007 C 
ENDBRANCH   9  13
BRANCH  10  16
ATOM     16  C   UNL     1      -0.483   0.222  24.699  0.00  0.00    +0.088 C 
BRANCH  16   5
ATOM      5  N   UNL     1       0.627   0.732  23.912  0.00  0.00    -0.313 NA
ATOM     32  H   UNL     1       0.311   1.460  23.272  0.00  0.00    +0.122 HD
BRANCH   5  22
ATOM     22  C   UNL     1       1.263  -0.335  23.149  0.00  0.00    +0.109 C 
BRANCH  22  23
ATOM     23  C   UNL     1       2.400   0.215  22.302  0.00  0.00    +0.174 C 
BRANCH  23   2
ATOM      2  O   UNL     1       3.252   0.994  23.132  0.00  0.00    -0.382 OA
ATOM     26  C   UNL     1       4.590   0.514  23.101  0.00  0.00    +0.194 C 
ENDBRANCH  23   2
ENDBRANCH  22  23
ENDBRANCH   5  22
ENDBRANCH  16   5
ENDBRANCH  10  16
BRANCH  12  17
ATOM     17  C   UNL     1      -5.036   1.848  24.716  0.00  0.00    +0.105 C 
BRANCH  17  21
ATOM      1  O   UNL     1      -2.951   2.228  25.928  0.00  0.00    -0.420 OA
ATOM      6  N   UNL     1      -3.953   4.099  25.219  0.00  0.00    -0.112 NA
ATOM      7  N   UNL     1      -2.796   4.459  25.883  0.00  0.00    -0.107 NA
ATOM     21  C   UNL     1      -4.004   2.788  25.269  0.00  0.00    +0.218 A 
ATOM     24  C   UNL     1      -2.244   3.337  26.279  0.00  0.00    +0.248 A 
BRANCH  24  25
ATOM     25  C   UNL     1      -1.033   3.102  27.011  0.00  0.00    +0.039 A 
ATOM     27  C   UNL     1       0.172   2.925  26.330  0.00  0.00    +0.015 A 
ATOM     28  C   UNL     1      -1.059   3.051  28.404  0.00  0.00    +0.015 A 
ATOM     29  C   UNL     1       1.349   2.697  27.041  0.00  0.00    +0.033 A 
ATOM     30  C   UNL     1       0.119   2.822  29.117  0.00  0.00    +0.033 A 
ATOM     31  C   UNL     1       1.322   2.646  28.435  0.00  0.00    +0.126 A 
BRANCH  31   8
ATOM      3  O   UNL     1       2.462   1.810  30.257  0.00  0.00    -0.126 OA
ATOM      4  O   UNL     1       3.608   2.823  28.683  0.00  0.00    -0.126 OA
ATOM      8  N   UNL     1       2.521   2.416  29.160  0.00  0.00    +0.056 N 
ENDBRANCH  31   8
ENDBRANCH  24  25
ENDBRANCH  17  21
ENDBRANCH  12  17
TORSDOF 10
ENDMDL
MODEL 6
REMARK VINA RESULT:       2.2      1.624      3.666
REMARK  Name = 38030943
REMARK  14 active torsions:
REMARK  status: ('A' for Active; 'I' for Inactive)
REMARK    1  A    between atoms: O_2  and  C_23
REMARK    2  A    between atoms: O_2  and  C_26
REMARK    3  A    between atoms: N_5  and  C_16
REMARK    4  A    between atoms: N_5  and  C_22
REMARK    5  A    between atoms: N_8  and  C_31
REMARK    6  A    between atoms: C_9  and  C_13
REMARK    7  A    between atoms: C_10  and  C_16
REMARK    8  A    between atoms: C_12  and  C_17
REMARK    9  A    between atoms: C_13  and  C_18
REMARK   10  A    between atoms: C_13  and  C_19
REMARK   11  A    between atoms: C_14  and  C_20
REMARK   12  A    between atoms: C_17  and  C_21
REMARK   13  A    between atoms: C_22  and  C_23
REMARK   14  A    between atoms: C_24  and  C_25
REMARK                            x       y       z     vdW  Elec       q    Type
REMARK                         _______ _______ _______ _____ _____    ______ ____
ROOT
ATOM      9  C   UNL     1      -1.960   2.926  25.058  0.00  0.00    +0.000 C 
ATOM     10  C   UNL     1      -3.062   4.013  25.006  0.00  0.00    +0.029 C 
ATOM     11  C   UNL     1      -1.303   2.761  23.679  0.00  0.00    +0.012 C 
ATOM     12  C   UNL     1      -2.322   2.374  22.590  0.00  0.00    +0.024 C 
ATOM     14  C   UNL     1      -3.566   3.238  22.650  0.00  0.00    -0.073 C 
ATOM     15  C   UNL     1      -3.873   3.974  23.732  0.00  0.00    -0.023 C 
ATOM     20  C   UNL     1      -4.426   3.272  21.417  0.00  0.00    +0.039 C 
ENDROOT
BRANCH   9  13
ATOM     13  C   UNL     1      -0.892   3.248  26.106  0.00  0.00    -0.013 C 
ATOM     18  C   UNL     1       0.031   2.050  26.311  0.00  0.00    +0.007 C 
ATOM     19  C   UNL     1      -0.095   4.480  25.692  0.00  0.00    +0.007 C 
ENDBRANCH   9  13
BRANCH  10  16
ATOM     16  C   UNL     1      -4.001   3.907  26.213  0.00  0.00    +0.088 C 
BRANCH  16   5
ATOM      5  N   UNL     1      -5.371   3.696  25.779  0.00  0.00    -0.313 NA
ATOM     32  H   UNL     1      -5.987   4.410  26.168  0.00  0.00    +0.122 HD
BRANCH   5  22
ATOM     22  C   UNL     1      -5.852   2.379  26.181  0.00  0.00    +0.109 C 
BRANCH  22  23
ATOM     23  C   UNL     1      -6.346   1.596  24.974  0.00  0.00    +0.174 C 
BRANCH  23   2
ATOM      2  O   UNL     1      -5.286   0.779  24.495  0.00  0.00    -0.382 OA
ATOM     26  C   UNL     1      -4.489   0.283  25.561  0.00  0.00    +0.194 C 
ENDBRANCH  23   2
ENDBRANCH  22  23
ENDBRANCH   5  22
ENDBRANCH  16   5
ENDBRANCH  10  16
BRANCH  12  17
ATOM     17  C   UNL     1      -2.683   0.886  22.676  0.00  0.00    +0.105 C 
BRANCH  17  21
ATOM      1  O   UNL     1      -0.292   0.473  22.944  0.00  0.00    -0.420 OA
ATOM      6  N   UNL     1      -1.601  -0.967  24.049  0.00  0.00    -0.112 NA
ATOM      7  N   UNL     1      -0.285  -1.316  24.287  0.00  0.00    -0.107 NA
ATOM     21  C   UNL     1      -1.558   0.082  23.261  0.00  0.00    +0.218 A 
ATOM     24  C   UNL     1       0.443  -0.449  23.623  0.00  0.00    +0.248 A 
BRANCH  24  25
ATOM     25  C   UNL     1       1.867  -0.326  23.505  0.00  0.00    +0.039 A 
ATOM     27  C   UNL     1       2.692  -1.395  23.856  0.00  0.00    +0.015 A 
ATOM     28  C   UNL     1       2.428   0.864  23.041  0.00  0.00    +0.015 A 
ATOM     29  C   UNL     1       4.077  -1.275  23.742  0.00  0.00    +0.033 A 
ATOM     30  C   UNL     1       3.813   0.984  22.927  0.00  0.00    +0.033 A 
ATOM     31  C   UNL     1       4.637  -0.085  23.277  0.00  0.00    +0.126 A 
BRANCH  31   8
ATOM      3  O   UNL     1       6.666   0.757  23.978  0.00  0.00    -0.126 OA
ATOM      4  O   UNL     1       6.635  -0.581  22.239  0.00  0.00    -0.126 OA
ATOM      8  N   UNL     1       6.046   0.037  23.159  0.00  0.00    +0.056 N 
ENDBRANCH  31   8
ENDBRANCH  24  25
ENDBRANCH  17  21
ENDBRANCH  12  17
TORSDOF 10
ENDMDL
MODEL 7
REMARK VINA RESULT:       2.3      1.876      4.068
REMARK  Name = 38030943
REMARK  14 active torsions:
REMARK  status: ('A' for Active; 'I' for Inactive)
REMARK    1  A    between atoms: O_2  and  C_23
REMARK    2  A    between atoms: O_2  and  C_26
REMARK    3  A    between atoms: N_5  and  C_16
REMARK    4  A    between atoms: N_5  and  C_22
REMARK    5  A    between atoms: N_8  and  C_31
REMARK    6  A    between atoms: C_9  and  C_13
REMARK    7  A    between atoms: C_10  and  C_16
REMARK    8  A    between atoms: C_12  and  C_17
REMARK    9  A    between atoms: C_13  and  C_18
REMARK   10  A    between atoms: C_13  and  C_19
REMARK   11  A    between atoms: C_14  and  C_20
REMARK   12  A    between atoms: C_17  and  C_21
REMARK   13  A    between atoms: C_22  and  C_23
REMARK   14  A    between atoms: C_24  and  C_25
REMARK                            x       y       z     vdW  Elec       q    Type
REMARK                         _______ _______ _______ _____ _____    ______ ____
ROOT
ATOM      9  C   UNL     1      -3.266   0.934  25.290  0.00  0.00    +0.000 C 
ATOM     10  C   UNL     1      -4.778   0.613  25.390  0.00  0.00    +0.029 C 
ATOM     11  C   UNL     1      -2.927   2.182  26.120  0.00  0.00    +0.012 C 
ATOM     12  C   UNL     1      -3.722   3.420  25.663  0.00  0.00    +0.024 C 
ATOM     14  C   UNL     1      -5.193   3.108  25.479  0.00  0.00    -0.073 C 
ATOM     15  C   UNL     1      -5.649   1.848  25.373  0.00  0.00    -0.023 C 
ATOM     20  C   UNL     1      -6.137   4.279  25.466  0.00  0.00    +0.039 C 
ENDROOT
BRANCH   9  13
ATOM     13  C   UNL     1      -2.402  -0.244  25.748  0.00  0.00    -0.013 C 
ATOM     18  C   UNL     1      -1.032   0.248  26.206  0.00  0.00    +0.007 C 
ATOM     19  C   UNL     1      -3.101  -1.015  26.863  0.00  0.00    +0.007 C 
ENDBRANCH   9  13
BRANCH  10  16
ATOM     16  C   UNL     1      -5.217  -0.338  24.271  0.00  0.00    +0.088 C 
BRANCH  16   5
ATOM      5  N   UNL     1      -4.082  -1.087  23.760  0.00  0.00    -0.313 NA
ATOM     32  H   UNL     1      -3.850  -0.790  22.813  0.00  0.00    +0.122 HD
BRANCH   5  22
ATOM     22  C   UNL     1      -4.356  -2.519  23.760  0.00  0.00    +0.109 C 
BRANCH  22  23
ATOM     23  C   UNL     1      -3.147  -3.297  24.256  0.00  0.00    +0.174 C 
BRANCH  23   2
ATOM      2  O   UNL     1      -1.968  -2.603  23.868  0.00  0.00    -0.382 OA
ATOM     26  C   UNL     1      -0.881  -2.899  24.735  0.00  0.00    +0.194 C 
ENDBRANCH  23   2
ENDBRANCH  22  23
ENDBRANCH   5  22
ENDBRANCH  16   5
ENDBRANCH  10  16
BRANCH  12  17
ATOM     17  C   UNL     1      -3.125   4.019  24.384  0.00  0.00    +0.105 C 
BRANCH  17  21
ATOM      1  O   UNL     1      -1.159   2.654  23.901  0.00  0.00    -0.420 OA
ATOM      6  N   UNL     1      -2.886   2.295  22.524  0.00  0.00    -0.112 NA
ATOM      7  N   UNL     1      -1.851   1.463  22.139  0.00  0.00    -0.107 NA
ATOM     21  C   UNL     1      -2.438   2.971  23.556  0.00  0.00    +0.218 A 
ATOM     24  C   UNL     1      -0.865   1.707  22.970  0.00  0.00    +0.248 A 
BRANCH  24  25
ATOM     25  C   UNL     1       0.449   1.139  23.046  0.00  0.00    +0.039 A 
ATOM     27  C   UNL     1       1.537   1.939  23.395  0.00  0.00    +0.015 A 
ATOM     28  C   UNL     1       0.641  -0.215  22.770  0.00  0.00    +0.015 A 
ATOM     29  C   UNL     1       2.816   1.387  23.470  0.00  0.00    +0.033 A 
ATOM     30  C   UNL     1       1.920  -0.768  22.844  0.00  0.00    +0.033 A 
ATOM     31  C   UNL     1       3.006   0.033  23.194  0.00  0.00    +0.126 A 
BRANCH  31   8
ATOM      3  O   UNL     1       4.453  -1.655  23.808  0.00  0.00    -0.126 OA
ATOM      4  O   UNL     1       5.277   0.111  22.799  0.00  0.00    -0.126 OA
ATOM      8  N   UNL     1       4.307  -0.530  23.271  0.00  0.00    +0.056 N 
ENDBRANCH  31   8
ENDBRANCH  24  25
ENDBRANCH  17  21
ENDBRANCH  12  17
TORSDOF 10
ENDMDL
MODEL 8
REMARK VINA RESULT:       2.9      2.172      5.687
REMARK  Name = 38030943
REMARK  14 active torsions:
REMARK  status: ('A' for Active; 'I' for Inactive)
REMARK    1  A    between atoms: O_2  and  C_23
REMARK    2  A    between atoms: O_2  and  C_26
REMARK    3  A    between atoms: N_5  and  C_16
REMARK    4  A    between atoms: N_5  and  C_22
REMARK    5  A    between atoms: N_8  and  C_31
REMARK    6  A    between atoms: C_9  and  C_13
REMARK    7  A    between atoms: C_10  and  C_16
REMARK    8  A    between atoms: C_12  and  C_17
REMARK    9  A    between atoms: C_13  and  C_18
REMARK   10  A    between atoms: C_13  and  C_19
REMARK   11  A    between atoms: C_14  and  C_20
REMARK   12  A    between atoms: C_17  and  C_21
REMARK   13  A    between atoms: C_22  and  C_23
REMARK   14  A    between atoms: C_24  and  C_25
REMARK                            x       y       z     vdW  Elec       q    Type
REMARK                         _______ _______ _______ _____ _____    ______ ____
ROOT
ATOM      9  C   UNL     1      -2.161   2.573  23.923  0.00  0.00    +0.000 C 
ATOM     10  C   UNL     1      -0.684   3.035  23.862  0.00  0.00    +0.029 C 
ATOM     11  C   UNL     1      -3.104   3.747  23.617  0.00  0.00    +0.012 C 
ATOM     12  C   UNL     1      -2.915   4.918  24.602  0.00  0.00    +0.024 C 
ATOM     14  C   UNL     1      -1.452   5.257  24.800  0.00  0.00    -0.073 C 
ATOM     15  C   UNL     1      -0.469   4.409  24.451  0.00  0.00    -0.023 C 
ATOM     20  C   UNL     1      -1.143   6.615  25.367  0.00  0.00    +0.039 C 
ENDROOT
BRANCH   9  13
ATOM     13  C   UNL     1      -2.439   1.420  22.955  0.00  0.00    -0.013 C 
ATOM     18  C   UNL     1      -2.413   1.918  21.513  0.00  0.00    +0.007 C 
ATOM     19  C   UNL     1      -1.424   0.299  23.158  0.00  0.00    +0.007 C 
ENDBRANCH   9  13
BRANCH  10  16
ATOM     16  C   UNL     1       0.238   2.029  24.560  0.00  0.00    +0.088 C 
BRANCH  16   5
ATOM      5  N   UNL     1       1.478   1.872  23.820  0.00  0.00    -0.313 NA
ATOM     32  H   UNL     1       1.482   2.465  22.992  0.00  0.00    +0.122 HD
BRANCH   5  22
ATOM     22  C   UNL     1       1.676   0.485  23.416  0.00  0.00    +0.109 C 
BRANCH  22  23
ATOM     23  C   UNL     1       2.876   0.360  22.490  0.00  0.00    +0.174 C 
BRANCH  23   2
ATOM      2  O   UNL     1       3.956   1.102  23.041  0.00  0.00    -0.382 OA
ATOM     26  C   UNL     1       5.064   0.264  23.341  0.00  0.00    +0.194 C 
ENDBRANCH  23   2
ENDBRANCH  22  23
ENDBRANCH   5  22
ENDBRANCH  16   5
ENDBRANCH  10  16
BRANCH  12  17
ATOM     17  C   UNL     1      -3.598   4.626  25.943  0.00  0.00    +0.105 C 
BRANCH  17  21
ATOM      1  O   UNL     1      -3.729   2.235  25.468  0.00  0.00    -0.420 OA
ATOM      6  N   UNL     1      -5.646   3.132  26.195  0.00  0.00    -0.112 NA
ATOM      7  N   UNL     1      -5.862   1.786  25.967  0.00  0.00    -0.107 NA
ATOM     21  C   UNL     1      -4.387   3.350  25.891  0.00  0.00    +0.218 A 
ATOM     24  C   UNL     1      -4.717   1.303  25.545  0.00  0.00    +0.248 A 
BRANCH  24  25
ATOM     25  C   UNL     1      -4.355  -0.029  25.159  0.00  0.00    +0.039 A 
ATOM     27  C   UNL     1      -3.502  -0.782  25.966  0.00  0.00    +0.015 A 
ATOM     28  C   UNL     1      -4.854  -0.573  23.976  0.00  0.00    +0.015 A 
ATOM     29  C   UNL     1      -3.149  -2.079  25.591  0.00  0.00    +0.033 A 
ATOM     30  C   UNL     1      -4.501  -1.869  23.599  0.00  0.00    +0.033 A 
ATOM     31  C   UNL     1      -3.649  -2.621  24.407  0.00  0.00    +0.126 A 
BRANCH  31   8
ATOM      3  O   UNL     1      -2.192  -4.133  23.453  0.00  0.00    -0.126 OA
ATOM      4  O   UNL     1      -4.085  -4.882  24.272  0.00  0.00    -0.126 OA
ATOM      8  N   UNL     1      -3.292  -3.942  24.026  0.00  0.00    +0.056 N 
ENDBRANCH  31   8
ENDBRANCH  24  25
ENDBRANCH  17  21
ENDBRANCH  12  17
TORSDOF 10
ENDMDL
MODEL 9
REMARK VINA RESULT:       3.0      1.916      4.250
REMARK  Name = 38030943
REMARK  14 active torsions:
REMARK  status: ('A' for Active; 'I' for Inactive)
REMARK    1  A    between atoms: O_2  and  C_23
REMARK    2  A    between atoms: O_2  and  C_26
REMARK    3  A    between atoms: N_5  and  C_16
REMARK    4  A    between atoms: N_5  and  C_22
REMARK    5  A    between atoms: N_8  and  C_31
REMARK    6  A    between atoms: C_9  and  C_13
REMARK    7  A    between atoms: C_10  and  C_16
REMARK    8  A    between atoms: C_12  and  C_17
REMARK    9  A    between atoms: C_13  and  C_18
REMARK   10  A    between atoms: C_13  and  C_19
REMARK   11  A    between atoms: C_14  and  C_20
REMARK   12  A    between atoms: C_17  and  C_21
REMARK   13  A    between atoms: C_22  and  C_23
REMARK   14  A    between atoms: C_24  and  C_25
REMARK                            x       y       z     vdW  Elec       q    Type
REMARK                         _______ _______ _______ _____ _____    ______ ____
ROOT
ATOM      9  C   UNL     1      -4.294   2.457  25.201  0.00  0.00    +0.000 C 
ATOM     10  C   UNL     1      -4.692   1.230  24.343  0.00  0.00    +0.029 C 
ATOM     11  C   UNL     1      -3.910   3.640  24.299  0.00  0.00    +0.012 C 
ATOM     12  C   UNL     1      -2.738   3.299  23.358  0.00  0.00    +0.024 C 
ATOM     14  C   UNL     1      -2.936   1.961  22.674  0.00  0.00    -0.073 C 
ATOM     15  C   UNL     1      -3.822   1.055  23.120  0.00  0.00    -0.023 C 
ATOM     20  C   UNL     1      -2.121   1.707  21.435  0.00  0.00    +0.039 C 
ENDROOT
BRANCH   9  13
ATOM     13  C   UNL     1      -5.418   2.875  26.153  0.00  0.00    -0.013 C 
ATOM     18  C   UNL     1      -5.920   4.272  25.802  0.00  0.00    +0.007 C 
ATOM     19  C   UNL     1      -6.557   1.862  26.108  0.00  0.00    +0.007 C 
ENDBRANCH   9  13
BRANCH  10  16
ATOM     16  C   UNL     1      -4.668  -0.057  25.176  0.00  0.00    +0.088 C 
BRANCH  16   5
ATOM      5  N   UNL     1      -3.384  -0.218  25.835  0.00  0.00    -0.313 NA
ATOM     32  H   UNL     1      -2.667   0.337  25.369  0.00  0.00    +0.122 HD
BRANCH   5  22
ATOM     22  C   UNL     1      -2.973  -1.616  25.852  0.00  0.00    +0.109 C 
BRANCH  22  23
ATOM     23  C   UNL     1      -3.778  -2.425  24.846  0.00  0.00    +0.174 C 
BRANCH  23   2
ATOM      2  O   UNL     1      -2.891  -2.948  23.866  0.00  0.00    -0.382 OA
ATOM     26  C   UNL     1      -1.539  -2.885  24.301  0.00  0.00    +0.194 C 
ENDBRANCH  23   2
ENDBRANCH  22  23
ENDBRANCH   5  22
ENDBRANCH  16   5
ENDBRANCH  10  16
BRANCH  12  17
ATOM     17  C   UNL     1      -1.400   3.341  24.105  0.00  0.00    +0.105 C 
BRANCH  17  21
ATOM      1  O   UNL     1       0.683   2.107  23.793  0.00  0.00    -0.420 OA
ATOM      6  N   UNL     1      -1.124   0.809  24.037  0.00  0.00    -0.112 NA
ATOM      7  N   UNL     1      -0.026  -0.014  23.870  0.00  0.00    -0.107 NA
ATOM     21  C   UNL     1      -0.664   2.037  23.985  0.00  0.00    +0.218 A 
ATOM     24  C   UNL     1       1.006   0.786  23.732  0.00  0.00    +0.248 A 
BRANCH  24  25
ATOM     25  C   UNL     1       2.394   0.489  23.531  0.00  0.00    +0.039 A 
ATOM     27  C   UNL     1       3.254   1.470  23.038  0.00  0.00    +0.015 A 
ATOM     28  C   UNL     1       2.885  -0.783  23.827  0.00  0.00    +0.015 A 
ATOM     29  C   UNL     1       4.605   1.180  22.842  0.00  0.00    +0.033 A 
ATOM     30  C   UNL     1       4.235  -1.073  23.631  0.00  0.00    +0.033 A 
ATOM     31  C   UNL     1       5.094  -0.092  23.139  0.00  0.00    +0.126 A 
BRANCH  31   8
ATOM      3  O   UNL     1       7.293  -0.074  23.835  0.00  0.00    -0.126 OA
ATOM      4  O   UNL     1       6.824  -0.952  21.879  0.00  0.00    -0.126 OA
ATOM      8  N   UNL     1       6.469  -0.386  22.941  0.00  0.00    +0.056 N 
ENDBRANCH  31   8
ENDBRANCH  24  25
ENDBRANCH  17  21
ENDBRANCH  12  17
TORSDOF 10
ENDMDL
