MODEL 1
REMARK VINA RESULT:      -3.5      0.000      0.000
REMARK  Name = 11913359
REMARK  5 active torsions:
REMARK  status: ('A' for Active; 'I' for Inactive)
REMARK    1  A    between atoms: N_5  and  C_12
REMARK    2  A    between atoms: N_6  and  C_13
REMARK    3  A    between atoms: N_7  and  C_18
REMARK    4  A    between atoms: C_18  and  C_22
REMARK    5  A    between atoms: C_19  and  C_23
REMARK                            x       y       z     vdW  Elec       q    Type
REMARK                         _______ _______ _______ _____ _____    ______ ____
ROOT
ATOM      2  O   UNL     1      -2.326   3.461  26.860  0.00  0.00    -0.370 OA
ATOM      3  O   UNL     1      -1.050   4.163  24.101  0.00  0.00    -0.370 OA
ATOM     10  C   UNL     1      -2.278   3.522  24.483  0.00  0.00    +0.171 C 
ATOM     11  C   UNL     1      -1.983   2.677  25.707  0.00  0.00    +0.171 C 
ATOM     12  C   UNL     1      -3.275   4.545  24.972  0.00  0.00    +0.130 C 
ATOM     13  C   UNL     1      -0.489   2.453  25.648  0.00  0.00    +0.131 C 
ATOM     14  C   UNL     1      -2.897   4.707  26.432  0.00  0.00    +0.185 C 
ATOM     15  C   UNL     1       0.003   3.720  24.971  0.00  0.00    +0.185 C 
ENDROOT
BRANCH  12   5
ATOM      5  N   UNL     1      -4.619   4.022  24.858  0.00  0.00    -0.306 N 
ATOM      8  N   UNL     1      -3.879   1.797  24.974  0.00  0.00    -0.214 NA
ATOM      9  N   UNL     1      -6.222   2.313  24.748  0.00  0.00    -0.223 NA
ATOM     16  C   UNL     1      -4.916   2.670  24.860  0.00  0.00    +0.216 A 
ATOM     19  C   UNL     1      -4.205   0.488  24.973  0.00  0.00    +0.076 A 
ATOM     20  C   UNL     1      -6.477   0.987  24.753  0.00  0.00    +0.116 A 
ATOM     21  C   UNL     1      -5.499   0.020  24.865  0.00  0.00    +0.048 A 
ATOM     34  H   UNL     1      -5.403   4.664  24.825  0.00  0.00    +0.149 HD
BRANCH  19  23
ATOM      1  F   UNL     1      -1.614  -3.242  23.332  0.00  0.00    -0.205 F 
ATOM     23  C   UNL     1      -3.091  -0.421  25.097  0.00  0.00    +0.003 A 
ATOM     26  C   UNL     1      -2.885  -1.413  24.136  0.00  0.00    +0.048 A 
ATOM     27  C   UNL     1      -2.215  -0.312  26.179  0.00  0.00    +0.010 A 
ATOM     30  C   UNL     1      -1.809  -2.291  24.255  0.00  0.00    +0.124 A 
ATOM     31  C   UNL     1      -1.139  -1.191  26.299  0.00  0.00    +0.003 A 
ATOM     33  C   UNL     1      -0.935  -2.180  25.337  0.00  0.00    +0.038 A 
ENDBRANCH  19  23
ENDBRANCH  12   5
BRANCH  13   6
ATOM      4  O   UNL     1       1.631   2.188  23.708  0.00  0.00    -0.253 OA
ATOM      6  N   UNL     1      -0.166   1.284  24.868  0.00  0.00    -0.292 N 
ATOM      7  N   UNL     1       0.969  -0.005  23.336  0.00  0.00    -0.295 N 
ATOM     17  C   UNL     1       0.880   1.243  23.949  0.00  0.00    +0.300 C 
ATOM     35  H   UNL     1      -0.686   0.428  25.041  0.00  0.00    +0.151 HD
ATOM     36  H   UNL     1       0.318  -0.733  23.615  0.00  0.00    +0.151 HD
BRANCH   7  18
ATOM     18  C   UNL     1       1.966  -0.319  22.341  0.00  0.00    +0.141 C 
BRANCH  18  22
ATOM     22  C   UNL     1       3.352  -0.333  22.920  0.00  0.00    -0.030 A 
ATOM     24  C   UNL     1       3.808  -1.465  23.583  0.00  0.00    +0.005 A 
ATOM     25  C   UNL     1       4.164   0.787  22.787  0.00  0.00    +0.005 A 
ATOM     28  C   UNL     1       5.096  -1.479  24.121  0.00  0.00    +0.000 A 
ATOM     29  C   UNL     1       5.451   0.774  23.325  0.00  0.00    +0.000 A 
ATOM     32  C   UNL     1       5.917  -0.359  23.993  0.00  0.00    +0.000 A 
ENDBRANCH  18  22
ENDBRANCH   7  18
ENDBRANCH  13   6
TORSDOF 5
ENDMDL
MODEL 2
REMARK VINA RESULT:      -2.7      2.210      4.132
REMARK  Name = 11913359
REMARK  5 active torsions:
REMARK  status: ('A' for Active; 'I' for Inactive)
REMARK    1  A    between atoms: N_5  and  C_12
REMARK    2  A    between atoms: N_6  and  C_13
REMARK    3  A    between atoms: N_7  and  C_18
REMARK    4  A    between atoms: C_18  and  C_22
REMARK    5  A    between atoms: C_19  and  C_23
REMARK                            x       y       z     vdW  Elec       q    Type
REMARK                         _______ _______ _______ _____ _____    ______ ____
ROOT
ATOM      2  O   UNL     1      -3.595  -1.588  23.361  0.00  0.00    -0.370 OA
ATOM      3  O   UNL     1      -2.052  -1.313  26.059  0.00  0.00    -0.370 OA
ATOM     10  C   UNL     1      -3.007  -0.479  25.382  0.00  0.00    +0.171 C 
ATOM     11  C   UNL     1      -2.720  -0.582  23.896  0.00  0.00    +0.171 C 
ATOM     12  C   UNL     1      -4.398  -1.046  25.530  0.00  0.00    +0.130 C 
ATOM     13  C   UNL     1      -1.283  -1.046  23.830  0.00  0.00    +0.131 C 
ATOM     14  C   UNL     1      -4.468  -2.057  24.400  0.00  0.00    +0.185 C 
ATOM     15  C   UNL     1      -1.151  -1.876  25.094  0.00  0.00    +0.185 C 
ENDROOT
BRANCH  12   5
ATOM      5  N   UNL     1      -5.382  -0.005  25.330  0.00  0.00    -0.306 N 
ATOM      8  N   UNL     1      -3.754   1.685  25.334  0.00  0.00    -0.214 NA
ATOM      9  N   UNL     1      -6.087   2.215  25.044  0.00  0.00    -0.223 NA
ATOM     16  C   UNL     1      -5.065   1.339  25.233  0.00  0.00    +0.216 A 
ATOM     19  C   UNL     1      -3.481   3.003  25.234  0.00  0.00    +0.076 A 
ATOM     20  C   UNL     1      -5.742   3.517  24.953  0.00  0.00    +0.116 A 
ATOM     21  C   UNL     1      -4.443   3.973  25.042  0.00  0.00    +0.048 A 
ATOM     34  H   UNL     1      -6.356  -0.256  25.202  0.00  0.00    +0.149 HD
BRANCH  19  23
ATOM      1  F   UNL     1       0.930   2.192  27.025  0.00  0.00    -0.205 F 
ATOM     23  C   UNL     1      -2.083   3.349  25.342  0.00  0.00    +0.003 A 
ATOM     26  C   UNL     1      -1.233   2.589  26.148  0.00  0.00    +0.048 A 
ATOM     27  C   UNL     1      -1.577   4.446  24.642  0.00  0.00    +0.010 A 
ATOM     30  C   UNL     1       0.117   2.923  26.252  0.00  0.00    +0.124 A 
ATOM     31  C   UNL     1      -0.228   4.780  24.746  0.00  0.00    +0.003 A 
ATOM     33  C   UNL     1       0.620   4.019  25.551  0.00  0.00    +0.038 A 
ENDBRANCH  19  23
ENDBRANCH  12   5
BRANCH  13   6
ATOM      4  O   UNL     1       1.241  -0.843  22.445  0.00  0.00    -0.253 OA
ATOM      6  N   UNL     1      -0.372   0.073  23.842  0.00  0.00    -0.292 N 
ATOM      7  N   UNL     1       1.514   1.286  23.326  0.00  0.00    -0.295 N 
ATOM     17  C   UNL     1       0.832   0.087  23.140  0.00  0.00    +0.300 C 
ATOM     35  H   UNL     1      -0.649   0.918  24.334  0.00  0.00    +0.151 HD
ATOM     36  H   UNL     1       1.087   2.006  23.902  0.00  0.00    +0.151 HD
BRANCH   7  18
ATOM     18  C   UNL     1       2.791   1.564  22.712  0.00  0.00    +0.141 C 
BRANCH  18  22
ATOM     22  C   UNL     1       3.865   0.641  23.210  0.00  0.00    -0.030 A 
ATOM     24  C   UNL     1       5.130   1.144  23.488  0.00  0.00    +0.005 A 
ATOM     25  C   UNL     1       3.584  -0.709  23.387  0.00  0.00    +0.005 A 
ATOM     28  C   UNL     1       6.129   0.286  23.950  0.00  0.00    +0.000 A 
ATOM     29  C   UNL     1       4.583  -1.567  23.849  0.00  0.00    +0.000 A 
ATOM     32  C   UNL     1       5.855  -1.070  24.130  0.00  0.00    +0.000 A 
ENDBRANCH  18  22
ENDBRANCH   7  18
ENDBRANCH  13   6
TORSDOF 5
ENDMDL
