MODEL 1
REMARK VINA RESULT:       5.1      0.000      0.000
REMARK  Name = 11882965
REMARK  12 active torsions:
REMARK  status: ('A' for Active; 'I' for Inactive)
REMARK    1  A    between atoms: O_2  and  C_15
REMARK    2  A    between atoms: O_3  and  C_20
REMARK    3  A    between atoms: O_6  and  C_34
REMARK    4  A    between atoms: O_6  and  C_35
REMARK    5  A    between atoms: N_8  and  C_28
REMARK    6  A    between atoms: C_10  and  C_18
REMARK    7  A    between atoms: C_12  and  C_20
REMARK    8  A    between atoms: C_12  and  C_21
REMARK    9  A    between atoms: C_13  and  C_23
REMARK   10  A    between atoms: C_23  and  C_24
REMARK   11  A    between atoms: C_26  and  C_27
REMARK   12  A    between atoms: C_28  and  C_34
REMARK                            x       y       z     vdW  Elec       q    Type
REMARK                         _______ _______ _______ _____ _____    ______ ____
ROOT
ATOM      1  S   UNL     1       0.355   1.983  25.562  0.00  0.00    -0.057 S 
ATOM      5  O   UNL     1       1.560  -0.386  21.725  0.00  0.00    -0.275 OA
ATOM      7  N   UNL     1      -0.525   0.986  23.343  0.00  0.00    -0.229 NA
ATOM      9  N   UNL     1       1.819   0.687  23.815  0.00  0.00    -0.264 N 
ATOM     10  C   UNL     1      -4.081   1.967  24.463  0.00  0.00    -0.019 C 
ATOM     11  C   UNL     1      -3.560   3.229  25.283  0.00  0.00    +0.011 C 
ATOM     12  C   UNL     1      -4.629   4.028  26.124  0.00  0.00    +0.021 C 
ATOM     13  C   UNL     1      -2.972   1.594  23.375  0.00  0.00    +0.054 C 
ATOM     14  C   UNL     1      -5.390   2.341  23.720  0.00  0.00    +0.010 C 
ATOM     15  C   UNL     1      -5.889   4.277  25.248  0.00  0.00    +0.123 C 
ATOM     16  C   UNL     1      -2.262   2.895  26.074  0.00  0.00    +0.049 C 
ATOM     17  C   UNL     1      -6.434   3.006  24.605  0.00  0.00    +0.032 C 
ATOM     18  C   UNL     1      -4.355   0.736  25.361  0.00  0.00    +0.012 C 
ATOM     19  C   UNL     1      -1.596   1.577  23.988  0.00  0.00    +0.058 A 
ATOM     21  C   UNL     1      -4.043   5.418  26.498  0.00  0.00    +0.016 C 
ATOM     22  C   UNL     1      -1.295   2.181  25.190  0.00  0.00    +0.015 A 
ATOM     25  C   UNL     1       0.552   1.131  24.084  0.00  0.00    +0.165 A 
ATOM     26  C   UNL     1       2.240  -0.028  22.681  0.00  0.00    +0.222 C 
ATOM     39  H   UNL     1       2.510   0.916  24.526  0.00  0.00    +0.157 HD
ENDROOT
BRANCH  26  27
ATOM     27  C   UNL     1       3.705  -0.343  22.735  0.00  0.00    +0.075 C 
ATOM     29  C   UNL     1       4.494   0.909  23.123  0.00  0.00    +0.013 C 
ATOM     30  C   UNL     1       3.956  -1.490  23.716  0.00  0.00    +0.013 C 
ATOM     31  C   UNL     1       5.983   0.611  23.282  0.00  0.00    +0.001 C 
ATOM     32  C   UNL     1       5.446  -1.782  23.873  0.00  0.00    +0.001 C 
ATOM     33  C   UNL     1       6.227  -0.531  24.263  0.00  0.00    +0.000 C 
ENDBRANCH  26  27
BRANCH  15   2
ATOM      2  O   UNL     1      -6.925   4.884  26.017  0.00  0.00    -0.391 OA
ATOM     36  H   UNL     1      -7.739   4.369  25.886  0.00  0.00    +0.210 HD
ENDBRANCH  15   2
BRANCH  12  20
ATOM     20  C   UNL     1      -5.014   3.366  27.466  0.00  0.00    +0.165 C 
BRANCH  20   3
ATOM      3  O   UNL     1      -6.164   2.581  27.246  0.00  0.00    -0.394 OA
ATOM     37  H   UNL     1      -6.735   2.659  28.029  0.00  0.00    +0.209 HD
ENDBRANCH  20   3
ENDBRANCH  12  20
BRANCH  13  23
ATOM     23  C   UNL     1      -3.256   0.305  22.591  0.00  0.00    +0.106 C 
BRANCH  23  24
ATOM      4  O   UNL     1      -4.401  -1.357  23.926  0.00  0.00    -0.276 OA
ATOM      8  N   UNL     1      -2.083  -1.406  23.776  0.00  0.00    -0.313 N 
ATOM     24  C   UNL     1      -3.344  -0.900  23.499  0.00  0.00    +0.214 C 
ATOM     38  H   UNL     1      -1.266  -0.996  23.335  0.00  0.00    +0.149 HD
BRANCH   8  28
ATOM     28  C   UNL     1      -1.862  -2.558  24.622  0.00  0.00    +0.132 C 
BRANCH  28  34
ATOM     34  C   UNL     1      -0.548  -2.453  25.374  0.00  0.00    +0.178 C 
BRANCH  34   6
ATOM      6  O   UNL     1      -0.526  -1.243  26.121  0.00  0.00    -0.381 OA
ATOM     35  C   UNL     1      -1.752  -1.032  26.808  0.00  0.00    +0.194 C 
ENDBRANCH  34   6
ENDBRANCH  28  34
ENDBRANCH   8  28
ENDBRANCH  23  24
ENDBRANCH  13  23
TORSDOF 9
ENDMDL
