MODEL 1
REMARK VINA RESULT:      -0.5      0.000      0.000
REMARK  Name = 26742987
REMARK  9 active torsions:
REMARK  status: ('A' for Active; 'I' for Inactive)
REMARK    1  A    between atoms: N_5  and  C_22
REMARK    2  A    between atoms: C_7  and  C_11
REMARK    3  A    between atoms: C_8  and  C_13
REMARK    4  A    between atoms: C_11  and  C_14
REMARK    5  A    between atoms: C_13  and  C_15
REMARK    6  A    between atoms: C_21  and  C_23
REMARK    7  A    between atoms: C_23  and  C_26
REMARK    8  A    between atoms: C_26  and  C_27
REMARK    9  A    between atoms: C_27  and  C_31
REMARK                            x       y       z     vdW  Elec       q    Type
REMARK                         _______ _______ _______ _____ _____    ______ ____
ROOT
ATOM      3  N   UNL     1      -6.657   2.991  25.570  0.00  0.00    -0.316 NA
ATOM      7  C   UNL     1      -3.951   1.886  25.174  0.00  0.00    +0.004 C 
ATOM      8  C   UNL     1      -4.209   3.387  25.443  0.00  0.00    +0.012 C 
ATOM      9  C   UNL     1      -5.121   1.065  25.742  0.00  0.00    +0.019 C 
ATOM     10  C   UNL     1      -5.608   3.815  24.970  0.00  0.00    +0.085 C 
ATOM     12  C   UNL     1      -6.479   1.574  25.261  0.00  0.00    +0.081 C 
ATOM     32  H   UNL     1      -7.567   3.299  25.226  0.00  0.00    +0.122 HD
ENDROOT
BRANCH   7  11
ATOM     11  C   UNL     1      -3.713   1.547  23.697  0.00  0.00    +0.100 C 
BRANCH  11  14
ATOM      1  O   UNL     1      -3.772  -0.815  23.462  0.00  0.00    -0.276 OA
ATOM      4  N   UNL     1      -1.671   0.169  23.601  0.00  0.00    -0.298 N 
ATOM      5  N   UNL     1       1.216   0.027  23.429  0.00  0.00    -0.327 N 
ATOM     14  C   UNL     1      -3.066   0.191  23.574  0.00  0.00    +0.216 C 
ATOM     16  C   UNL     1      -0.969  -1.108  23.493  0.00  0.00    +0.126 C 
ATOM     17  C   UNL     1      -0.833   1.364  23.723  0.00  0.00    +0.126 C 
ATOM     18  C   UNL     1       0.366  -0.966  22.763  0.00  0.00    +0.124 C 
ATOM     19  C   UNL     1       0.568   1.054  24.249  0.00  0.00    +0.124 C 
BRANCH   5  22
ATOM     22  C   UNL     1       2.602  -0.031  23.311  0.00  0.00    +0.030 A 
ATOM     24  C   UNL     1       3.291  -1.167  23.736  0.00  0.00    +0.023 A 
ATOM     25  C   UNL     1       3.301   1.046  22.767  0.00  0.00    +0.023 A 
ATOM     28  C   UNL     1       4.680  -1.226  23.618  0.00  0.00    +0.002 A 
ATOM     29  C   UNL     1       4.689   0.988  22.648  0.00  0.00    +0.002 A 
ATOM     30  C   UNL     1       5.379  -0.149  23.074  0.00  0.00    +0.000 A 
ENDBRANCH   5  22
ENDBRANCH  11  14
ENDBRANCH   7  11
BRANCH   8  13
ATOM     13  C   UNL     1      -3.137   4.296  24.843  0.00  0.00    +0.064 C 
BRANCH  13  15
ATOM      2  O   UNL     1       0.373   4.063  25.610  0.00  0.00    -0.359 OA
ATOM      6  N   UNL     1      -0.697   4.585  24.893  0.00  0.00    -0.083 NA
ATOM     15  C   UNL     1      -1.776   3.972  25.389  0.00  0.00    +0.084 A 
ATOM     20  C   UNL     1      -1.452   3.062  26.410  0.00  0.00    +0.071 A 
ATOM     21  C   UNL     1      -0.089   3.158  26.509  0.00  0.00    +0.138 A 
BRANCH  21  23
ATOM     23  C   UNL     1       0.916   2.504  27.356  0.00  0.00    +0.077 C 
BRANCH  23  26
ATOM     26  C   UNL     1       0.529   2.484  28.852  0.00  0.00    +0.007 C 
BRANCH  26  27
ATOM     27  C   UNL     1       1.747   2.459  29.775  0.00  0.00    -0.003 C 
ATOM     31  C   UNL     1       2.996   2.954  29.063  0.00  0.00    +0.004 C 
ENDBRANCH  26  27
ENDBRANCH  23  26
ENDBRANCH  21  23
ENDBRANCH  13  15
ENDBRANCH   8  13
TORSDOF 8
ENDMDL
MODEL 2
REMARK VINA RESULT:       0.0      2.405      4.227
REMARK  Name = 26742987
REMARK  9 active torsions:
REMARK  status: ('A' for Active; 'I' for Inactive)
REMARK    1  A    between atoms: N_5  and  C_22
REMARK    2  A    between atoms: C_7  and  C_11
REMARK    3  A    between atoms: C_8  and  C_13
REMARK    4  A    between atoms: C_11  and  C_14
REMARK    5  A    between atoms: C_13  and  C_15
REMARK    6  A    between atoms: C_21  and  C_23
REMARK    7  A    between atoms: C_23  and  C_26
REMARK    8  A    between atoms: C_26  and  C_27
REMARK    9  A    between atoms: C_27  and  C_31
REMARK                            x       y       z     vdW  Elec       q    Type
REMARK                         _______ _______ _______ _____ _____    ______ ____
ROOT
ATOM      3  N   UNL     1      -3.715  -3.226  24.352  0.00  0.00    -0.316 NA
ATOM      7  C   UNL     1      -3.107  -0.350  24.596  0.00  0.00    +0.004 C 
ATOM      8  C   UNL     1      -4.543  -0.913  24.712  0.00  0.00    +0.012 C 
ATOM      9  C   UNL     1      -2.103  -1.457  24.959  0.00  0.00    +0.019 C 
ATOM     10  C   UNL     1      -4.700  -2.230  23.932  0.00  0.00    +0.085 C 
ATOM     12  C   UNL     1      -2.346  -2.746  24.175  0.00  0.00    +0.081 C 
ATOM     32  H   UNL     1      -3.845  -4.080  23.808  0.00  0.00    +0.122 HD
ENDROOT
BRANCH   7  11
ATOM     11  C   UNL     1      -2.781   0.254  23.225  0.00  0.00    +0.100 C 
BRANCH  11  14
ATOM      1  O   UNL     1      -2.149   2.519  23.552  0.00  0.00    -0.276 OA
ATOM      4  N   UNL     1      -0.426   0.981  23.293  0.00  0.00    -0.298 N 
ATOM      5  N   UNL     1       2.382   0.279  23.356  0.00  0.00    -0.327 N 
ATOM     14  C   UNL     1      -1.766   1.360  23.374  0.00  0.00    +0.216 C 
ATOM     16  C   UNL     1       0.618   1.996  23.422  0.00  0.00    +0.126 C 
ATOM     17  C   UNL     1       0.028  -0.397  23.092  0.00  0.00    +0.126 C 
ATOM     18  C   UNL     1       1.874   1.441  24.092  0.00  0.00    +0.124 C 
ATOM     19  C   UNL     1       1.444  -0.477  22.523  0.00  0.00    +0.124 C 
BRANCH   5  22
ATOM     22  C   UNL     1       3.729  -0.069  23.421  0.00  0.00    +0.030 A 
ATOM     24  C   UNL     1       4.708   0.865  23.083  0.00  0.00    +0.023 A 
ATOM     25  C   UNL     1       4.099  -1.351  23.825  0.00  0.00    +0.023 A 
ATOM     28  C   UNL     1       6.057   0.517  23.148  0.00  0.00    +0.002 A 
ATOM     29  C   UNL     1       5.447  -1.700  23.891  0.00  0.00    +0.002 A 
ATOM     30  C   UNL     1       6.427  -0.766  23.553  0.00  0.00    +0.000 A 
ENDBRANCH   5  22
ENDBRANCH  11  14
ENDBRANCH   7  11
BRANCH   8  13
ATOM     13  C   UNL     1      -5.616   0.091  24.292  0.00  0.00    +0.064 C 
BRANCH  13  15
ATOM      2  O   UNL     1      -5.734   2.891  26.552  0.00  0.00    -0.359 OA
ATOM      6  N   UNL     1      -6.103   1.609  26.161  0.00  0.00    -0.083 NA
ATOM     15  C   UNL     1      -5.454   1.399  25.012  0.00  0.00    +0.084 A 
ATOM     20  C   UNL     1      -4.668   2.500  24.633  0.00  0.00    +0.071 A 
ATOM     21  C   UNL     1      -4.880   3.411  25.634  0.00  0.00    +0.138 A 
BRANCH  21  23
ATOM     23  C   UNL     1      -4.388   4.770  25.892  0.00  0.00    +0.077 C 
BRANCH  23  26
ATOM     26  C   UNL     1      -2.870   4.821  26.175  0.00  0.00    +0.007 C 
BRANCH  26  27
ATOM     27  C   UNL     1      -2.088   5.523  25.065  0.00  0.00    -0.003 C 
ATOM     31  C   UNL     1      -0.655   5.022  24.989  0.00  0.00    +0.004 C 
ENDBRANCH  26  27
ENDBRANCH  23  26
ENDBRANCH  21  23
ENDBRANCH  13  15
ENDBRANCH   8  13
TORSDOF 8
ENDMDL
MODEL 3
REMARK VINA RESULT:       2.5      2.301      5.196
REMARK  Name = 26742987
REMARK  9 active torsions:
REMARK  status: ('A' for Active; 'I' for Inactive)
REMARK    1  A    between atoms: N_5  and  C_22
REMARK    2  A    between atoms: C_7  and  C_11
REMARK    3  A    between atoms: C_8  and  C_13
REMARK    4  A    between atoms: C_11  and  C_14
REMARK    5  A    between atoms: C_13  and  C_15
REMARK    6  A    between atoms: C_21  and  C_23
REMARK    7  A    between atoms: C_23  and  C_26
REMARK    8  A    between atoms: C_26  and  C_27
REMARK    9  A    between atoms: C_27  and  C_31
REMARK                            x       y       z     vdW  Elec       q    Type
REMARK                         _______ _______ _______ _____ _____    ______ ____
ROOT
ATOM      3  N   UNL     1      -4.400   3.858  25.965  0.00  0.00    -0.316 NA
ATOM      7  C   UNL     1      -4.659   2.486  23.366  0.00  0.00    +0.004 C 
ATOM      8  C   UNL     1      -5.542   2.136  24.587  0.00  0.00    +0.012 C 
ATOM      9  C   UNL     1      -4.155   3.932  23.508  0.00  0.00    +0.019 C 
ATOM     10  C   UNL     1      -4.831   2.461  25.912  0.00  0.00    +0.085 C 
ATOM     12  C   UNL     1      -3.498   4.190  24.864  0.00  0.00    +0.081 C 
ATOM     32  H   UNL     1      -3.926   4.032  26.852  0.00  0.00    +0.122 HD
ENDROOT
BRANCH   7  11
ATOM     11  C   UNL     1      -3.489   1.519  23.143  0.00  0.00    +0.100 C 
BRANCH  11  14
ATOM      1  O   UNL     1      -1.888   2.884  22.043  0.00  0.00    -0.276 OA
ATOM      4  N   UNL     1      -1.399   2.254  24.225  0.00  0.00    -0.298 N 
ATOM      5  N   UNL     1       0.220   2.438  26.619  0.00  0.00    -0.327 N 
ATOM     14  C   UNL     1      -2.191   2.284  23.077  0.00  0.00    +0.216 C 
ATOM     16  C   UNL     1      -0.123   2.967  24.238  0.00  0.00    +0.126 C 
ATOM     17  C   UNL     1      -1.764   1.551  25.457  0.00  0.00    +0.126 C 
ATOM     18  C   UNL     1       0.211   3.516  25.625  0.00  0.00    +0.124 C 
ATOM     19  C   UNL     1      -0.555   1.228  26.335  0.00  0.00    +0.124 C 
BRANCH   5  22
ATOM     22  C   UNL     1       0.975   2.552  27.783  0.00  0.00    +0.030 A 
ATOM     24  C   UNL     1       0.403   2.246  29.018  0.00  0.00    +0.023 A 
ATOM     25  C   UNL     1       2.303   2.971  27.715  0.00  0.00    +0.023 A 
ATOM     28  C   UNL     1       1.159   2.360  30.185  0.00  0.00    +0.002 A 
ATOM     29  C   UNL     1       3.060   3.085  28.881  0.00  0.00    +0.002 A 
ATOM     30  C   UNL     1       2.488   2.779  30.116  0.00  0.00    +0.000 A 
ENDBRANCH   5  22
ENDBRANCH  11  14
ENDBRANCH   7  11
BRANCH   8  13
ATOM     13  C   UNL     1      -6.028   0.686  24.580  0.00  0.00    +0.064 C 
BRANCH  13  15
ATOM      2  O   UNL     1      -3.383  -1.273  26.038  0.00  0.00    -0.359 OA
ATOM      6  N   UNL     1      -4.370  -0.297  26.103  0.00  0.00    -0.083 NA
ATOM     15  C   UNL     1      -4.908  -0.267  24.881  0.00  0.00    +0.084 A 
ATOM     20  C   UNL     1      -4.308  -1.194  24.011  0.00  0.00    +0.071 A 
ATOM     21  C   UNL     1      -3.356  -1.799  24.787  0.00  0.00    +0.138 A 
BRANCH  21  23
ATOM     23  C   UNL     1      -2.363  -2.853  24.541  0.00  0.00    +0.077 C 
BRANCH  23  26
ATOM     26  C   UNL     1      -0.913  -2.319  24.489  0.00  0.00    +0.007 C 
BRANCH  26  27
ATOM     27  C   UNL     1      -0.749  -1.159  23.509  0.00  0.00    -0.003 C 
ATOM     31  C   UNL     1       0.660  -0.587  23.552  0.00  0.00    +0.004 C 
ENDBRANCH  26  27
ENDBRANCH  23  26
ENDBRANCH  21  23
ENDBRANCH  13  15
ENDBRANCH   8  13
TORSDOF 8
ENDMDL
MODEL 4
REMARK VINA RESULT:       2.9      2.430      4.208
REMARK  Name = 26742987
REMARK  9 active torsions:
REMARK  status: ('A' for Active; 'I' for Inactive)
REMARK    1  A    between atoms: N_5  and  C_22
REMARK    2  A    between atoms: C_7  and  C_11
REMARK    3  A    between atoms: C_8  and  C_13
REMARK    4  A    between atoms: C_11  and  C_14
REMARK    5  A    between atoms: C_13  and  C_15
REMARK    6  A    between atoms: C_21  and  C_23
REMARK    7  A    between atoms: C_23  and  C_26
REMARK    8  A    between atoms: C_26  and  C_27
REMARK    9  A    between atoms: C_27  and  C_31
REMARK                            x       y       z     vdW  Elec       q    Type
REMARK                         _______ _______ _______ _____ _____    ______ ____
ROOT
ATOM      3  N   UNL     1      -3.964   4.942  25.848  0.00  0.00    -0.316 NA
ATOM      7  C   UNL     1      -3.417   2.465  24.343  0.00  0.00    +0.004 C 
ATOM      8  C   UNL     1      -2.858   2.721  25.763  0.00  0.00    +0.012 C 
ATOM      9  C   UNL     1      -4.688   3.307  24.144  0.00  0.00    +0.019 C 
ATOM     10  C   UNL     1      -2.706   4.225  26.049  0.00  0.00    +0.085 C 
ATOM     12  C   UNL     1      -4.471   4.781  24.487  0.00  0.00    +0.081 C 
ATOM     32  H   UNL     1      -3.821   5.935  26.038  0.00  0.00    +0.122 HD
ENDROOT
BRANCH   7  11
ATOM     11  C   UNL     1      -2.409   2.725  23.218  0.00  0.00    +0.100 C 
BRANCH  11  14
ATOM      1  O   UNL     1      -2.722   0.736  21.959  0.00  0.00    -0.276 OA
ATOM      4  N   UNL     1      -0.620   1.059  22.895  0.00  0.00    -0.298 N 
ATOM      5  N   UNL     1       2.163   0.321  23.203  0.00  0.00    -0.327 N 
ATOM     14  C   UNL     1      -1.941   1.417  22.628  0.00  0.00    +0.216 C 
ATOM     16  C   UNL     1      -0.093  -0.197  22.364  0.00  0.00    +0.126 C 
ATOM     17  C   UNL     1       0.310   1.873  23.681  0.00  0.00    +0.126 C 
ATOM     18  C   UNL     1       1.393  -0.096  22.027  0.00  0.00    +0.124 C 
ATOM     19  C   UNL     1       1.467   1.059  24.260  0.00  0.00    +0.124 C 
BRANCH   5  22
ATOM     22  C   UNL     1       3.510  -0.010  23.325  0.00  0.00    +0.030 A 
ATOM     24  C   UNL     1       4.491   0.935  23.023  0.00  0.00    +0.023 A 
ATOM     25  C   UNL     1       3.879  -1.286  23.750  0.00  0.00    +0.023 A 
ATOM     28  C   UNL     1       5.840   0.604  23.144  0.00  0.00    +0.002 A 
ATOM     29  C   UNL     1       5.228  -1.618  23.872  0.00  0.00    +0.002 A 
ATOM     30  C   UNL     1       6.209  -0.672  23.570  0.00  0.00    +0.000 A 
ENDBRANCH   5  22
ENDBRANCH  11  14
ENDBRANCH   7  11
BRANCH   8  13
ATOM     13  C   UNL     1      -1.544   1.987  26.030  0.00  0.00    +0.064 C 
BRANCH  13  15
ATOM      2  O   UNL     1      -1.161  -1.589  25.878  0.00  0.00    -0.359 OA
ATOM      6  N   UNL     1      -0.651  -0.301  25.992  0.00  0.00    -0.083 NA
ATOM     15  C   UNL     1      -1.719   0.499  25.934  0.00  0.00    +0.084 A 
ATOM     20  C   UNL     1      -2.917  -0.219  25.785  0.00  0.00    +0.071 A 
ATOM     21  C   UNL     1      -2.511  -1.527  25.755  0.00  0.00    +0.138 A 
BRANCH  21  23
ATOM     23  C   UNL     1      -3.216  -2.808  25.622  0.00  0.00    +0.077 C 
BRANCH  23  26
ATOM     26  C   UNL     1      -3.423  -3.236  24.151  0.00  0.00    +0.007 C 
BRANCH  26  27
ATOM     27  C   UNL     1      -4.633  -2.559  23.508  0.00  0.00    -0.003 C 
ATOM     31  C   UNL     1      -4.690  -1.078  23.847  0.00  0.00    +0.004 C 
ENDBRANCH  26  27
ENDBRANCH  23  26
ENDBRANCH  21  23
ENDBRANCH  13  15
ENDBRANCH   8  13
TORSDOF 8
ENDMDL
MODEL 5
REMARK VINA RESULT:       3.1      2.202      4.423
REMARK  Name = 26742987
REMARK  9 active torsions:
REMARK  status: ('A' for Active; 'I' for Inactive)
REMARK    1  A    between atoms: N_5  and  C_22
REMARK    2  A    between atoms: C_7  and  C_11
REMARK    3  A    between atoms: C_8  and  C_13
REMARK    4  A    between atoms: C_11  and  C_14
REMARK    5  A    between atoms: C_13  and  C_15
REMARK    6  A    between atoms: C_21  and  C_23
REMARK    7  A    between atoms: C_23  and  C_26
REMARK    8  A    between atoms: C_26  and  C_27
REMARK    9  A    between atoms: C_27  and  C_31
REMARK                            x       y       z     vdW  Elec       q    Type
REMARK                         _______ _______ _______ _____ _____    ______ ____
ROOT
ATOM      3  N   UNL     1      -6.983   2.149  26.285  0.00  0.00    -0.316 NA
ATOM      7  C   UNL     1      -4.804   3.706  25.048  0.00  0.00    +0.004 C 
ATOM      8  C   UNL     1      -5.336   2.385  24.442  0.00  0.00    +0.012 C 
ATOM      9  C   UNL     1      -5.905   4.340  25.915  0.00  0.00    +0.019 C 
ATOM     10  C   UNL     1      -5.938   1.469  25.521  0.00  0.00    +0.085 C 
ATOM     12  C   UNL     1      -6.482   3.358  26.934  0.00  0.00    +0.081 C 
ATOM     32  H   UNL     1      -7.351   1.514  26.994  0.00  0.00    +0.122 HD
ENDROOT
BRANCH   7  11
ATOM     11  C   UNL     1      -3.504   3.548  25.846  0.00  0.00    +0.100 C 
BRANCH  11  14
ATOM      1  O   UNL     1      -2.371   5.443  24.972  0.00  0.00    -0.276 OA
ATOM      4  N   UNL     1      -1.357   3.378  24.645  0.00  0.00    -0.298 N 
ATOM      5  N   UNL     1       0.892   1.758  23.810  0.00  0.00    -0.327 N 
ATOM     14  C   UNL     1      -2.365   4.218  25.119  0.00  0.00    +0.216 C 
ATOM     16  C   UNL     1      -0.222   3.951  23.925  0.00  0.00    +0.126 C 
ATOM     17  C   UNL     1      -1.345   1.925  24.829  0.00  0.00    +0.126 C 
ATOM     18  C   UNL     1       1.066   3.167  24.173  0.00  0.00    +0.124 C 
ATOM     19  C   UNL     1      -0.465   1.206  23.807  0.00  0.00    +0.124 C 
BRANCH   5  22
ATOM     22  C   UNL     1       1.986   0.979  23.442  0.00  0.00    +0.030 A 
ATOM     24  C   UNL     1       3.184   1.589  23.072  0.00  0.00    +0.023 A 
ATOM     25  C   UNL     1       1.885  -0.412  23.446  0.00  0.00    +0.023 A 
ATOM     28  C   UNL     1       4.281   0.810  22.703  0.00  0.00    +0.002 A 
ATOM     29  C   UNL     1       2.980  -1.192  23.078  0.00  0.00    +0.002 A 
ATOM     30  C   UNL     1       4.179  -0.582  22.707  0.00  0.00    +0.000 A 
ENDBRANCH   5  22
ENDBRANCH  11  14
ENDBRANCH   7  11
BRANCH   8  13
ATOM     13  C   UNL     1      -4.284   1.635  23.625  0.00  0.00    +0.064 C 
BRANCH  13  15
ATOM      2  O   UNL     1      -3.634  -1.220  25.720  0.00  0.00    -0.359 OA
ATOM      6  N   UNL     1      -3.880   0.135  25.528  0.00  0.00    -0.083 NA
ATOM     15  C   UNL     1      -4.005   0.279  24.206  0.00  0.00    +0.084 A 
ATOM     20  C   UNL     1      -3.851  -0.938  23.519  0.00  0.00    +0.071 A 
ATOM     21  C   UNL     1      -3.619  -1.847  24.517  0.00  0.00    +0.138 A 
BRANCH  21  23
ATOM     23  C   UNL     1      -3.369  -3.294  24.536  0.00  0.00    +0.077 C 
BRANCH  23  26
ATOM     26  C   UNL     1      -1.880  -3.655  24.336  0.00  0.00    +0.007 C 
BRANCH  26  27
ATOM     27  C   UNL     1      -0.987  -2.421  24.218  0.00  0.00    -0.003 C 
ATOM     31  C   UNL     1      -0.281  -2.116  25.529  0.00  0.00    +0.004 C 
ENDBRANCH  26  27
ENDBRANCH  23  26
ENDBRANCH  21  23
ENDBRANCH  13  15
ENDBRANCH   8  13
TORSDOF 8
ENDMDL
MODEL 6
REMARK VINA RESULT:       3.1      2.463      4.129
REMARK  Name = 26742987
REMARK  9 active torsions:
REMARK  status: ('A' for Active; 'I' for Inactive)
REMARK    1  A    between atoms: N_5  and  C_22
REMARK    2  A    between atoms: C_7  and  C_11
REMARK    3  A    between atoms: C_8  and  C_13
REMARK    4  A    between atoms: C_11  and  C_14
REMARK    5  A    between atoms: C_13  and  C_15
REMARK    6  A    between atoms: C_21  and  C_23
REMARK    7  A    between atoms: C_23  and  C_26
REMARK    8  A    between atoms: C_26  and  C_27
REMARK    9  A    between atoms: C_27  and  C_31
REMARK                            x       y       z     vdW  Elec       q    Type
REMARK                         _______ _______ _______ _____ _____    ______ ____
ROOT
ATOM      3  N   UNL     1      -2.722   4.804  26.300  0.00  0.00    -0.316 NA
ATOM      7  C   UNL     1      -3.257   3.119  23.937  0.00  0.00    +0.004 C 
ATOM      8  C   UNL     1      -4.367   3.550  24.925  0.00  0.00    +0.012 C 
ATOM      9  C   UNL     1      -2.104   4.134  24.004  0.00  0.00    +0.019 C 
ATOM     10  C   UNL     1      -3.802   3.818  26.331  0.00  0.00    +0.085 C 
ATOM     12  C   UNL     1      -1.623   4.379  25.434  0.00  0.00    +0.081 C 
ATOM     32  H   UNL     1      -2.368   4.947  27.246  0.00  0.00    +0.122 HD
ENDROOT
BRANCH   7  11
ATOM     11  C   UNL     1      -2.742   1.692  24.160  0.00  0.00    +0.100 C 
BRANCH  11  14
ATOM      1  O   UNL     1      -2.610   1.199  21.842  0.00  0.00    -0.276 OA
ATOM      4  N   UNL     1      -0.711   0.769  23.110  0.00  0.00    -0.298 N 
ATOM      5  N   UNL     1       2.085   0.050  23.332  0.00  0.00    -0.327 N 
ATOM     14  C   UNL     1      -2.025   1.202  22.928  0.00  0.00    +0.216 C 
ATOM     16  C   UNL     1       0.049   0.274  21.965  0.00  0.00    +0.126 C 
ATOM     17  C   UNL     1      -0.013   0.783  24.398  0.00  0.00    +0.126 C 
ATOM     18  C   UNL     1       1.538   0.595  22.086  0.00  0.00    +0.124 C 
ATOM     19  C   UNL     1       1.163  -0.193  24.444  0.00  0.00    +0.124 C 
BRANCH   5  22
ATOM     22  C   UNL     1       3.438  -0.260  23.439  0.00  0.00    +0.030 A 
ATOM     24  C   UNL     1       3.831  -1.545  23.813  0.00  0.00    +0.023 A 
ATOM     25  C   UNL     1       4.400   0.714  23.172  0.00  0.00    +0.023 A 
ATOM     28  C   UNL     1       5.187  -1.857  23.920  0.00  0.00    +0.002 A 
ATOM     29  C   UNL     1       5.755   0.403  23.279  0.00  0.00    +0.002 A 
ATOM     30  C   UNL     1       6.149  -0.883  23.652  0.00  0.00    +0.000 A 
ENDBRANCH   5  22
ENDBRANCH  11  14
ENDBRANCH   7  11
BRANCH   8  13
ATOM     13  C   UNL     1      -5.528   2.558  24.993  0.00  0.00    +0.064 C 
BRANCH  13  15
ATOM      2  O   UNL     1      -4.113  -0.674  25.710  0.00  0.00    -0.359 OA
ATOM      6  N   UNL     1      -4.430   0.634  26.057  0.00  0.00    -0.083 NA
ATOM     15  C   UNL     1      -5.036   1.139  24.978  0.00  0.00    +0.084 A 
ATOM     20  C   UNL     1      -5.129   0.206  23.931  0.00  0.00    +0.071 A 
ATOM     21  C   UNL     1      -4.533  -0.916  24.443  0.00  0.00    +0.138 A 
BRANCH  21  23
ATOM     23  C   UNL     1      -4.275  -2.261  23.913  0.00  0.00    +0.077 C 
BRANCH  23  26
ATOM     26  C   UNL     1      -3.166  -3.013  24.683  0.00  0.00    +0.007 C 
BRANCH  26  27
ATOM     27  C   UNL     1      -1.763  -2.532  24.312  0.00  0.00    -0.003 C 
ATOM     31  C   UNL     1      -0.962  -2.147  25.545  0.00  0.00    +0.004 C 
ENDBRANCH  26  27
ENDBRANCH  23  26
ENDBRANCH  21  23
ENDBRANCH  13  15
ENDBRANCH   8  13
TORSDOF 8
ENDMDL
