MODEL 1
REMARK VINA RESULT:      -5.4      0.000      0.000
REMARK  Name = 38028493
REMARK  11 active torsions:
REMARK  status: ('A' for Active; 'I' for Inactive)
REMARK    1  A    between atoms: N_3  and  C_13
REMARK    2  A    between atoms: N_4  and  C_20
REMARK    3  A    between atoms: C_6  and  C_10
REMARK    4  A    between atoms: C_7  and  C_13
REMARK    5  A    between atoms: C_9  and  C_14
REMARK    6  A    between atoms: C_10  and  C_15
REMARK    7  A    between atoms: C_10  and  C_16
REMARK    8  A    between atoms: C_11  and  C_17
REMARK    9  A    between atoms: C_14  and  C_18
REMARK   10  A    between atoms: C_19  and  C_21
REMARK   11  A    between atoms: C_20  and  C_22
REMARK                            x       y       z     vdW  Elec       q    Type
REMARK                         _______ _______ _______ _____ _____    ______ ____
ROOT
ATOM      6  C   UNL     1      -1.114   0.387  24.601  0.00  0.00    +0.000 C 
ATOM      7  C   UNL     1      -0.295  -0.918  24.431  0.00  0.00    +0.032 C 
ATOM      8  C   UNL     1      -2.226   0.189  25.641  0.00  0.00    +0.012 C 
ATOM      9  C   UNL     1      -3.191  -0.948  25.255  0.00  0.00    +0.023 C 
ATOM     11  C   UNL     1      -2.449  -2.192  24.814  0.00  0.00    -0.073 C 
ATOM     12  C   UNL     1      -1.151  -2.162  24.462  0.00  0.00    -0.022 C 
ATOM     17  C   UNL     1      -3.219  -3.482  24.829  0.00  0.00    +0.039 C 
ENDROOT
BRANCH   6  10
ATOM     10  C   UNL     1      -0.226   1.567  25.007  0.00  0.00    -0.013 C 
ATOM     15  C   UNL     1      -0.537   1.999  26.436  0.00  0.00    +0.007 C 
ATOM     16  C   UNL     1      -0.412   2.730  24.038  0.00  0.00    +0.007 C 
ENDBRANCH   6  10
BRANCH   7  13
ATOM     13  C   UNL     1       0.522  -0.892  23.133  0.00  0.00    +0.112 C 
BRANCH  13   3
ATOM      2  O   UNL     1       2.460  -0.137  21.108  0.00  0.00    -0.276 OA
ATOM      3  N   UNL     1       1.771  -0.224  23.332  0.00  0.00    -0.315 N 
ATOM     19  C   UNL     1       2.645   0.102  22.298  0.00  0.00    +0.210 C 
ATOM     21  C   UNL     1       3.876   0.822  22.782  0.00  0.00    +0.109 C 
ATOM     27  H   UNL     1       2.002   0.083  24.272  0.00  0.00    +0.149 HD
ENDBRANCH  13   3
ENDBRANCH   7  13
BRANCH   9  14
ATOM     14  C   UNL     1      -4.181  -0.489  24.177  0.00  0.00    +0.103 C 
BRANCH  14  18
ATOM      1  O   UNL     1      -3.730   1.741  23.352  0.00  0.00    -0.276 OA
ATOM      4  N   UNL     1      -5.212   1.452  25.119  0.00  0.00    -0.311 N 
ATOM     18  C   UNL     1      -4.326   1.016  24.144  0.00  0.00    +0.214 C 
ATOM     28  H   UNL     1      -5.660   0.775  25.728  0.00  0.00    +0.149 HD
BRANCH   4  20
ATOM     20  C   UNL     1      -5.543   2.845  25.319  0.00  0.00    +0.141 C 
BRANCH  20  22
ATOM      5  N   UNL     1      -2.866   5.249  24.156  0.00  0.00    -0.263 NA
ATOM     22  C   UNL     1      -4.321   3.717  25.331  0.00  0.00    -0.012 A 
ATOM     23  C   UNL     1      -3.522   3.816  26.464  0.00  0.00    +0.008 A 
ATOM     24  C   UNL     1      -3.953   4.447  24.212  0.00  0.00    +0.115 A 
ATOM     25  C   UNL     1      -2.395   4.631  26.445  0.00  0.00    +0.020 A 
ATOM     26  C   UNL     1      -2.113   5.320  25.277  0.00  0.00    +0.111 A 
ENDBRANCH  20  22
ENDBRANCH   4  20
ENDBRANCH  14  18
ENDBRANCH   9  14
TORSDOF 7
ENDMDL
MODEL 2
REMARK VINA RESULT:      -5.0      2.038      6.854
REMARK  Name = 38028493
REMARK  11 active torsions:
REMARK  status: ('A' for Active; 'I' for Inactive)
REMARK    1  A    between atoms: N_3  and  C_13
REMARK    2  A    between atoms: N_4  and  C_20
REMARK    3  A    between atoms: C_6  and  C_10
REMARK    4  A    between atoms: C_7  and  C_13
REMARK    5  A    between atoms: C_9  and  C_14
REMARK    6  A    between atoms: C_10  and  C_15
REMARK    7  A    between atoms: C_10  and  C_16
REMARK    8  A    between atoms: C_11  and  C_17
REMARK    9  A    between atoms: C_14  and  C_18
REMARK   10  A    between atoms: C_19  and  C_21
REMARK   11  A    between atoms: C_20  and  C_22
REMARK                            x       y       z     vdW  Elec       q    Type
REMARK                         _______ _______ _______ _____ _____    ______ ____
ROOT
ATOM      6  C   UNL     1      -3.245   1.350  24.118  0.00  0.00    +0.000 C 
ATOM      7  C   UNL     1      -4.577   0.689  24.553  0.00  0.00    +0.032 C 
ATOM      8  C   UNL     1      -2.485   0.434  23.147  0.00  0.00    +0.012 C 
ATOM      9  C   UNL     1      -2.168  -0.939  23.768  0.00  0.00    +0.023 C 
ATOM     11  C   UNL     1      -3.377  -1.539  24.457  0.00  0.00    -0.073 C 
ATOM     12  C   UNL     1      -4.450  -0.798  24.788  0.00  0.00    -0.022 C 
ATOM     17  C   UNL     1      -3.345  -3.019  24.716  0.00  0.00    +0.039 C 
ENDROOT
BRANCH   6  10
ATOM     10  C   UNL     1      -3.476   2.718  23.468  0.00  0.00    -0.013 C 
ATOM     15  C   UNL     1      -3.216   2.645  21.967  0.00  0.00    +0.007 C 
ATOM     16  C   UNL     1      -2.587   3.773  24.120  0.00  0.00    +0.007 C 
ENDBRANCH   6  10
BRANCH   7  13
ATOM     13  C   UNL     1      -5.140   1.358  25.812  0.00  0.00    +0.112 C 
BRANCH  13   3
ATOM      2  O   UNL     1      -4.416   4.038  26.661  0.00  0.00    -0.276 OA
ATOM      3  N   UNL     1      -5.802   2.583  25.484  0.00  0.00    -0.315 N 
ATOM     19  C   UNL     1      -5.385   3.832  25.937  0.00  0.00    +0.210 C 
ATOM     21  C   UNL     1      -6.246   4.955  25.422  0.00  0.00    +0.109 C 
ATOM     27  H   UNL     1      -6.582   2.543  24.834  0.00  0.00    +0.149 HD
ENDBRANCH  13   3
ENDBRANCH   7  13
BRANCH   9  14
ATOM     14  C   UNL     1      -0.978  -0.848  24.731  0.00  0.00    +0.103 C 
BRANCH  14  18
ATOM      1  O   UNL     1       0.222   1.253  24.769  0.00  0.00    -0.276 OA
ATOM      4  N   UNL     1       0.783  -0.357  23.190  0.00  0.00    -0.311 N 
ATOM     18  C   UNL     1       0.058   0.147  24.260  0.00  0.00    +0.214 C 
ATOM     28  H   UNL     1       0.577  -1.287  22.839  0.00  0.00    +0.149 HD
BRANCH   4  20
ATOM     20  C   UNL     1       1.840   0.380  22.535  0.00  0.00    +0.141 C 
BRANCH  20  22
ATOM      5  N   UNL     1       4.626  -1.684  24.044  0.00  0.00    -0.263 NA
ATOM     22  C   UNL     1       3.196  -0.008  23.049  0.00  0.00    -0.012 A 
ATOM     23  C   UNL     1       4.256   0.892  23.024  0.00  0.00    +0.008 A 
ATOM     24  C   UNL     1       3.431  -1.272  23.564  0.00  0.00    +0.115 A 
ATOM     25  C   UNL     1       5.501   0.505  23.508  0.00  0.00    +0.020 A 
ATOM     26  C   UNL     1       5.633  -0.782  24.003  0.00  0.00    +0.111 A 
ENDBRANCH  20  22
ENDBRANCH   4  20
ENDBRANCH  14  18
ENDBRANCH   9  14
TORSDOF 7
ENDMDL
MODEL 3
REMARK VINA RESULT:      -4.9      1.898      7.400
REMARK  Name = 38028493
REMARK  11 active torsions:
REMARK  status: ('A' for Active; 'I' for Inactive)
REMARK    1  A    between atoms: N_3  and  C_13
REMARK    2  A    between atoms: N_4  and  C_20
REMARK    3  A    between atoms: C_6  and  C_10
REMARK    4  A    between atoms: C_7  and  C_13
REMARK    5  A    between atoms: C_9  and  C_14
REMARK    6  A    between atoms: C_10  and  C_15
REMARK    7  A    between atoms: C_10  and  C_16
REMARK    8  A    between atoms: C_11  and  C_17
REMARK    9  A    between atoms: C_14  and  C_18
REMARK   10  A    between atoms: C_19  and  C_21
REMARK   11  A    between atoms: C_20  and  C_22
REMARK                            x       y       z     vdW  Elec       q    Type
REMARK                         _______ _______ _______ _____ _____    ______ ____
ROOT
ATOM      6  C   UNL     1      -3.205  -0.245  24.686  0.00  0.00    +0.000 C 
ATOM      7  C   UNL     1      -3.992   0.912  25.353  0.00  0.00    +0.032 C 
ATOM      8  C   UNL     1      -1.774  -0.309  25.240  0.00  0.00    +0.012 C 
ATOM      9  C   UNL     1      -1.001   1.003  25.011  0.00  0.00    +0.023 C 
ATOM     11  C   UNL     1      -1.822   2.216  25.397  0.00  0.00    -0.073 C 
ATOM     12  C   UNL     1      -3.156   2.154  25.558  0.00  0.00    -0.022 C 
ATOM     17  C   UNL     1      -1.070   3.495  25.639  0.00  0.00    +0.039 C 
ENDROOT
BRANCH   6  10
ATOM     10  C   UNL     1      -3.901  -1.595  24.887  0.00  0.00    -0.013 C 
ATOM     15  C   UNL     1      -2.985  -2.559  25.633  0.00  0.00    +0.007 C 
ATOM     16  C   UNL     1      -4.323  -2.181  23.543  0.00  0.00    +0.007 C 
ENDBRANCH   6  10
BRANCH   7  13
ATOM     13  C   UNL     1      -5.243   1.267  24.542  0.00  0.00    +0.112 C 
BRANCH  13   3
ATOM      2  O   UNL     1      -6.148   2.818  26.824  0.00  0.00    -0.276 OA
ATOM      3  N   UNL     1      -5.498   2.673  24.591  0.00  0.00    -0.315 N 
ATOM     19  C   UNL     1      -5.932   3.341  25.734  0.00  0.00    +0.210 C 
ATOM     21  C   UNL     1      -6.099   4.821  25.516  0.00  0.00    +0.109 C 
ATOM     27  H   UNL     1      -5.291   3.224  23.763  0.00  0.00    +0.149 HD
ENDBRANCH  13   3
ENDBRANCH   7  13
BRANCH   9  14
ATOM     14  C   UNL     1      -0.513   1.110  23.561  0.00  0.00    +0.103 C 
BRANCH  14  18
ATOM      1  O   UNL     1       0.583  -1.037  23.774  0.00  0.00    -0.276 OA
ATOM      4  N   UNL     1       1.403   0.522  22.258  0.00  0.00    -0.311 N 
ATOM     18  C   UNL     1       0.530   0.065  23.234  0.00  0.00    +0.214 C 
ATOM     28  H   UNL     1       1.277   1.451  21.867  0.00  0.00    +0.149 HD
BRANCH   4  20
ATOM     20  C   UNL     1       2.502  -0.267  21.749  0.00  0.00    +0.141 C 
BRANCH  20  22
ATOM      5  N   UNL     1       5.039  -1.501  24.267  0.00  0.00    -0.263 NA
ATOM     22  C   UNL     1       3.669  -0.280  22.694  0.00  0.00    -0.012 A 
ATOM     23  C   UNL     1       4.446   0.856  22.888  0.00  0.00    +0.008 A 
ATOM     24  C   UNL     1       4.004  -1.423  23.401  0.00  0.00    +0.115 A 
ATOM     25  C   UNL     1       5.520   0.815  23.770  0.00  0.00    +0.020 A 
ATOM     26  C   UNL     1       5.773  -0.377  24.429  0.00  0.00    +0.111 A 
ENDBRANCH  20  22
ENDBRANCH   4  20
ENDBRANCH  14  18
ENDBRANCH   9  14
TORSDOF 7
ENDMDL
MODEL 4
REMARK VINA RESULT:      -4.9      1.999      6.397
REMARK  Name = 38028493
REMARK  11 active torsions:
REMARK  status: ('A' for Active; 'I' for Inactive)
REMARK    1  A    between atoms: N_3  and  C_13
REMARK    2  A    between atoms: N_4  and  C_20
REMARK    3  A    between atoms: C_6  and  C_10
REMARK    4  A    between atoms: C_7  and  C_13
REMARK    5  A    between atoms: C_9  and  C_14
REMARK    6  A    between atoms: C_10  and  C_15
REMARK    7  A    between atoms: C_10  and  C_16
REMARK    8  A    between atoms: C_11  and  C_17
REMARK    9  A    between atoms: C_14  and  C_18
REMARK   10  A    between atoms: C_19  and  C_21
REMARK   11  A    between atoms: C_20  and  C_22
REMARK                            x       y       z     vdW  Elec       q    Type
REMARK                         _______ _______ _______ _____ _____    ______ ____
ROOT
ATOM      6  C   UNL     1      -2.844   1.856  23.759  0.00  0.00    +0.000 C 
ATOM      7  C   UNL     1      -4.177   1.744  24.542  0.00  0.00    +0.032 C 
ATOM      8  C   UNL     1      -2.397   0.473  23.263  0.00  0.00    +0.012 C 
ATOM      9  C   UNL     1      -2.201  -0.526  24.420  0.00  0.00    +0.023 C 
ATOM     11  C   UNL     1      -3.364  -0.499  25.390  0.00  0.00    -0.073 C 
ATOM     12  C   UNL     1      -4.245   0.517  25.422  0.00  0.00    -0.022 C 
ATOM     17  C   UNL     1      -3.520  -1.689  26.294  0.00  0.00    +0.039 C 
ENDROOT
BRANCH   6  10
ATOM     10  C   UNL     1      -2.961   2.820  22.574  0.00  0.00    -0.013 C 
ATOM     15  C   UNL     1      -4.401   3.296  22.416  0.00  0.00    +0.007 C 
ATOM     16  C   UNL     1      -2.469   2.151  21.294  0.00  0.00    +0.007 C 
ENDBRANCH   6  10
BRANCH   7  13
ATOM     13  C   UNL     1      -4.424   2.996  25.392  0.00  0.00    +0.112 C 
BRANCH  13   3
ATOM      2  O   UNL     1      -1.777   3.363  26.527  0.00  0.00    -0.276 OA
ATOM      3  N   UNL     1      -3.477   4.020  25.076  0.00  0.00    -0.315 N 
ATOM     19  C   UNL     1      -2.223   4.123  25.672  0.00  0.00    +0.210 C 
ATOM     21  C   UNL     1      -1.418   5.278  25.139  0.00  0.00    +0.109 C 
ATOM     27  H   UNL     1      -3.711   4.671  24.332  0.00  0.00    +0.149 HD
ENDBRANCH  13   3
ENDBRANCH   7  13
BRANCH   9  14
ATOM     14  C   UNL     1      -0.875  -0.276  25.146  0.00  0.00    +0.103 C 
BRANCH  14  18
ATOM      1  O   UNL     1       0.402   1.625  24.366  0.00  0.00    -0.276 OA
ATOM      4  N   UNL     1       0.689  -0.443  23.346  0.00  0.00    -0.311 N 
ATOM     18  C   UNL     1       0.130   0.432  24.266  0.00  0.00    +0.214 C 
ATOM     28  H   UNL     1       0.403  -1.417  23.342  0.00  0.00    +0.149 HD
BRANCH   4  20
ATOM     20  C   UNL     1       1.682  -0.040  22.375  0.00  0.00    +0.141 C 
BRANCH  20  22
ATOM      5  N   UNL     1       4.775  -1.493  23.993  0.00  0.00    -0.263 NA
ATOM     22  C   UNL     1       3.077  -0.149  22.919  0.00  0.00    -0.012 A 
ATOM     23  C   UNL     1       3.951   0.931  22.871  0.00  0.00    +0.008 A 
ATOM     24  C   UNL     1       3.533  -1.328  23.485  0.00  0.00    +0.115 A 
ATOM     25  C   UNL     1       5.237   0.801  23.384  0.00  0.00    +0.020 A 
ATOM     26  C   UNL     1       5.597  -0.420  23.929  0.00  0.00    +0.111 A 
ENDBRANCH  20  22
ENDBRANCH   4  20
ENDBRANCH  14  18
ENDBRANCH   9  14
TORSDOF 7
ENDMDL
MODEL 5
REMARK VINA RESULT:      -4.5      2.108      6.768
REMARK  Name = 38028493
REMARK  11 active torsions:
REMARK  status: ('A' for Active; 'I' for Inactive)
REMARK    1  A    between atoms: N_3  and  C_13
REMARK    2  A    between atoms: N_4  and  C_20
REMARK    3  A    between atoms: C_6  and  C_10
REMARK    4  A    between atoms: C_7  and  C_13
REMARK    5  A    between atoms: C_9  and  C_14
REMARK    6  A    between atoms: C_10  and  C_15
REMARK    7  A    between atoms: C_10  and  C_16
REMARK    8  A    between atoms: C_11  and  C_17
REMARK    9  A    between atoms: C_14  and  C_18
REMARK   10  A    between atoms: C_19  and  C_21
REMARK   11  A    between atoms: C_20  and  C_22
REMARK                            x       y       z     vdW  Elec       q    Type
REMARK                         _______ _______ _______ _____ _____    ______ ____
ROOT
ATOM      6  C   UNL     1      -3.467   2.636  25.426  0.00  0.00    +0.000 C 
ATOM      7  C   UNL     1      -4.305   1.871  24.371  0.00  0.00    +0.032 C 
ATOM      8  C   UNL     1      -2.381   3.478  24.741  0.00  0.00    +0.012 C 
ATOM      9  C   UNL     1      -1.427   2.619  23.889  0.00  0.00    +0.023 C 
ATOM     11  C   UNL     1      -2.182   1.643  23.010  0.00  0.00    -0.073 C 
ATOM     12  C   UNL     1      -3.471   1.330  23.232  0.00  0.00    -0.022 C 
ATOM     17  C   UNL     1      -1.434   1.067  21.841  0.00  0.00    +0.039 C 
ENDROOT
BRANCH   6  10
ATOM     10  C   UNL     1      -4.343   3.533  26.305  0.00  0.00    -0.013 C 
ATOM     15  C   UNL     1      -5.524   4.072  25.505  0.00  0.00    +0.007 C 
ATOM     16  C   UNL     1      -3.518   4.677  26.887  0.00  0.00    +0.007 C 
ENDBRANCH   6  10
BRANCH   7  13
ATOM     13  C   UNL     1      -5.092   0.725  25.016  0.00  0.00    +0.112 C 
BRANCH  13   3
ATOM      2  O   UNL     1      -3.099  -1.004  26.227  0.00  0.00    -0.276 OA
ATOM      3  N   UNL     1      -4.633  -0.541  24.535  0.00  0.00    -0.315 N 
ATOM     19  C   UNL     1      -3.667  -1.309  25.182  0.00  0.00    +0.210 C 
ATOM     21  C   UNL     1      -3.386  -2.608  24.475  0.00  0.00    +0.109 C 
ATOM     27  H   UNL     1      -5.080  -0.928  23.709  0.00  0.00    +0.149 HD
ENDBRANCH  13   3
ENDBRANCH   7  13
BRANCH   9  14
ATOM     14  C   UNL     1      -0.407   1.889  24.770  0.00  0.00    +0.103 C 
BRANCH  14  18
ATOM      1  O   UNL     1      -0.239  -0.467  24.243  0.00  0.00    -0.276 OA
ATOM      4  N   UNL     1       1.229   1.036  23.249  0.00  0.00    -0.311 N 
ATOM     18  C   UNL     1       0.176   0.677  24.078  0.00  0.00    +0.214 C 
ATOM     28  H   UNL     1       1.499   2.012  23.176  0.00  0.00    +0.149 HD
BRANCH   4  20
ATOM     20  C   UNL     1       1.976   0.081  22.463  0.00  0.00    +0.141 C 
BRANCH  20  22
ATOM      5  N   UNL     1       4.910  -1.645  24.110  0.00  0.00    -0.263 NA
ATOM     22  C   UNL     1       3.350  -0.153  23.021  0.00  0.00    -0.012 A 
ATOM     23  C   UNL     1       4.318   0.844  22.983  0.00  0.00    +0.008 A 
ATOM     24  C   UNL     1       3.693  -1.369  23.589  0.00  0.00    +0.115 A 
ATOM     25  C   UNL     1       5.582   0.599  23.508  0.00  0.00    +0.020 A 
ATOM     26  C   UNL     1       5.826  -0.650  24.055  0.00  0.00    +0.111 A 
ENDBRANCH  20  22
ENDBRANCH   4  20
ENDBRANCH  14  18
ENDBRANCH   9  14
TORSDOF 7
ENDMDL
MODEL 6
REMARK VINA RESULT:      -4.3      1.716      3.545
REMARK  Name = 38028493
REMARK  11 active torsions:
REMARK  status: ('A' for Active; 'I' for Inactive)
REMARK    1  A    between atoms: N_3  and  C_13
REMARK    2  A    between atoms: N_4  and  C_20
REMARK    3  A    between atoms: C_6  and  C_10
REMARK    4  A    between atoms: C_7  and  C_13
REMARK    5  A    between atoms: C_9  and  C_14
REMARK    6  A    between atoms: C_10  and  C_15
REMARK    7  A    between atoms: C_10  and  C_16
REMARK    8  A    between atoms: C_11  and  C_17
REMARK    9  A    between atoms: C_14  and  C_18
REMARK   10  A    between atoms: C_19  and  C_21
REMARK   11  A    between atoms: C_20  and  C_22
REMARK                            x       y       z     vdW  Elec       q    Type
REMARK                         _______ _______ _______ _____ _____    ______ ____
ROOT
ATOM      6  C   UNL     1      -3.416  -0.756  25.050  0.00  0.00    +0.000 C 
ATOM      7  C   UNL     1      -2.204  -0.020  24.424  0.00  0.00    +0.032 C 
ATOM      8  C   UNL     1      -4.676  -0.533  24.200  0.00  0.00    +0.012 C 
ATOM      9  C   UNL     1      -5.029   0.961  24.063  0.00  0.00    +0.023 C 
ATOM     11  C   UNL     1      -3.816   1.796  23.708  0.00  0.00    -0.073 C 
ATOM     12  C   UNL     1      -2.562   1.337  23.863  0.00  0.00    -0.022 C 
ATOM     17  C   UNL     1      -4.078   3.157  23.126  0.00  0.00    +0.039 C 
ENDROOT
BRANCH   6  10
ATOM     10  C   UNL     1      -3.152  -2.257  25.202  0.00  0.00    -0.013 C 
ATOM     15  C   UNL     1      -1.670  -2.559  25.011  0.00  0.00    +0.007 C 
ATOM     16  C   UNL     1      -3.997  -3.049  24.209  0.00  0.00    +0.007 C 
ENDBRANCH   6  10
BRANCH   7  13
ATOM     13  C   UNL     1      -1.066   0.131  25.440  0.00  0.00    +0.112 C 
BRANCH  13   3
ATOM      2  O   UNL     1       0.313  -0.777  23.052  0.00  0.00    -0.276 OA
ATOM      3  N   UNL     1       0.087   0.715  24.827  0.00  0.00    -0.315 N 
ATOM     19  C   UNL     1       0.689   0.212  23.676  0.00  0.00    +0.210 C 
ATOM     21  C   UNL     1       1.871   1.031  23.231  0.00  0.00    +0.109 C 
ATOM     27  H   UNL     1       0.449   1.579  25.220  0.00  0.00    +0.149 HD
ENDBRANCH  13   3
ENDBRANCH   7  13
BRANCH   9  14
ATOM     14  C   UNL     1      -5.704   1.488  25.335  0.00  0.00    +0.103 C 
BRANCH  14  18
ATOM      1  O   UNL     1      -5.858   3.901  25.427  0.00  0.00    -0.276 OA
ATOM      4  N   UNL     1      -4.012   2.835  26.354  0.00  0.00    -0.311 N 
ATOM     18  C   UNL     1      -5.232   2.878  25.694  0.00  0.00    +0.214 C 
ATOM     28  H   UNL     1      -3.571   1.938  26.533  0.00  0.00    +0.149 HD
BRANCH   4  20
ATOM     20  C   UNL     1      -3.321   4.018  26.815  0.00  0.00    +0.141 C 
BRANCH  20  22
ATOM      5  N   UNL     1       0.025   3.701  25.084  0.00  0.00    -0.263 NA
ATOM     22  C   UNL     1      -2.135   4.347  25.956  0.00  0.00    -0.012 A 
ATOM     23  C   UNL     1      -2.068   5.546  25.255  0.00  0.00    +0.008 A 
ATOM     24  C   UNL     1      -1.072   3.466  25.839  0.00  0.00    +0.115 A 
ATOM     25  C   UNL     1      -0.956   5.823  24.468  0.00  0.00    +0.020 A 
ATOM     26  C   UNL     1       0.055   4.877  24.417  0.00  0.00    +0.111 A 
ENDBRANCH  20  22
ENDBRANCH   4  20
ENDBRANCH  14  18
ENDBRANCH   9  14
TORSDOF 7
ENDMDL
MODEL 7
REMARK VINA RESULT:      -4.0      2.131      5.445
REMARK  Name = 38028493
REMARK  11 active torsions:
REMARK  status: ('A' for Active; 'I' for Inactive)
REMARK    1  A    between atoms: N_3  and  C_13
REMARK    2  A    between atoms: N_4  and  C_20
REMARK    3  A    between atoms: C_6  and  C_10
REMARK    4  A    between atoms: C_7  and  C_13
REMARK    5  A    between atoms: C_9  and  C_14
REMARK    6  A    between atoms: C_10  and  C_15
REMARK    7  A    between atoms: C_10  and  C_16
REMARK    8  A    between atoms: C_11  and  C_17
REMARK    9  A    between atoms: C_14  and  C_18
REMARK   10  A    between atoms: C_19  and  C_21
REMARK   11  A    between atoms: C_20  and  C_22
REMARK                            x       y       z     vdW  Elec       q    Type
REMARK                         _______ _______ _______ _____ _____    ______ ____
ROOT
ATOM      6  C   UNL     1      -3.508   2.325  24.012  0.00  0.00    +0.000 C 
ATOM      7  C   UNL     1      -4.254   3.484  24.721  0.00  0.00    +0.032 C 
ATOM      8  C   UNL     1      -4.468   1.157  23.742  0.00  0.00    +0.012 C 
ATOM      9  C   UNL     1      -5.101   0.611  25.035  0.00  0.00    +0.023 C 
ATOM     11  C   UNL     1      -5.624   1.724  25.920  0.00  0.00    -0.073 C 
ATOM     12  C   UNL     1      -5.244   3.004  25.757  0.00  0.00    -0.022 C 
ATOM     17  C   UNL     1      -6.628   1.340  26.970  0.00  0.00    +0.039 C 
ENDROOT
BRANCH   6  10
ATOM     10  C   UNL     1      -2.864   2.783  22.700  0.00  0.00    -0.013 C 
ATOM     15  C   UNL     1      -3.870   3.557  21.855  0.00  0.00    +0.007 C 
ATOM     16  C   UNL     1      -2.319   1.585  21.929  0.00  0.00    +0.007 C 
ENDBRANCH   6  10
BRANCH   7  13
ATOM     13  C   UNL     1      -3.267   4.460  25.373  0.00  0.00    +0.112 C 
BRANCH  13   3
ATOM      2  O   UNL     1      -0.430   4.345  24.766  0.00  0.00    -0.276 OA
ATOM      3  N   UNL     1      -2.253   3.753  26.091  0.00  0.00    -0.315 N 
ATOM     19  C   UNL     1      -0.908   3.751  25.728  0.00  0.00    +0.210 C 
ATOM     21  C   UNL     1      -0.052   2.946  26.670  0.00  0.00    +0.109 C 
ATOM     27  H   UNL     1      -2.520   3.276  26.947  0.00  0.00    +0.149 HD
ENDBRANCH  13   3
ENDBRANCH   7  13
BRANCH   9  14
ATOM     14  C   UNL     1      -4.115  -0.280  25.800  0.00  0.00    +0.103 C 
BRANCH  14  18
ATOM      1  O   UNL     1      -3.785  -2.115  24.257  0.00  0.00    -0.276 OA
ATOM      4  N   UNL     1      -1.987  -0.754  24.819  0.00  0.00    -0.311 N 
ATOM     18  C   UNL     1      -3.311  -1.163  24.872  0.00  0.00    +0.214 C 
ATOM     28  H   UNL     1      -1.688   0.050  25.363  0.00  0.00    +0.149 HD
BRANCH   4  20
ATOM     20  C   UNL     1      -0.988  -1.417  24.011  0.00  0.00    +0.141 C 
BRANCH  20  22
ATOM      5  N   UNL     1       1.256   1.626  23.966  0.00  0.00    -0.263 NA
ATOM     22  C   UNL     1       0.152  -0.503  23.664  0.00  0.00    -0.012 A 
ATOM     23  C   UNL     1       1.132  -0.892  22.759  0.00  0.00    +0.008 A 
ATOM     24  C   UNL     1       0.258   0.755  24.235  0.00  0.00    +0.115 A 
ATOM     25  C   UNL     1       2.175  -0.024  22.456  0.00  0.00    +0.020 A 
ATOM     26  C   UNL     1       2.192   1.213  23.080  0.00  0.00    +0.111 A 
ENDBRANCH  20  22
ENDBRANCH   4  20
ENDBRANCH  14  18
ENDBRANCH   9  14
TORSDOF 7
ENDMDL
MODEL 8
REMARK VINA RESULT:      -3.8      1.782      4.944
REMARK  Name = 38028493
REMARK  11 active torsions:
REMARK  status: ('A' for Active; 'I' for Inactive)
REMARK    1  A    between atoms: N_3  and  C_13
REMARK    2  A    between atoms: N_4  and  C_20
REMARK    3  A    between atoms: C_6  and  C_10
REMARK    4  A    between atoms: C_7  and  C_13
REMARK    5  A    between atoms: C_9  and  C_14
REMARK    6  A    between atoms: C_10  and  C_15
REMARK    7  A    between atoms: C_10  and  C_16
REMARK    8  A    between atoms: C_11  and  C_17
REMARK    9  A    between atoms: C_14  and  C_18
REMARK   10  A    between atoms: C_19  and  C_21
REMARK   11  A    between atoms: C_20  and  C_22
REMARK                            x       y       z     vdW  Elec       q    Type
REMARK                         _______ _______ _______ _____ _____    ______ ____
ROOT
ATOM      6  C   UNL     1      -2.548   2.142  23.840  0.00  0.00    +0.000 C 
ATOM      7  C   UNL     1      -1.246   2.825  24.328  0.00  0.00    +0.032 C 
ATOM      8  C   UNL     1      -3.643   3.190  23.595  0.00  0.00    +0.012 C 
ATOM      9  C   UNL     1      -3.965   4.005  24.862  0.00  0.00    +0.023 C 
ATOM     11  C   UNL     1      -2.708   4.490  25.555  0.00  0.00    -0.073 C 
ATOM     12  C   UNL     1      -1.499   3.960  25.294  0.00  0.00    -0.022 C 
ATOM     17  C   UNL     1      -2.863   5.629  26.522  0.00  0.00    +0.039 C 
ENDROOT
BRANCH   6  10
ATOM     10  C   UNL     1      -2.317   1.325  22.565  0.00  0.00    -0.013 C 
ATOM     15  C   UNL     1      -2.499   2.202  21.331  0.00  0.00    +0.007 C 
ATOM     16  C   UNL     1      -3.262   0.128  22.522  0.00  0.00    +0.007 C 
ENDBRANCH   6  10
BRANCH   7  13
ATOM     13  C   UNL     1      -0.297   1.808  24.974  0.00  0.00    +0.112 C 
BRANCH  13   3
ATOM      2  O   UNL     1       0.695  -0.231  23.161  0.00  0.00    -0.276 OA
ATOM      3  N   UNL     1       0.962   1.786  24.296  0.00  0.00    -0.315 N 
ATOM     19  C   UNL     1       1.360   0.763  23.439  0.00  0.00    +0.210 C 
ATOM     21  C   UNL     1       2.720   1.001  22.840  0.00  0.00    +0.109 C 
ATOM     27  H   UNL     1       1.572   2.592  24.398  0.00  0.00    +0.149 HD
ENDBRANCH  13   3
ENDBRANCH   7  13
BRANCH   9  14
ATOM     14  C   UNL     1      -4.846   3.202  25.826  0.00  0.00    +0.103 C 
BRANCH  14  18
ATOM      1  O   UNL     1      -6.148   1.741  24.401  0.00  0.00    -0.276 OA
ATOM      4  N   UNL     1      -4.511   0.835  25.779  0.00  0.00    -0.311 N 
ATOM     18  C   UNL     1      -5.261   1.870  25.240  0.00  0.00    +0.214 C 
ATOM     28  H   UNL     1      -3.794   1.041  26.468  0.00  0.00    +0.149 HD
BRANCH   4  20
ATOM     20  C   UNL     1      -4.692  -0.549  25.404  0.00  0.00    +0.141 C 
BRANCH  20  22
ATOM      5  N   UNL     1      -1.022  -1.386  25.762  0.00  0.00    -0.263 NA
ATOM     22  C   UNL     1      -3.382  -1.266  25.252  0.00  0.00    -0.012 A 
ATOM     23  C   UNL     1      -3.285  -2.430  24.496  0.00  0.00    +0.008 A 
ATOM     24  C   UNL     1      -2.232  -0.790  25.859  0.00  0.00    +0.115 A 
ATOM     25  C   UNL     1      -2.058  -3.072  24.372  0.00  0.00    +0.020 A 
ATOM     26  C   UNL     1      -0.966  -2.515  25.019  0.00  0.00    +0.111 A 
ENDBRANCH  20  22
ENDBRANCH   4  20
ENDBRANCH  14  18
ENDBRANCH   9  14
TORSDOF 7
ENDMDL
MODEL 9
REMARK VINA RESULT:      -3.1      2.066      7.045
REMARK  Name = 38028493
REMARK  11 active torsions:
REMARK  status: ('A' for Active; 'I' for Inactive)
REMARK    1  A    between atoms: N_3  and  C_13
REMARK    2  A    between atoms: N_4  and  C_20
REMARK    3  A    between atoms: C_6  and  C_10
REMARK    4  A    between atoms: C_7  and  C_13
REMARK    5  A    between atoms: C_9  and  C_14
REMARK    6  A    between atoms: C_10  and  C_15
REMARK    7  A    between atoms: C_10  and  C_16
REMARK    8  A    between atoms: C_11  and  C_17
REMARK    9  A    between atoms: C_14  and  C_18
REMARK   10  A    between atoms: C_19  and  C_21
REMARK   11  A    between atoms: C_20  and  C_22
REMARK                            x       y       z     vdW  Elec       q    Type
REMARK                         _______ _______ _______ _____ _____    ______ ____
ROOT
ATOM      6  C   UNL     1      -1.587   3.494  24.974  0.00  0.00    +0.000 C 
ATOM      7  C   UNL     1      -3.123   3.594  24.794  0.00  0.00    +0.032 C 
ATOM      8  C   UNL     1      -0.964   2.690  23.823  0.00  0.00    +0.012 C 
ATOM      9  C   UNL     1      -1.540   1.264  23.728  0.00  0.00    +0.023 C 
ATOM     11  C   UNL     1      -3.052   1.260  23.815  0.00  0.00    -0.073 C 
ATOM     12  C   UNL     1      -3.744   2.315  24.282  0.00  0.00    -0.022 C 
ATOM     17  C   UNL     1      -3.756   0.031  23.312  0.00  0.00    +0.039 C 
ENDROOT
BRANCH   6  10
ATOM     10  C   UNL     1      -0.933   4.876  25.056  0.00  0.00    -0.013 C 
ATOM     15  C   UNL     1      -1.994   5.970  25.006  0.00  0.00    +0.007 C 
ATOM     16  C   UNL     1       0.080   5.053  23.929  0.00  0.00    +0.007 C 
ENDBRANCH   6  10
BRANCH   7  13
ATOM     13  C   UNL     1      -3.807   4.005  26.103  0.00  0.00    +0.112 C 
BRANCH  13   3
ATOM      2  O   UNL     1      -6.576   3.526  25.375  0.00  0.00    -0.276 OA
ATOM      3  N   UNL     1      -4.662   2.962  26.579  0.00  0.00    -0.315 N 
ATOM     19  C   UNL     1      -5.986   2.805  26.175  0.00  0.00    +0.210 C 
ATOM     21  C   UNL     1      -6.650   1.613  26.811  0.00  0.00    +0.109 C 
ATOM     27  H   UNL     1      -4.262   2.263  27.198  0.00  0.00    +0.149 HD
ENDBRANCH  13   3
ENDBRANCH   7  13
BRANCH   9  14
ATOM     14  C   UNL     1      -0.927   0.350  24.796  0.00  0.00    +0.103 C 
BRANCH  14  18
ATOM      1  O   UNL     1       0.257  -1.753  24.610  0.00  0.00    -0.276 OA
ATOM      4  N   UNL     1       0.799  -0.003  23.179  0.00  0.00    -0.311 N 
ATOM     18  C   UNL     1       0.091  -0.603  24.211  0.00  0.00    +0.214 C 
ATOM     28  H   UNL     1       0.588   0.955  22.917  0.00  0.00    +0.149 HD
BRANCH   4  20
ATOM     20  C   UNL     1       1.838  -0.680  22.437  0.00  0.00    +0.141 C 
BRANCH  20  22
ATOM      5  N   UNL     1       5.009   1.190  23.302  0.00  0.00    -0.263 NA
ATOM     22  C   UNL     1       3.204  -0.387  22.987  0.00  0.00    -0.012 A 
ATOM     23  C   UNL     1       3.926  -1.361  23.668  0.00  0.00    +0.008 A 
ATOM     24  C   UNL     1       3.784   0.861  22.833  0.00  0.00    +0.115 A 
ATOM     25  C   UNL     1       5.190  -1.061  24.165  0.00  0.00    +0.020 A 
ATOM     26  C   UNL     1       5.682   0.217  23.958  0.00  0.00    +0.111 A 
ENDBRANCH  20  22
ENDBRANCH   4  20
ENDBRANCH  14  18
ENDBRANCH   9  14
TORSDOF 7
ENDMDL
MODEL 10
REMARK VINA RESULT:      -2.9      2.224      5.921
REMARK  Name = 38028493
REMARK  11 active torsions:
REMARK  status: ('A' for Active; 'I' for Inactive)
REMARK    1  A    between atoms: N_3  and  C_13
REMARK    2  A    between atoms: N_4  and  C_20
REMARK    3  A    between atoms: C_6  and  C_10
REMARK    4  A    between atoms: C_7  and  C_13
REMARK    5  A    between atoms: C_9  and  C_14
REMARK    6  A    between atoms: C_10  and  C_15
REMARK    7  A    between atoms: C_10  and  C_16
REMARK    8  A    between atoms: C_11  and  C_17
REMARK    9  A    between atoms: C_14  and  C_18
REMARK   10  A    between atoms: C_19  and  C_21
REMARK   11  A    between atoms: C_20  and  C_22
REMARK                            x       y       z     vdW  Elec       q    Type
REMARK                         _______ _______ _______ _____ _____    ______ ____
ROOT
ATOM      6  C   UNL     1      -4.969   2.590  25.296  0.00  0.00    +0.000 C 
ATOM      7  C   UNL     1      -4.424   1.440  24.412  0.00  0.00    +0.032 C 
ATOM      8  C   UNL     1      -4.885   3.928  24.546  0.00  0.00    +0.012 C 
ATOM      9  C   UNL     1      -3.442   4.274  24.131  0.00  0.00    +0.023 C 
ATOM     11  C   UNL     1      -2.743   3.093  23.488  0.00  0.00    -0.073 C 
ATOM     12  C   UNL     1      -3.203   1.836  23.614  0.00  0.00    -0.022 C 
ATOM     17  C   UNL     1      -1.526   3.396  22.660  0.00  0.00    +0.039 C 
ENDROOT
BRANCH   6  10
ATOM     10  C   UNL     1      -6.413   2.332  25.737  0.00  0.00    -0.013 C 
ATOM     15  C   UNL     1      -6.439   1.521  27.028  0.00  0.00    +0.007 C 
ATOM     16  C   UNL     1      -7.186   1.616  24.633  0.00  0.00    +0.007 C 
ENDBRANCH   6  10
BRANCH   7  13
ATOM     13  C   UNL     1      -4.103   0.201  25.255  0.00  0.00    +0.112 C 
BRANCH  13   3
ATOM      2  O   UNL     1      -3.251  -2.464  26.029  0.00  0.00    -0.276 OA
ATOM      3  N   UNL     1      -4.084  -0.976  24.442  0.00  0.00    -0.315 N 
ATOM     19  C   UNL     1      -3.657  -2.222  24.896  0.00  0.00    +0.210 C 
ATOM     21  C   UNL     1      -3.763  -3.293  23.844  0.00  0.00    +0.109 C 
ATOM     27  H   UNL     1      -4.461  -0.911  23.501  0.00  0.00    +0.149 HD
ENDBRANCH  13   3
ENDBRANCH   7  13
BRANCH   9  14
ATOM     14  C   UNL     1      -2.637   4.806  25.322  0.00  0.00    +0.103 C 
BRANCH  14  18
ATOM      1  O   UNL     1      -0.255   4.709  24.909  0.00  0.00    -0.276 OA
ATOM      4  N   UNL     1      -1.286   2.983  26.074  0.00  0.00    -0.311 N 
ATOM     18  C   UNL     1      -1.257   4.192  25.395  0.00  0.00    +0.214 C 
ATOM     28  H   UNL     1      -2.166   2.636  26.444  0.00  0.00    +0.149 HD
BRANCH   4  20
ATOM     20  C   UNL     1      -0.109   2.173  26.294  0.00  0.00    +0.141 C 
BRANCH  20  22
ATOM      5  N   UNL     1       1.197   0.592  23.117  0.00  0.00    -0.263 NA
ATOM     22  C   UNL     1       0.101   1.176  25.191  0.00  0.00    -0.012 A 
ATOM     23  C   UNL     1      -0.564  -0.045  25.192  0.00  0.00    +0.008 A 
ATOM     24  C   UNL     1       0.963   1.444  24.140  0.00  0.00    +0.115 A 
ATOM     25  C   UNL     1      -0.350  -0.948  24.157  0.00  0.00    +0.020 A 
ATOM     26  C   UNL     1       0.532  -0.585  23.152  0.00  0.00    +0.111 A 
ENDBRANCH  20  22
ENDBRANCH   4  20
ENDBRANCH  14  18
ENDBRANCH   9  14
TORSDOF 7
ENDMDL
