MODEL 1
REMARK VINA RESULT:      -1.7      0.000      0.000
REMARK  Name = 26744872
REMARK  4 active torsions:
REMARK  status: ('A' for Active; 'I' for Inactive)
REMARK    1  A    between atoms: N_2  and  C_13
REMARK    2  A    between atoms: C_8  and  C_14
REMARK    3  A    between atoms: C_13  and  C_15
REMARK    4  A    between atoms: C_19  and  C_22
REMARK                            x       y       z     vdW  Elec       q    Type
REMARK                         _______ _______ _______ _____ _____    ______ ____
ROOT
ATOM      2  N   UNL     1      -1.735   0.987  25.223  0.00  0.00    -0.281 NA
ATOM      3  N   UNL     1      -0.840   4.529  25.943  0.00  0.00    -0.347 N 
ATOM      4  N   UNL     1      -1.450   4.889  23.822  0.00  0.00    -0.240 NA
ATOM      8  C   UNL     1      -1.487   1.055  23.751  0.00  0.00    +0.152 C 
ATOM      9  C   UNL     1      -1.849   2.468  23.167  0.00  0.00    +0.086 C 
ATOM     10  C   UNL     1      -0.995   1.975  26.037  0.00  0.00    +0.140 C 
ATOM     11  C   UNL     1      -1.104   3.308  25.404  0.00  0.00    +0.053 A 
ATOM     12  C   UNL     1      -1.470   3.553  24.104  0.00  0.00    +0.065 A 
ATOM     16  C   UNL     1      -1.063   5.452  24.950  0.00  0.00    +0.197 A 
ATOM     28  H   UNL     1      -0.534   4.725  26.888  0.00  0.00    +0.167 HD
ENDROOT
BRANCH   8  14
ATOM      1  O   UNL     1      -0.083  -0.104  22.100  0.00  0.00    -0.336 OA
ATOM      5  N   UNL     1       1.044   0.643  23.887  0.00  0.00    -0.190 NA
ATOM      6  N   UNL     1       1.254  -0.470  21.899  0.00  0.00    -0.056 NA
ATOM     14  C   UNL     1      -0.119   0.547  23.293  0.00  0.00    +0.245 A 
ATOM     19  C   UNL     1       1.855   0.005  22.994  0.00  0.00    +0.202 A 
BRANCH  19  22
ATOM      7  N   UNL     1       6.007  -0.421  23.678  0.00  0.00    -0.263 NA
ATOM     22  C   UNL     1       3.263  -0.140  23.226  0.00  0.00    +0.025 A 
ATOM     24  C   UNL     1       3.772  -1.341  23.708  0.00  0.00    +0.031 A 
ATOM     25  C   UNL     1       4.125   0.921  22.969  0.00  0.00    +0.031 A 
ATOM     26  C   UNL     1       5.139  -1.429  23.915  0.00  0.00    +0.111 A 
ATOM     27  C   UNL     1       5.476   0.731  23.209  0.00  0.00    +0.111 A 
ENDBRANCH  19  22
ENDBRANCH   8  14
BRANCH   2  13
ATOM     13  C   UNL     1      -1.626  -0.356  25.783  0.00  0.00    +0.120 C 
BRANCH  13  15
ATOM     15  C   UNL     1      -2.502  -1.341  25.055  0.00  0.00    -0.033 A 
ATOM     17  C   UNL     1      -2.006  -2.602  24.723  0.00  0.00    +0.005 A 
ATOM     18  C   UNL     1      -3.808  -0.992  24.712  0.00  0.00    +0.005 A 
ATOM     20  C   UNL     1      -2.817  -3.514  24.048  0.00  0.00    +0.000 A 
ATOM     21  C   UNL     1      -4.619  -1.904  24.038  0.00  0.00    +0.000 A 
ATOM     23  C   UNL     1      -4.124  -3.165  23.705  0.00  0.00    +0.000 A 
ENDBRANCH  13  15
ENDBRANCH   2  13
TORSDOF 4
ENDMDL
MODEL 2
REMARK VINA RESULT:      -1.6      1.567      5.018
REMARK  Name = 26744872
REMARK  4 active torsions:
REMARK  status: ('A' for Active; 'I' for Inactive)
REMARK    1  A    between atoms: N_2  and  C_13
REMARK    2  A    between atoms: C_8  and  C_14
REMARK    3  A    between atoms: C_13  and  C_15
REMARK    4  A    between atoms: C_19  and  C_22
REMARK                            x       y       z     vdW  Elec       q    Type
REMARK                         _______ _______ _______ _____ _____    ______ ____
ROOT
ATOM      2  N   UNL     1      -2.914   0.817  23.852  0.00  0.00    -0.281 NA
ATOM      3  N   UNL     1      -4.320  -2.622  23.601  0.00  0.00    -0.347 N 
ATOM      4  N   UNL     1      -3.295  -2.953  25.560  0.00  0.00    -0.240 NA
ATOM      8  C   UNL     1      -1.744   0.449  24.706  0.00  0.00    +0.152 C 
ATOM      9  C   UNL     1      -2.094  -0.720  25.697  0.00  0.00    +0.086 C 
ATOM     10  C   UNL     1      -3.464  -0.279  23.025  0.00  0.00    +0.140 C 
ATOM     11  C   UNL     1      -3.602  -1.495  23.856  0.00  0.00    +0.053 A 
ATOM     12  C   UNL     1      -2.978  -1.723  25.057  0.00  0.00    +0.065 A 
ATOM     16  C   UNL     1      -4.104  -3.473  24.657  0.00  0.00    +0.197 A 
ATOM     28  H   UNL     1      -4.899  -2.806  22.791  0.00  0.00    +0.167 HD
ENDROOT
BRANCH   8  14
ATOM      1  O   UNL     1      -0.527  -0.033  22.626  0.00  0.00    -0.336 OA
ATOM      5  N   UNL     1       0.798   0.252  24.410  0.00  0.00    -0.190 NA
ATOM      6  N   UNL     1       0.786  -0.196  22.167  0.00  0.00    -0.056 NA
ATOM     14  C   UNL     1      -0.429   0.229  23.957  0.00  0.00    +0.245 A 
ATOM     19  C   UNL     1       1.509  -0.014  23.276  0.00  0.00    +0.202 A 
BRANCH  19  22
ATOM      7  N   UNL     1       5.732  -0.235  23.302  0.00  0.00    -0.263 NA
ATOM     22  C   UNL     1       2.941  -0.089  23.285  0.00  0.00    +0.025 A 
ATOM     24  C   UNL     1       3.699   0.979  22.816  0.00  0.00    +0.031 A 
ATOM     25  C   UNL     1       3.578  -1.230  23.762  0.00  0.00    +0.031 A 
ATOM     26  C   UNL     1       5.079   0.856  22.846  0.00  0.00    +0.111 A 
ATOM     27  C   UNL     1       4.963  -1.253  23.749  0.00  0.00    +0.111 A 
ENDBRANCH  19  22
ENDBRANCH   8  14
BRANCH   2  13
ATOM     13  C   UNL     1      -2.720   2.032  23.068  0.00  0.00    +0.120 C 
BRANCH  13  15
ATOM     15  C   UNL     1      -2.362   3.208  23.937  0.00  0.00    -0.033 A 
ATOM     17  C   UNL     1      -3.328   3.786  24.761  0.00  0.00    +0.005 A 
ATOM     18  C   UNL     1      -1.065   3.720  23.918  0.00  0.00    +0.005 A 
ATOM     20  C   UNL     1      -2.997   4.876  25.566  0.00  0.00    +0.000 A 
ATOM     21  C   UNL     1      -0.733   4.810  24.723  0.00  0.00    +0.000 A 
ATOM     23  C   UNL     1      -1.699   5.388  25.547  0.00  0.00    +0.000 A 
ENDBRANCH  13  15
ENDBRANCH   2  13
TORSDOF 4
ENDMDL
MODEL 3
REMARK VINA RESULT:      -0.8      2.220      5.319
REMARK  Name = 26744872
REMARK  4 active torsions:
REMARK  status: ('A' for Active; 'I' for Inactive)
REMARK    1  A    between atoms: N_2  and  C_13
REMARK    2  A    between atoms: C_8  and  C_14
REMARK    3  A    between atoms: C_13  and  C_15
REMARK    4  A    between atoms: C_19  and  C_22
REMARK                            x       y       z     vdW  Elec       q    Type
REMARK                         _______ _______ _______ _____ _____    ______ ____
ROOT
ATOM      2  N   UNL     1      -3.870   0.835  24.203  0.00  0.00    -0.281 NA
ATOM      3  N   UNL     1      -4.086  -2.788  23.369  0.00  0.00    -0.347 N 
ATOM      4  N   UNL     1      -3.517  -3.095  25.510  0.00  0.00    -0.240 NA
ATOM      8  C   UNL     1      -2.888   0.683  25.319  0.00  0.00    +0.152 C 
ATOM      9  C   UNL     1      -3.105  -0.660  26.104  0.00  0.00    +0.086 C 
ATOM     10  C   UNL     1      -3.851  -0.245  23.192  0.00  0.00    +0.140 C 
ATOM     11  C   UNL     1      -3.819  -1.555  23.879  0.00  0.00    +0.053 A 
ATOM     12  C   UNL     1      -3.468  -1.768  25.188  0.00  0.00    +0.065 A 
ATOM     16  C   UNL     1      -3.890  -3.685  24.391  0.00  0.00    +0.197 A 
ATOM     28  H   UNL     1      -4.369  -3.009  22.423  0.00  0.00    +0.167 HD
ENDROOT
BRANCH   8  14
ATOM      1  O   UNL     1      -0.742   1.810  25.726  0.00  0.00    -0.336 OA
ATOM      5  N   UNL     1      -0.721   0.422  23.967  0.00  0.00    -0.190 NA
ATOM      6  N   UNL     1       0.552   1.874  25.195  0.00  0.00    -0.056 NA
ATOM     14  C   UNL     1      -1.426   0.932  24.945  0.00  0.00    +0.245 A 
ATOM     19  C   UNL     1       0.486   1.029  24.161  0.00  0.00    +0.202 A 
BRANCH  19  22
ATOM      7  N   UNL     1       3.788   0.260  21.634  0.00  0.00    -0.263 NA
ATOM     22  C   UNL     1       1.606   0.768  23.304  0.00  0.00    +0.025 A 
ATOM     24  C   UNL     1       2.819   1.410  23.526  0.00  0.00    +0.031 A 
ATOM     25  C   UNL     1       1.483  -0.128  22.248  0.00  0.00    +0.031 A 
ATOM     26  C   UNL     1       3.870   1.123  22.670  0.00  0.00    +0.111 A 
ATOM     27  C   UNL     1       2.593  -0.345  21.449  0.00  0.00    +0.111 A 
ENDBRANCH  19  22
ENDBRANCH   8  14
BRANCH   2  13
ATOM     13  C   UNL     1      -3.861   2.152  23.577  0.00  0.00    +0.120 C 
BRANCH  13  15
ATOM     15  C   UNL     1      -3.429   3.227  24.539  0.00  0.00    -0.033 A 
ATOM     17  C   UNL     1      -4.139   3.431  25.723  0.00  0.00    +0.005 A 
ATOM     18  C   UNL     1      -2.318   4.019  24.247  0.00  0.00    +0.005 A 
ATOM     20  C   UNL     1      -3.738   4.427  26.614  0.00  0.00    +0.000 A 
ATOM     21  C   UNL     1      -1.917   5.014  25.138  0.00  0.00    +0.000 A 
ATOM     23  C   UNL     1      -2.627   5.218  26.322  0.00  0.00    +0.000 A 
ENDBRANCH  13  15
ENDBRANCH   2  13
TORSDOF 4
ENDMDL
MODEL 4
REMARK VINA RESULT:      -0.5      3.276      4.533
REMARK  Name = 26744872
REMARK  4 active torsions:
REMARK  status: ('A' for Active; 'I' for Inactive)
REMARK    1  A    between atoms: N_2  and  C_13
REMARK    2  A    between atoms: C_8  and  C_14
REMARK    3  A    between atoms: C_13  and  C_15
REMARK    4  A    between atoms: C_19  and  C_22
REMARK                            x       y       z     vdW  Elec       q    Type
REMARK                         _______ _______ _______ _____ _____    ______ ____
ROOT
ATOM      2  N   UNL     1      -3.401   1.701  23.516  0.00  0.00    -0.281 NA
ATOM      3  N   UNL     1      -5.966   2.289  26.151  0.00  0.00    -0.347 N 
ATOM      4  N   UNL     1      -5.405   4.441  25.916  0.00  0.00    -0.240 NA
ATOM      8  C   UNL     1      -2.580   2.913  23.821  0.00  0.00    +0.152 C 
ATOM      9  C   UNL     1      -3.472   4.113  24.301  0.00  0.00    +0.086 C 
ATOM     10  C   UNL     1      -4.216   1.191  24.640  0.00  0.00    +0.140 C 
ATOM     11  C   UNL     1      -4.912   2.321  25.291  0.00  0.00    +0.053 A 
ATOM     12  C   UNL     1      -4.582   3.648  25.167  0.00  0.00    +0.065 A 
ATOM     16  C   UNL     1      -6.228   3.591  26.500  0.00  0.00    +0.197 A 
ATOM     28  H   UNL     1      -6.462   1.469  26.477  0.00  0.00    +0.167 HD
ENDROOT
BRANCH   8  14
ATOM      1  O   UNL     1      -0.293   2.070  24.132  0.00  0.00    -0.336 OA
ATOM      5  N   UNL     1      -1.193   2.959  25.981  0.00  0.00    -0.190 NA
ATOM      6  N   UNL     1       0.680   1.956  25.133  0.00  0.00    -0.056 NA
ATOM     14  C   UNL     1      -1.363   2.671  24.715  0.00  0.00    +0.245 A 
ATOM     19  C   UNL     1       0.075   2.502  26.192  0.00  0.00    +0.202 A 
BRANCH  19  22
ATOM      7  N   UNL     1       1.945   2.811  29.973  0.00  0.00    -0.263 NA
ATOM     22  C   UNL     1       0.710   2.607  27.474  0.00  0.00    +0.025 A 
ATOM     24  C   UNL     1       2.056   2.945  27.562  0.00  0.00    +0.031 A 
ATOM     25  C   UNL     1      -0.019   2.371  28.635  0.00  0.00    +0.031 A 
ATOM     26  C   UNL     1       2.621   3.033  28.824  0.00  0.00    +0.111 A 
ATOM     27  C   UNL     1       0.639   2.485  29.849  0.00  0.00    +0.111 A 
ENDBRANCH  19  22
ENDBRANCH   8  14
BRANCH   2  13
ATOM     13  C   UNL     1      -2.660   0.629  22.862  0.00  0.00    +0.120 C 
BRANCH  13  15
ATOM     15  C   UNL     1      -2.775  -0.671  23.613  0.00  0.00    -0.033 A 
ATOM     17  C   UNL     1      -3.944  -1.428  23.524  0.00  0.00    +0.005 A 
ATOM     18  C   UNL     1      -1.711  -1.120  24.397  0.00  0.00    +0.005 A 
ATOM     20  C   UNL     1      -4.050  -2.632  24.221  0.00  0.00    +0.000 A 
ATOM     21  C   UNL     1      -1.817  -2.325  25.092  0.00  0.00    +0.000 A 
ATOM     23  C   UNL     1      -2.986  -3.080  25.004  0.00  0.00    +0.000 A 
ENDBRANCH  13  15
ENDBRANCH   2  13
TORSDOF 4
ENDMDL
MODEL 5
REMARK VINA RESULT:       1.1      2.451      6.393
REMARK  Name = 26744872
REMARK  4 active torsions:
REMARK  status: ('A' for Active; 'I' for Inactive)
REMARK    1  A    between atoms: N_2  and  C_13
REMARK    2  A    between atoms: C_8  and  C_14
REMARK    3  A    between atoms: C_13  and  C_15
REMARK    4  A    between atoms: C_19  and  C_22
REMARK                            x       y       z     vdW  Elec       q    Type
REMARK                         _______ _______ _______ _____ _____    ______ ____
ROOT
ATOM      2  N   UNL     1      -0.135  -0.485  25.235  0.00  0.00    -0.281 NA
ATOM      3  N   UNL     1       1.454  -0.880  21.891  0.00  0.00    -0.347 N 
ATOM      4  N   UNL     1       2.522   1.014  22.413  0.00  0.00    -0.240 NA
ATOM      8  C   UNL     1       0.000   1.002  25.301  0.00  0.00    +0.152 C 
ATOM      9  C   UNL     1       1.312   1.498  24.592  0.00  0.00    +0.086 C 
ATOM     10  C   UNL     1      -0.157  -1.058  23.872  0.00  0.00    +0.140 C 
ATOM     11  C   UNL     1       0.927  -0.452  23.070  0.00  0.00    +0.053 A 
ATOM     12  C   UNL     1       1.592   0.712  23.366  0.00  0.00    +0.065 A 
ATOM     16  C   UNL     1       2.413   0.036  21.534  0.00  0.00    +0.197 A 
ATOM     28  H   UNL     1       1.193  -1.709  21.371  0.00  0.00    +0.167 HD
ENDROOT
BRANCH   8  14
ATOM      1  O   UNL     1      -1.315   2.167  23.583  0.00  0.00    -0.336 OA
ATOM      5  N   UNL     1      -2.264   2.171  25.612  0.00  0.00    -0.190 NA
ATOM      6  N   UNL     1      -2.521   2.867  23.448  0.00  0.00    -0.056 NA
ATOM     14  C   UNL     1      -1.243   1.792  24.888  0.00  0.00    +0.245 A 
ATOM     19  C   UNL     1      -3.022   2.827  24.686  0.00  0.00    +0.202 A 
BRANCH  19  22
ATOM      7  N   UNL     1      -6.723   4.605  25.702  0.00  0.00    -0.263 NA
ATOM     22  C   UNL     1      -4.277   3.431  25.030  0.00  0.00    +0.025 A 
ATOM     24  C   UNL     1      -4.447   4.805  24.911  0.00  0.00    +0.031 A 
ATOM     25  C   UNL     1      -5.329   2.642  25.486  0.00  0.00    +0.031 A 
ATOM     26  C   UNL     1      -5.679   5.339  25.256  0.00  0.00    +0.111 A 
ATOM     27  C   UNL     1      -6.520   3.273  25.806  0.00  0.00    +0.111 A 
ENDBRANCH  19  22
ENDBRANCH   8  14
BRANCH   2  13
ATOM     13  C   UNL     1      -1.213  -1.021  26.058  0.00  0.00    +0.120 C 
BRANCH  13  15
ATOM     15  C   UNL     1      -2.386  -1.467  25.226  0.00  0.00    -0.033 A 
ATOM     17  C   UNL     1      -2.438  -2.772  24.736  0.00  0.00    +0.005 A 
ATOM     18  C   UNL     1      -3.422  -0.575  24.946  0.00  0.00    +0.005 A 
ATOM     20  C   UNL     1      -3.525  -3.185  23.965  0.00  0.00    +0.000 A 
ATOM     21  C   UNL     1      -4.509  -0.989  24.176  0.00  0.00    +0.000 A 
ATOM     23  C   UNL     1      -4.560  -2.293  23.685  0.00  0.00    +0.000 A 
ENDBRANCH  13  15
ENDBRANCH   2  13
TORSDOF 4
ENDMDL
MODEL 6
REMARK VINA RESULT:       1.3      2.127      2.905
REMARK  Name = 26744872
REMARK  4 active torsions:
REMARK  status: ('A' for Active; 'I' for Inactive)
REMARK    1  A    between atoms: N_2  and  C_13
REMARK    2  A    between atoms: C_8  and  C_14
REMARK    3  A    between atoms: C_13  and  C_15
REMARK    4  A    between atoms: C_19  and  C_22
REMARK                            x       y       z     vdW  Elec       q    Type
REMARK                         _______ _______ _______ _____ _____    ______ ____
ROOT
ATOM      2  N   UNL     1      -3.807   0.983  23.199  0.00  0.00    -0.281 NA
ATOM      3  N   UNL     1      -5.191   2.552  26.280  0.00  0.00    -0.347 N 
ATOM      4  N   UNL     1      -4.591   4.476  25.311  0.00  0.00    -0.240 NA
ATOM      8  C   UNL     1      -2.842   2.079  22.881  0.00  0.00    +0.152 C 
ATOM      9  C   UNL     1      -3.406   3.487  23.294  0.00  0.00    +0.086 C 
ATOM     10  C   UNL     1      -4.195   0.874  24.622  0.00  0.00    +0.140 C 
ATOM     11  C   UNL     1      -4.520   2.220  25.143  0.00  0.00    +0.053 A 
ATOM     12  C   UNL     1      -4.158   3.413  24.570  0.00  0.00    +0.065 A 
ATOM     16  C   UNL     1      -5.208   3.924  26.337  0.00  0.00    +0.197 A 
ATOM     28  H   UNL     1      -5.596   1.917  26.956  0.00  0.00    +0.167 HD
ENDROOT
BRANCH   8  14
ATOM      1  O   UNL     1      -1.074   2.361  24.565  0.00  0.00    -0.336 OA
ATOM      5  N   UNL     1      -0.429   1.212  22.753  0.00  0.00    -0.190 NA
ATOM      6  N   UNL     1       0.269   2.025  24.775  0.00  0.00    -0.056 NA
ATOM     14  C   UNL     1      -1.406   1.845  23.352  0.00  0.00    +0.245 A 
ATOM     19  C   UNL     1       0.578   1.350  23.664  0.00  0.00    +0.202 A 
BRANCH  19  22
ATOM      7  N   UNL     1       4.422  -0.278  22.985  0.00  0.00    -0.263 NA
ATOM     22  C   UNL     1       1.882   0.798  23.434  0.00  0.00    +0.025 A 
ATOM     24  C   UNL     1       2.927   1.621  23.030  0.00  0.00    +0.031 A 
ATOM     25  C   UNL     1       2.105  -0.563  23.613  0.00  0.00    +0.031 A 
ATOM     26  C   UNL     1       4.167   1.038  22.821  0.00  0.00    +0.111 A 
ATOM     27  C   UNL     1       3.382  -1.047  23.378  0.00  0.00    +0.111 A 
ENDBRANCH  19  22
ENDBRANCH   8  14
BRANCH   2  13
ATOM     13  C   UNL     1      -3.437  -0.315  22.645  0.00  0.00    +0.120 C 
BRANCH  13  15
ATOM     15  C   UNL     1      -3.083  -1.305  23.723  0.00  0.00    -0.033 A 
ATOM     17  C   UNL     1      -3.991  -2.301  24.081  0.00  0.00    +0.005 A 
ATOM     18  C   UNL     1      -1.846  -1.226  24.363  0.00  0.00    +0.005 A 
ATOM     20  C   UNL     1      -3.662  -3.218  25.080  0.00  0.00    +0.000 A 
ATOM     21  C   UNL     1      -1.517  -2.143  25.361  0.00  0.00    +0.000 A 
ATOM     23  C   UNL     1      -2.425  -3.139  25.720  0.00  0.00    +0.000 A 
ENDBRANCH  13  15
ENDBRANCH   2  13
TORSDOF 4
ENDMDL
