MODEL 1
REMARK VINA RESULT:      -2.5      0.000      0.000
REMARK  Name = 28963137
REMARK  10 active torsions:
REMARK  status: ('A' for Active; 'I' for Inactive)
REMARK    1  A    between atoms: O_1  and  C_10
REMARK    2  A    between atoms: N_4  and  C_14
REMARK    3  A    between atoms: N_5  and  C_23
REMARK    4  A    between atoms: N_6  and  C_29
REMARK    5  A    between atoms: C_7  and  C_17
REMARK    6  A    between atoms: C_9  and  C_19
REMARK    7  A    between atoms: C_12  and  C_18
REMARK    8  A    between atoms: C_18  and  C_20
REMARK    9  A    between atoms: C_18  and  C_21
REMARK   10  A    between atoms: C_29  and  C_30
REMARK                            x       y       z     vdW  Elec       q    Type
REMARK                         _______ _______ _______ _____ _____    ______ ____
ROOT
ATOM      7  C   UNL     1      -2.060  -0.807  25.085  0.00  0.00    -0.027 C 
ATOM      8  C   UNL     1      -2.259   0.330  24.026  0.00  0.00    +0.028 C 
ATOM      9  C   UNL     1      -0.909   1.088  23.759  0.00  0.00    +0.012 C 
ATOM     10  C   UNL     1      -3.472   1.234  24.392  0.00  0.00    +0.122 C 
ATOM     11  C   UNL     1      -3.377  -1.603  25.239  0.00  0.00    +0.007 C 
ATOM     12  C   UNL     1      -4.762   0.422  24.648  0.00  0.00    +0.029 C 
ATOM     13  C   UNL     1      -0.976  -1.784  24.575  0.00  0.00    +0.009 C 
ATOM     14  C   UNL     1       0.194   0.083  23.320  0.00  0.00    +0.078 C 
ATOM     15  C   UNL     1      -4.558  -0.726  25.636  0.00  0.00    +0.007 C 
ATOM     16  C   UNL     1       0.350  -1.102  24.273  0.00  0.00    +0.023 C 
ATOM     17  C   UNL     1      -1.642  -0.259  26.472  0.00  0.00    +0.011 C 
ATOM     19  C   UNL     1      -1.027   2.202  22.705  0.00  0.00    +0.010 C 
ENDROOT
BRANCH  14   4
ATOM      3  O   UNL     1       2.772  -1.199  23.122  0.00  0.00    -0.253 OA
ATOM      4  N   UNL     1       1.481   0.730  23.177  0.00  0.00    -0.296 N 
ATOM      6  N   UNL     1       3.761   0.893  22.958  0.00  0.00    -0.300 N 
ATOM     22  C   UNL     1       2.678   0.027  23.089  0.00  0.00    +0.300 C 
ATOM     31  H   UNL     1       1.520   1.744  23.223  0.00  0.00    +0.151 HD
ATOM     34  H   UNL     1       3.586   1.893  22.928  0.00  0.00    +0.150 HD
BRANCH   6  29
ATOM     29  C   UNL     1       5.124   0.430  22.846  0.00  0.00    +0.102 C 
ATOM     30  C   UNL     1       5.678   0.006  24.190  0.00  0.00    +0.024 C 
ENDBRANCH   6  29
ENDBRANCH  14   4
BRANCH  10   1
ATOM      1  O   UNL     1      -3.753   2.117  23.304  0.00  0.00    -0.391 OA
ATOM     32  H   UNL     1      -3.147   2.875  23.366  0.00  0.00    +0.210 HD
ENDBRANCH  10   1
BRANCH  12  18
ATOM     18  C   UNL     1      -5.911   1.316  25.133  0.00  0.00    +0.077 C 
ATOM     20  C   UNL     1      -6.612   1.962  23.943  0.00  0.00    +0.017 C 
BRANCH  18  21
ATOM      2  O   UNL     1      -5.841   2.524  27.230  0.00  0.00    -0.276 OA
ATOM      5  N   UNL     1      -4.331   3.102  25.567  0.00  0.00    -0.312 N 
ATOM     21  C   UNL     1      -5.378   2.366  26.103  0.00  0.00    +0.216 C 
ATOM     33  H   UNL     1      -3.998   2.889  24.632  0.00  0.00    +0.149 HD
BRANCH   5  23
ATOM     23  C   UNL     1      -3.663   4.157  26.297  0.00  0.00    +0.073 C 
ATOM     24  C   UNL     1      -2.449   3.616  27.059  0.00  0.00    +0.022 C 
ATOM     25  C   UNL     1      -3.265   5.306  25.364  0.00  0.00    +0.022 C 
ATOM     26  C   UNL     1      -1.292   3.246  26.130  0.00  0.00    +0.002 C 
ATOM     27  C   UNL     1      -2.107   4.934  24.438  0.00  0.00    +0.002 C 
ATOM     28  C   UNL     1      -0.907   4.408  25.220  0.00  0.00    +0.000 C 
ENDBRANCH   5  23
ENDBRANCH  18  21
ENDBRANCH  12  18
TORSDOF 6
ENDMDL
