MODEL 1
REMARK VINA RESULT:       1.2      0.000      0.000
REMARK  Name = 25389536
REMARK  13 active torsions:
REMARK  status: ('A' for Active; 'I' for Inactive)
REMARK    1  A    between atoms: O_1  and  C_17
REMARK    2  A    between atoms: O_1  and  C_22
REMARK    3  A    between atoms: O_3  and  C_26
REMARK    4  A    between atoms: O_3  and  C_31
REMARK    5  A    between atoms: O_4  and  C_28
REMARK    6  A    between atoms: O_4  and  C_32
REMARK    7  A    between atoms: N_6  and  C_20
REMARK    8  A    between atoms: N_8  and  C_25
REMARK    9  A    between atoms: C_10  and  C_16
REMARK   10  A    between atoms: C_11  and  C_17
REMARK   11  A    between atoms: C_19  and  C_21
REMARK   12  A    between atoms: C_25  and  C_29
REMARK   13  A    between atoms: C_29  and  C_30
REMARK                            x       y       z     vdW  Elec       q    Type
REMARK                         _______ _______ _______ _____ _____    ______ ____
ROOT
ATOM      5  N   UNL     1      -5.083   2.416  26.223  0.00  0.00    -0.296 NA
ATOM      9  C   UNL     1      -4.692   1.628  23.771  0.00  0.00    +0.002 C 
ATOM     10  C   UNL     1      -4.025   0.644  24.771  0.00  0.00    +0.055 C 
ATOM     11  C   UNL     1      -4.569   3.544  25.403  0.00  0.00    +0.095 C 
ATOM     12  C   UNL     1      -4.136   3.049  24.005  0.00  0.00    +0.026 C 
ATOM     13  C   UNL     1      -6.195   1.666  24.120  0.00  0.00    +0.019 C 
ATOM     14  C   UNL     1      -4.126   1.283  26.186  0.00  0.00    +0.094 C 
ATOM     15  C   UNL     1      -6.360   1.962  25.621  0.00  0.00    +0.085 C 
ENDROOT
BRANCH  10  16
ATOM      6  N   UNL     1      -2.285  -1.175  24.447  0.00  0.00    -0.270 N 
ATOM      7  N   UNL     1      -0.995  -1.406  24.151  0.00  0.00    -0.171 NA
ATOM     16  C   UNL     1      -2.620   0.147  24.461  0.00  0.00    +0.044 A 
ATOM     18  C   UNL     1      -1.469   0.829  24.153  0.00  0.00    +0.053 A 
ATOM     19  C   UNL     1      -0.501  -0.178  23.973  0.00  0.00    +0.093 A 
ATOM     20  C   UNL     1      -3.159  -2.294  24.713  0.00  0.00    +0.172 C 
BRANCH  19  21
ATOM     21  C   UNL     1       0.885   0.011  23.635  0.00  0.00    +0.006 A 
ATOM     23  C   UNL     1       1.768  -1.067  23.678  0.00  0.00    +0.059 A 
ATOM     24  C   UNL     1       1.346   1.275  23.264  0.00  0.00    +0.014 A 
ATOM     26  C   UNL     1       3.111  -0.884  23.351  0.00  0.00    +0.162 A 
ATOM     27  C   UNL     1       2.690   1.458  22.936  0.00  0.00    +0.050 A 
ATOM     28  C   UNL     1       3.572   0.380  22.980  0.00  0.00    +0.162 A 
BRANCH  26   3
ATOM      3  O   UNL     1       3.964  -1.946  23.397  0.00  0.00    -0.491 OA
ATOM     31  C   UNL     1       5.151  -1.791  24.172  0.00  0.00    +0.277 C 
ENDBRANCH  26   3
BRANCH  28   4
ATOM      4  O   UNL     1       4.882   0.571  22.657  0.00  0.00    -0.491 OA
ATOM     32  C   UNL     1       5.774   0.874  23.728  0.00  0.00    +0.277 C 
ENDBRANCH  28   4
ENDBRANCH  19  21
ENDBRANCH  10  16
BRANCH  11  17
ATOM     17  C   UNL     1      -3.449   4.313  26.107  0.00  0.00    +0.252 C 
BRANCH  17   1
ATOM      1  O   UNL     1      -2.577   4.835  25.121  0.00  0.00    -0.449 OA
BRANCH   1  22
ATOM      2  O   UNL     1      -0.339   5.076  24.664  0.00  0.00    -0.226 OA
ATOM      8  N   UNL     1      -1.117   3.371  26.033  0.00  0.00    -0.281 N 
ATOM     22  C   UNL     1      -1.254   4.479  25.223  0.00  0.00    +0.400 C 
ATOM     33  H   UNL     1      -1.956   2.971  26.440  0.00  0.00    +0.152 HD
BRANCH   8  25
ATOM     25  C   UNL     1       0.152   2.753  26.337  0.00  0.00    +0.107 C 
BRANCH  25  29
ATOM     29  C   UNL     1       0.248   2.310  27.792  0.00  0.00    +0.015 C 
ATOM     30  C   UNL     1       1.574   2.689  28.436  0.00  0.00    +0.005 C 
ENDBRANCH  25  29
ENDBRANCH   8  25
ENDBRANCH   1  22
ENDBRANCH  17   1
ENDBRANCH  11  17
TORSDOF 9
ENDMDL
MODEL 2
REMARK VINA RESULT:       1.9      0.915      1.544
REMARK  Name = 25389536
REMARK  13 active torsions:
REMARK  status: ('A' for Active; 'I' for Inactive)
REMARK    1  A    between atoms: O_1  and  C_17
REMARK    2  A    between atoms: O_1  and  C_22
REMARK    3  A    between atoms: O_3  and  C_26
REMARK    4  A    between atoms: O_3  and  C_31
REMARK    5  A    between atoms: O_4  and  C_28
REMARK    6  A    between atoms: O_4  and  C_32
REMARK    7  A    between atoms: N_6  and  C_20
REMARK    8  A    between atoms: N_8  and  C_25
REMARK    9  A    between atoms: C_10  and  C_16
REMARK   10  A    between atoms: C_11  and  C_17
REMARK   11  A    between atoms: C_19  and  C_21
REMARK   12  A    between atoms: C_25  and  C_29
REMARK   13  A    between atoms: C_29  and  C_30
REMARK                            x       y       z     vdW  Elec       q    Type
REMARK                         _______ _______ _______ _____ _____    ______ ____
ROOT
ATOM      5  N   UNL     1      -4.885   2.691  26.289  0.00  0.00    -0.296 NA
ATOM      9  C   UNL     1      -4.839   1.636  23.908  0.00  0.00    +0.002 C 
ATOM     10  C   UNL     1      -4.262   0.643  24.954  0.00  0.00    +0.055 C 
ATOM     11  C   UNL     1      -4.262   3.637  25.327  0.00  0.00    +0.095 C 
ATOM     12  C   UNL     1      -4.038   2.954  23.960  0.00  0.00    +0.026 C 
ATOM     13  C   UNL     1      -6.280   1.964  24.354  0.00  0.00    +0.019 C 
ATOM     14  C   UNL     1      -4.136   1.410  26.301  0.00  0.00    +0.094 C 
ATOM     15  C   UNL     1      -6.266   2.414  25.825  0.00  0.00    +0.085 C 
ENDROOT
BRANCH  10  16
ATOM      6  N   UNL     1      -2.982  -1.435  24.256  0.00  0.00    -0.270 N 
ATOM      7  N   UNL     1      -1.759  -1.918  23.980  0.00  0.00    -0.171 NA
ATOM     16  C   UNL     1      -2.990  -0.115  24.600  0.00  0.00    +0.044 A 
ATOM     18  C   UNL     1      -1.681   0.295  24.545  0.00  0.00    +0.053 A 
ATOM     19  C   UNL     1      -0.969  -0.856  24.158  0.00  0.00    +0.093 A 
ATOM     20  C   UNL     1      -4.124  -2.316  24.171  0.00  0.00    +0.172 C 
BRANCH  19  21
ATOM     21  C   UNL     1       0.454  -0.961  23.957  0.00  0.00    +0.006 A 
ATOM     23  C   UNL     1       1.093  -0.120  23.047  0.00  0.00    +0.059 A 
ATOM     24  C   UNL     1       1.191  -1.905  24.672  0.00  0.00    +0.014 A 
ATOM     26  C   UNL     1       2.471  -0.222  22.852  0.00  0.00    +0.162 A 
ATOM     27  C   UNL     1       2.569  -2.007  24.477  0.00  0.00    +0.050 A 
ATOM     28  C   UNL     1       3.208  -1.166  23.567  0.00  0.00    +0.162 A 
BRANCH  26   3
ATOM      3  O   UNL     1       3.085   0.606  21.961  0.00  0.00    -0.491 OA
ATOM     31  C   UNL     1       3.892   1.652  22.497  0.00  0.00    +0.277 C 
ENDBRANCH  26   3
BRANCH  28   4
ATOM      4  O   UNL     1       4.554  -1.274  23.385  0.00  0.00    -0.491 OA
ATOM     32  C   UNL     1       5.391  -0.618  24.336  0.00  0.00    +0.277 C 
ENDBRANCH  28   4
ENDBRANCH  19  21
ENDBRANCH  10  16
BRANCH  11  17
ATOM     17  C   UNL     1      -2.975   4.259  25.872  0.00  0.00    +0.252 C 
BRANCH  17   1
ATOM      1  O   UNL     1      -2.054   4.386  24.805  0.00  0.00    -0.449 OA
BRANCH   1  22
ATOM      2  O   UNL     1      -0.084   3.519  24.002  0.00  0.00    -0.226 OA
ATOM      8  N   UNL     1      -0.733   3.205  26.208  0.00  0.00    -0.281 N 
ATOM     22  C   UNL     1      -0.878   3.684  24.923  0.00  0.00    +0.400 C 
ATOM     33  H   UNL     1      -1.464   3.415  26.880  0.00  0.00    +0.152 HD
BRANCH   8  25
ATOM     25  C   UNL     1       0.400   2.427  26.650  0.00  0.00    +0.107 C 
BRANCH  25  29
ATOM     29  C   UNL     1       0.551   2.431  28.167  0.00  0.00    +0.015 C 
ATOM     30  C   UNL     1       1.964   2.776  28.615  0.00  0.00    +0.005 C 
ENDBRANCH  25  29
ENDBRANCH   8  25
ENDBRANCH   1  22
ENDBRANCH  17   1
ENDBRANCH  11  17
TORSDOF 9
ENDMDL
MODEL 3
REMARK VINA RESULT:       2.2      2.149      4.005
REMARK  Name = 25389536
REMARK  13 active torsions:
REMARK  status: ('A' for Active; 'I' for Inactive)
REMARK    1  A    between atoms: O_1  and  C_17
REMARK    2  A    between atoms: O_1  and  C_22
REMARK    3  A    between atoms: O_3  and  C_26
REMARK    4  A    between atoms: O_3  and  C_31
REMARK    5  A    between atoms: O_4  and  C_28
REMARK    6  A    between atoms: O_4  and  C_32
REMARK    7  A    between atoms: N_6  and  C_20
REMARK    8  A    between atoms: N_8  and  C_25
REMARK    9  A    between atoms: C_10  and  C_16
REMARK   10  A    between atoms: C_11  and  C_17
REMARK   11  A    between atoms: C_19  and  C_21
REMARK   12  A    between atoms: C_25  and  C_29
REMARK   13  A    between atoms: C_29  and  C_30
REMARK                            x       y       z     vdW  Elec       q    Type
REMARK                         _______ _______ _______ _____ _____    ______ ____
ROOT
ATOM      5  N   UNL     1      -5.714   2.377  24.451  0.00  0.00    -0.296 NA
ATOM      9  C   UNL     1      -4.023   3.816  25.812  0.00  0.00    +0.002 C 
ATOM     10  C   UNL     1      -3.481   3.548  24.381  0.00  0.00    +0.055 C 
ATOM     11  C   UNL     1      -5.461   1.748  25.773  0.00  0.00    +0.095 C 
ATOM     12  C   UNL     1      -4.311   2.470  26.509  0.00  0.00    +0.026 C 
ATOM     13  C   UNL     1      -5.377   4.539  25.646  0.00  0.00    +0.019 C 
ATOM     14  C   UNL     1      -4.439   2.525  23.706  0.00  0.00    +0.094 C 
ATOM     15  C   UNL     1      -6.270   3.730  24.689  0.00  0.00    +0.085 C 
ENDROOT
BRANCH  10  16
ATOM      6  N   UNL     1      -0.987   4.009  24.492  0.00  0.00    -0.270 N 
ATOM      7  N   UNL     1       0.229   3.470  24.296  0.00  0.00    -0.171 NA
ATOM     16  C   UNL     1      -2.017   3.155  24.230  0.00  0.00    +0.044 A 
ATOM     18  C   UNL     1      -1.436   1.975  23.835  0.00  0.00    +0.053 A 
ATOM     19  C   UNL     1      -0.052   2.228  23.895  0.00  0.00    +0.093 A 
ATOM     20  C   UNL     1      -1.088   5.379  24.938  0.00  0.00    +0.172 C 
BRANCH  19  21
ATOM     21  C   UNL     1       1.006   1.306  23.575  0.00  0.00    +0.006 A 
ATOM     23  C   UNL     1       2.323   1.756  23.489  0.00  0.00    +0.059 A 
ATOM     24  C   UNL     1       0.714  -0.040  23.350  0.00  0.00    +0.014 A 
ATOM     26  C   UNL     1       3.348   0.863  23.179  0.00  0.00    +0.162 A 
ATOM     27  C   UNL     1       1.739  -0.934  23.040  0.00  0.00    +0.050 A 
ATOM     28  C   UNL     1       3.055  -0.483  22.954  0.00  0.00    +0.162 A 
BRANCH  26   3
ATOM      3  O   UNL     1       4.630   1.315  23.099  0.00  0.00    -0.491 OA
ATOM     31  C   UNL     1       5.554   0.819  24.065  0.00  0.00    +0.277 C 
ENDBRANCH  26   3
BRANCH  28   4
ATOM      4  O   UNL     1       4.048  -1.365  22.651  0.00  0.00    -0.491 OA
ATOM     32  C   UNL     1       4.639  -2.074  23.739  0.00  0.00    +0.277 C 
ENDBRANCH  28   4
ENDBRANCH  19  21
ENDBRANCH  10  16
BRANCH  11  17
ATOM     17  C   UNL     1      -5.213   0.242  25.665  0.00  0.00    +0.252 C 
BRANCH  17   1
ATOM      1  O   UNL     1      -4.883  -0.061  24.323  0.00  0.00    -0.449 OA
BRANCH   1  22
ATOM      2  O   UNL     1      -4.644  -2.208  23.540  0.00  0.00    -0.226 OA
ATOM      8  N   UNL     1      -2.909  -1.117  24.628  0.00  0.00    -0.281 N 
ATOM     22  C   UNL     1      -4.183  -1.224  24.111  0.00  0.00    +0.400 C 
ATOM     33  H   UNL     1      -2.647  -0.244  25.075  0.00  0.00    +0.152 HD
BRANCH   8  25
ATOM     25  C   UNL     1      -1.926  -2.174  24.564  0.00  0.00    +0.107 C 
BRANCH  25  29
ATOM     29  C   UNL     1      -0.766  -1.947  25.526  0.00  0.00    +0.015 C 
ATOM     30  C   UNL     1      -0.927  -0.679  26.351  0.00  0.00    +0.005 C 
ENDBRANCH  25  29
ENDBRANCH   8  25
ENDBRANCH   1  22
ENDBRANCH  17   1
ENDBRANCH  11  17
TORSDOF 9
ENDMDL
MODEL 4
REMARK VINA RESULT:       3.8      2.290      3.625
REMARK  Name = 25389536
REMARK  13 active torsions:
REMARK  status: ('A' for Active; 'I' for Inactive)
REMARK    1  A    between atoms: O_1  and  C_17
REMARK    2  A    between atoms: O_1  and  C_22
REMARK    3  A    between atoms: O_3  and  C_26
REMARK    4  A    between atoms: O_3  and  C_31
REMARK    5  A    between atoms: O_4  and  C_28
REMARK    6  A    between atoms: O_4  and  C_32
REMARK    7  A    between atoms: N_6  and  C_20
REMARK    8  A    between atoms: N_8  and  C_25
REMARK    9  A    between atoms: C_10  and  C_16
REMARK   10  A    between atoms: C_11  and  C_17
REMARK   11  A    between atoms: C_19  and  C_21
REMARK   12  A    between atoms: C_25  and  C_29
REMARK   13  A    between atoms: C_29  and  C_30
REMARK                            x       y       z     vdW  Elec       q    Type
REMARK                         _______ _______ _______ _____ _____    ______ ____
ROOT
ATOM      5  N   UNL     1      -4.860   3.653  24.678  0.00  0.00    -0.296 NA
ATOM      9  C   UNL     1      -2.639   3.592  26.036  0.00  0.00    +0.002 C 
ATOM     10  C   UNL     1      -2.344   3.600  24.511  0.00  0.00    +0.055 C 
ATOM     11  C   UNL     1      -4.920   2.577  25.702  0.00  0.00    +0.095 C 
ATOM     12  C   UNL     1      -3.543   2.389  26.375  0.00  0.00    +0.026 C 
ATOM     13  C   UNL     1      -3.452   4.870  26.338  0.00  0.00    +0.019 C 
ATOM     14  C   UNL     1      -3.704   3.432  23.775  0.00  0.00    +0.094 C 
ATOM     15  C   UNL     1      -4.656   4.941  25.383  0.00  0.00    +0.085 C 
ENDROOT
BRANCH  10  16
ATOM      6  N   UNL     1      -1.569   1.568  23.201  0.00  0.00    -0.270 N 
ATOM      7  N   UNL     1      -0.490   0.855  22.836  0.00  0.00    -0.171 NA
ATOM     16  C   UNL     1      -1.279   2.649  23.980  0.00  0.00    +0.044 A 
ATOM     18  C   UNL     1       0.085   2.644  24.136  0.00  0.00    +0.053 A 
ATOM     19  C   UNL     1       0.517   1.517  23.411  0.00  0.00    +0.093 A 
ATOM     20  C   UNL     1      -2.878   1.144  22.759  0.00  0.00    +0.172 C 
BRANCH  19  21
ATOM     21  C   UNL     1       1.874   1.062  23.257  0.00  0.00    +0.006 A 
ATOM     23  C   UNL     1       2.178  -0.290  23.413  0.00  0.00    +0.059 A 
ATOM     24  C   UNL     1       2.886   1.973  22.954  0.00  0.00    +0.014 A 
ATOM     26  C   UNL     1       3.493  -0.732  23.264  0.00  0.00    +0.162 A 
ATOM     27  C   UNL     1       4.201   1.532  22.805  0.00  0.00    +0.050 A 
ATOM     28  C   UNL     1       4.505   0.180  22.960  0.00  0.00    +0.162 A 
BRANCH  26   3
ATOM      3  O   UNL     1       3.778  -2.055  23.417  0.00  0.00    -0.491 OA
ATOM     31  C   UNL     1       4.819  -2.392  24.331  0.00  0.00    +0.277 C 
ENDBRANCH  26   3
BRANCH  28   4
ATOM      4  O   UNL     1       5.793  -0.239  22.813  0.00  0.00    -0.491 OA
ATOM     32  C   UNL     1       6.748   0.265  23.744  0.00  0.00    +0.277 C 
ENDBRANCH  28   4
ENDBRANCH  19  21
ENDBRANCH  10  16
BRANCH  11  17
ATOM     17  C   UNL     1      -5.463   1.264  25.136  0.00  0.00    +0.252 C 
BRANCH  17   1
ATOM      1  O   UNL     1      -4.756   0.193  25.734  0.00  0.00    -0.449 OA
BRANCH   1  22
ATOM      2  O   UNL     1      -4.780  -0.978  23.758  0.00  0.00    -0.226 OA
ATOM      8  N   UNL     1      -3.410  -1.610  25.521  0.00  0.00    -0.281 N 
ATOM     22  C   UNL     1      -4.352  -0.819  24.897  0.00  0.00    +0.400 C 
ATOM     33  H   UNL     1      -3.137  -1.368  26.468  0.00  0.00    +0.152 HD
BRANCH   8  25
ATOM     25  C   UNL     1      -2.790  -2.758  24.902  0.00  0.00    +0.107 C 
BRANCH  25  29
ATOM     29  C   UNL     1      -1.354  -2.480  24.472  0.00  0.00    +0.015 C 
ATOM     30  C   UNL     1      -0.680  -1.417  25.327  0.00  0.00    +0.005 C 
ENDBRANCH  25  29
ENDBRANCH   8  25
ENDBRANCH   1  22
ENDBRANCH  17   1
ENDBRANCH  11  17
TORSDOF 9
ENDMDL
