MODEL 1
REMARK VINA RESULT:      -3.1      0.000      0.000
REMARK  Name = 45783570
REMARK  9 active torsions:
REMARK  status: ('A' for Active; 'I' for Inactive)
REMARK    1  A    between atoms: O_2  and  C_22
REMARK    2  A    between atoms: O_2  and  C_23
REMARK    3  A    between atoms: O_3  and  C_24
REMARK    4  A    between atoms: O_3  and  C_25
REMARK    5  A    between atoms: N_4  and  C_11
REMARK    6  A    between atoms: C_8  and  C_11
REMARK    7  A    between atoms: C_12  and  C_16
REMARK    8  A    between atoms: C_17  and  C_18
REMARK    9  A    between atoms: C_23  and  C_24
REMARK                            x       y       z     vdW  Elec       q    Type
REMARK                         _______ _______ _______ _____ _____    ______ ____
ROOT
ATOM      1  O   UNL     1      -2.888  -0.581  24.901  0.00  0.00    -0.336 OA
ATOM      5  N   UNL     1      -1.777   1.349  24.657  0.00  0.00    -0.190 NA
ATOM      6  N   UNL     1      -1.663  -0.909  24.307  0.00  0.00    -0.056 NA
ATOM     16  C   UNL     1      -2.873   0.768  25.073  0.00  0.00    +0.245 A 
ATOM     17  C   UNL     1      -1.065   0.281  24.196  0.00  0.00    +0.204 A 
ENDROOT
BRANCH  17  18
ATOM      7  N   UNL     1       2.293   1.710  23.481  0.00  0.00    -0.221 NA
ATOM     18  C   UNL     1       0.243   0.436  23.629  0.00  0.00    +0.041 A 
ATOM     19  C   UNL     1       0.739  -0.481  22.709  0.00  0.00    +0.018 A 
ATOM     20  C   UNL     1       1.052   1.506  23.978  0.00  0.00    +0.126 A 
ATOM     21  C   UNL     1       2.011  -0.305  22.175  0.00  0.00    +0.068 A 
ATOM     22  C   UNL     1       2.741   0.798  22.590  0.00  0.00    +0.215 A 
BRANCH  22   2
ATOM      2  O   UNL     1       3.998   0.994  22.079  0.00  0.00    -0.474 OA
BRANCH   2  23
ATOM     23  C   UNL     1       5.002   0.070  22.480  0.00  0.00    +0.258 C 
BRANCH  23  24
ATOM     24  C   UNL     1       5.472   0.427  23.877  0.00  0.00    +0.200 C 
BRANCH  24   3
ATOM      3  O   UNL     1       5.483  -0.749  24.678  0.00  0.00    -0.380 OA
ATOM     25  C   UNL     1       4.786  -1.814  24.047  0.00  0.00    +0.194 C 
ENDBRANCH  24   3
ENDBRANCH  23  24
ENDBRANCH   2  23
ENDBRANCH  22   2
ENDBRANCH  17  18
BRANCH  16  12
ATOM      4  N   UNL     1      -4.212   2.831  25.455  0.00  0.00    -0.291 NA
ATOM     12  C   UNL     1      -4.105   1.380  25.708  0.00  0.00    +0.146 C 
ATOM     13  C   UNL     1      -5.641   3.145  25.456  0.00  0.00    +0.085 C 
ATOM     14  C   UNL     1      -5.415   0.788  25.156  0.00  0.00    +0.030 C 
ATOM     15  C   UNL     1      -6.218   1.985  24.671  0.00  0.00    +0.017 C 
BRANCH   4  11
ATOM     11  C   UNL     1      -3.472   3.638  26.416  0.00  0.00    +0.088 C 
BRANCH  11   8
ATOM      8  C   UNL     1      -2.733   4.747  25.738  0.00  0.00    +0.003 C 
ATOM      9  C   UNL     1      -2.332   4.590  24.301  0.00  0.00    +0.005 C 
ATOM     10  C   UNL     1      -1.289   4.553  25.379  0.00  0.00    +0.005 C 
ENDBRANCH  11   8
ENDBRANCH   4  11
ENDBRANCH  16  12
TORSDOF 8
ENDMDL
MODEL 2
REMARK VINA RESULT:      -2.6      1.433      2.808
REMARK  Name = 45783570
REMARK  9 active torsions:
REMARK  status: ('A' for Active; 'I' for Inactive)
REMARK    1  A    between atoms: O_2  and  C_22
REMARK    2  A    between atoms: O_2  and  C_23
REMARK    3  A    between atoms: O_3  and  C_24
REMARK    4  A    between atoms: O_3  and  C_25
REMARK    5  A    between atoms: N_4  and  C_11
REMARK    6  A    between atoms: C_8  and  C_11
REMARK    7  A    between atoms: C_12  and  C_16
REMARK    8  A    between atoms: C_17  and  C_18
REMARK    9  A    between atoms: C_23  and  C_24
REMARK                            x       y       z     vdW  Elec       q    Type
REMARK                         _______ _______ _______ _____ _____    ______ ____
ROOT
ATOM      1  O   UNL     1      -2.098   1.180  25.604  0.00  0.00    -0.336 OA
ATOM      5  N   UNL     1      -1.632   1.501  23.437  0.00  0.00    -0.190 NA
ATOM      6  N   UNL     1      -0.732   0.912  25.455  0.00  0.00    -0.056 NA
ATOM     16  C   UNL     1      -2.551   1.519  24.368  0.00  0.00    +0.245 A 
ATOM     17  C   UNL     1      -0.533   1.123  24.151  0.00  0.00    +0.204 A 
ENDROOT
BRANCH  17  18
ATOM      7  N   UNL     1       2.976   1.823  23.140  0.00  0.00    -0.221 NA
ATOM     18  C   UNL     1       0.750   0.964  23.531  0.00  0.00    +0.041 A 
ATOM     19  C   UNL     1       1.033  -0.147  22.744  0.00  0.00    +0.018 A 
ATOM     20  C   UNL     1       1.747   1.913  23.696  0.00  0.00    +0.126 A 
ATOM     21  C   UNL     1       2.286  -0.274  22.154  0.00  0.00    +0.068 A 
ATOM     22  C   UNL     1       3.214   0.730  22.381  0.00  0.00    +0.215 A 
BRANCH  22   2
ATOM      2  O   UNL     1       4.457   0.628  21.811  0.00  0.00    -0.474 OA
BRANCH   2  23
ATOM     23  C   UNL     1       5.409  -0.180  22.494  0.00  0.00    +0.258 C 
BRANCH  23  24
ATOM     24  C   UNL     1       5.568   0.336  23.911  0.00  0.00    +0.200 C 
BRANCH  24   3
ATOM      3  O   UNL     1       5.389  -0.743  24.821  0.00  0.00    -0.380 OA
ATOM     25  C   UNL     1       4.846  -1.885  24.173  0.00  0.00    +0.194 C 
ENDBRANCH  24   3
ENDBRANCH  23  24
ENDBRANCH   2  23
ENDBRANCH  22   2
ENDBRANCH  17  18
BRANCH  16  12
ATOM      4  N   UNL     1      -4.863   1.047  25.161  0.00  0.00    -0.291 NA
ATOM     12  C   UNL     1      -4.023   1.862  24.260  0.00  0.00    +0.146 C 
ATOM     13  C   UNL     1      -6.023   1.871  25.500  0.00  0.00    +0.085 C 
ATOM     14  C   UNL     1      -4.325   3.320  24.654  0.00  0.00    +0.030 C 
ATOM     15  C   UNL     1      -5.387   3.226  25.739  0.00  0.00    +0.017 C 
BRANCH   4  11
ATOM     11  C   UNL     1      -5.249  -0.233  24.584  0.00  0.00    +0.088 C 
BRANCH  11   8
ATOM      8  C   UNL     1      -4.051  -1.026  24.171  0.00  0.00    +0.003 C 
ATOM      9  C   UNL     1      -4.211  -2.484  23.854  0.00  0.00    +0.005 C 
ATOM     10  C   UNL     1      -3.500  -2.062  25.106  0.00  0.00    +0.005 C 
ENDBRANCH  11   8
ENDBRANCH   4  11
ENDBRANCH  16  12
TORSDOF 8
ENDMDL
MODEL 3
REMARK VINA RESULT:      -1.0     16.941     18.971
REMARK  Name = 45783570
REMARK  9 active torsions:
REMARK  status: ('A' for Active; 'I' for Inactive)
REMARK    1  A    between atoms: O_2  and  C_22
REMARK    2  A    between atoms: O_2  and  C_23
REMARK    3  A    between atoms: O_3  and  C_24
REMARK    4  A    between atoms: O_3  and  C_25
REMARK    5  A    between atoms: N_4  and  C_11
REMARK    6  A    between atoms: C_8  and  C_11
REMARK    7  A    between atoms: C_12  and  C_16
REMARK    8  A    between atoms: C_17  and  C_18
REMARK    9  A    between atoms: C_23  and  C_24
REMARK                            x       y       z     vdW  Elec       q    Type
REMARK                         _______ _______ _______ _____ _____    ______ ____
ROOT
ATOM      1  O   UNL     1      16.876  -5.637  25.154  0.00  0.00    -0.336 OA
ATOM      5  N   UNL     1      16.502  -5.331  27.342  0.00  0.00    -0.190 NA
ATOM      6  N   UNL     1      16.391  -6.857  25.641  0.00  0.00    -0.056 NA
ATOM     16  C   UNL     1      16.910  -4.794  26.220  0.00  0.00    +0.245 A 
ATOM     17  C   UNL     1      16.195  -6.597  26.937  0.00  0.00    +0.204 A 
ENDROOT
BRANCH  17  18
ATOM      7  N   UNL     1      15.198  -9.898  28.331  0.00  0.00    -0.221 NA
ATOM     18  C   UNL     1      15.693  -7.580  27.853  0.00  0.00    +0.041 A 
ATOM     19  C   UNL     1      15.225  -7.214  29.111  0.00  0.00    +0.018 A 
ATOM     20  C   UNL     1      15.658  -8.923  27.515  0.00  0.00    +0.126 A 
ATOM     21  C   UNL     1      14.743  -8.188  29.979  0.00  0.00    +0.068 A 
ATOM     22  C   UNL     1      14.751  -9.504  29.545  0.00  0.00    +0.215 A 
BRANCH  22   2
ATOM      2  O   UNL     1      14.282 -10.482  30.382  0.00  0.00    -0.474 OA
BRANCH   2  23
ATOM     23  C   UNL     1      12.885 -10.746  30.337  0.00  0.00    +0.258 C 
BRANCH  23  24
ATOM     24  C   UNL     1      12.233 -10.171  31.579  0.00  0.00    +0.200 C 
BRANCH  24   3
ATOM      3  O   UNL     1      11.289  -9.180  31.191  0.00  0.00    -0.380 OA
ATOM     25  C   UNL     1      11.577  -7.924  31.790  0.00  0.00    +0.194 C 
ENDBRANCH  24   3
ENDBRANCH  23  24
ENDBRANCH   2  23
ENDBRANCH  22   2
ENDBRANCH  17  18
BRANCH  16  12
ATOM      4  N   UNL     1      16.739  -2.763  24.792  0.00  0.00    -0.291 NA
ATOM     12  C   UNL     1      17.405  -3.388  25.952  0.00  0.00    +0.146 C 
ATOM     13  C   UNL     1      16.729  -1.323  25.047  0.00  0.00    +0.085 C 
ATOM     14  C   UNL     1      17.129  -2.427  27.125  0.00  0.00    +0.030 C 
ATOM     15  C   UNL     1      16.357  -1.267  26.515  0.00  0.00    +0.017 C 
BRANCH   4  11
ATOM     11  C   UNL     1      17.372  -3.091  23.522  0.00  0.00    +0.088 C 
BRANCH  11   8
ATOM      8  C   UNL     1      16.530  -2.655  22.366  0.00  0.00    +0.003 C 
ATOM      9  C   UNL     1      15.628  -1.466  22.524  0.00  0.00    +0.005 C 
ATOM     10  C   UNL     1      15.043  -2.845  22.431  0.00  0.00    +0.005 C 
ENDBRANCH  11   8
ENDBRANCH   4  11
ENDBRANCH  16  12
TORSDOF 8
ENDMDL
MODEL 4
REMARK VINA RESULT:      -0.2     17.639     19.320
REMARK  Name = 45783570
REMARK  9 active torsions:
REMARK  status: ('A' for Active; 'I' for Inactive)
REMARK    1  A    between atoms: O_2  and  C_22
REMARK    2  A    between atoms: O_2  and  C_23
REMARK    3  A    between atoms: O_3  and  C_24
REMARK    4  A    between atoms: O_3  and  C_25
REMARK    5  A    between atoms: N_4  and  C_11
REMARK    6  A    between atoms: C_8  and  C_11
REMARK    7  A    between atoms: C_12  and  C_16
REMARK    8  A    between atoms: C_17  and  C_18
REMARK    9  A    between atoms: C_23  and  C_24
REMARK                            x       y       z     vdW  Elec       q    Type
REMARK                         _______ _______ _______ _____ _____    ______ ____
ROOT
ATOM      1  O   UNL     1      17.281  -4.688  23.751  0.00  0.00    -0.336 OA
ATOM      5  N   UNL     1      16.101  -4.579  25.651  0.00  0.00    -0.190 NA
ATOM      6  N   UNL     1      17.398  -5.947  24.355  0.00  0.00    -0.056 NA
ATOM     16  C   UNL     1      16.502  -3.944  24.579  0.00  0.00    +0.245 A 
ATOM     17  C   UNL     1      16.675  -5.803  25.470  0.00  0.00    +0.204 A 
ENDROOT
BRANCH  17  18
ATOM      7  N   UNL     1      15.625  -9.052  26.943  0.00  0.00    -0.221 NA
ATOM     18  C   UNL     1      16.507  -6.862  26.422  0.00  0.00    +0.041 A 
ATOM     19  C   UNL     1      17.031  -6.760  27.706  0.00  0.00    +0.018 A 
ATOM     20  C   UNL     1      15.818  -8.018  26.093  0.00  0.00    +0.126 A 
ATOM     21  C   UNL     1      16.852  -7.803  28.609  0.00  0.00    +0.068 A 
ATOM     22  C   UNL     1      16.148  -8.917  28.181  0.00  0.00    +0.215 A 
BRANCH  22   2
ATOM      2  O   UNL     1      15.959  -9.958  29.053  0.00  0.00    -0.474 OA
BRANCH   2  23
ATOM     23  C   UNL     1      15.307  -9.654  30.280  0.00  0.00    +0.258 C 
BRANCH  23  24
ATOM     24  C   UNL     1      15.655 -10.719  31.302  0.00  0.00    +0.200 C 
BRANCH  24   3
ATOM      3  O   UNL     1      15.328 -10.240  32.601  0.00  0.00    -0.380 OA
ATOM     25  C   UNL     1      15.703  -8.879  32.764  0.00  0.00    +0.194 C 
ENDBRANCH  24   3
ENDBRANCH  23  24
ENDBRANCH   2  23
ENDBRANCH  22   2
ENDBRANCH  17  18
BRANCH  16  12
ATOM      4  N   UNL     1      17.369  -1.621  24.370  0.00  0.00    -0.291 NA
ATOM     12  C   UNL     1      16.221  -2.521  24.143  0.00  0.00    +0.146 C 
ATOM     13  C   UNL     1      17.286  -0.579  23.347  0.00  0.00    +0.085 C 
ATOM     14  C   UNL     1      15.928  -2.409  22.635  0.00  0.00    +0.030 C 
ATOM     15  C   UNL     1      16.920  -1.379  22.113  0.00  0.00    +0.017 C 
BRANCH   4  11
ATOM     11  C   UNL     1      17.405  -1.065  25.717  0.00  0.00    +0.088 C 
BRANCH  11   8
ATOM      8  C   UNL     1      16.761  -1.987  26.702  0.00  0.00    +0.003 C 
ATOM      9  C   UNL     1      16.115  -1.413  27.928  0.00  0.00    +0.005 C 
ATOM     10  C   UNL     1      17.398  -2.182  28.047  0.00  0.00    +0.005 C 
ENDBRANCH  11   8
ENDBRANCH   4  11
ENDBRANCH  16  12
TORSDOF 8
ENDMDL
