MODEL 1
REMARK VINA RESULT:       2.6      0.000      0.000
REMARK  Name = 45360648
REMARK  7 active torsions:
REMARK  status: ('A' for Active; 'I' for Inactive)
REMARK    1  A    between atoms: N_5  and  C_9
REMARK    2  A    between atoms: N_5  and  C_17
REMARK    3  A    between atoms: N_7  and  C_31
REMARK    4  A    between atoms: C_10  and  C_14
REMARK    5  A    between atoms: C_14  and  C_16
REMARK    6  A    between atoms: C_16  and  C_18
REMARK    7  A    between atoms: C_17  and  C_19
REMARK                            x       y       z     vdW  Elec       q    Type
REMARK                         _______ _______ _______ _____ _____    ______ ____
ROOT
ATOM      1  O   UNL     1      -3.212   4.521  27.232  0.00  0.00    -0.274 OA
ATOM      3  N   UNL     1      -1.969   3.400  23.988  0.00  0.00    -0.286 NA
ATOM      4  N   UNL     1      -1.314   3.379  26.716  0.00  0.00    -0.313 N 
ATOM      8  C   UNL     1      -2.770   4.237  24.890  0.00  0.00    +0.145 C 
ATOM      9  C   UNL     1      -4.121   2.757  23.518  0.00  0.00    +0.070 C 
ATOM     10  C   UNL     1      -0.571   3.263  24.381  0.00  0.00    +0.075 C 
ATOM     11  C   UNL     1      -4.226   3.855  24.578  0.00  0.00    +0.048 C 
ATOM     12  C   UNL     1      -2.731   2.179  23.743  0.00  0.00    +0.104 C 
ATOM     13  C   UNL     1      -0.458   2.684  25.783  0.00  0.00    +0.123 C 
ATOM     15  C   UNL     1      -2.467   4.040  26.372  0.00  0.00    +0.230 C 
ATOM     36  H   UNL     1      -1.112   3.273  27.706  0.00  0.00    +0.149 HD
ENDROOT
BRANCH   9   5
ATOM      5  N   UNL     1      -5.183   1.768  23.613  0.00  0.00    -0.308 NA
ATOM     37  H   UNL     1      -4.995   1.025  22.940  0.00  0.00    +0.123 HD
BRANCH   5  17
ATOM     17  C   UNL     1      -5.227   1.173  24.943  0.00  0.00    +0.118 C 
BRANCH  17  19
ATOM      7  N   UNL     1      -2.191  -0.668  25.910  0.00  0.00    -0.349 N 
ATOM     19  C   UNL     1      -4.087   0.215  25.166  0.00  0.00    -0.008 A 
ATOM     21  C   UNL     1      -3.938  -1.074  24.583  0.00  0.00    +0.004 A 
ATOM     23  C   UNL     1      -2.997   0.436  25.977  0.00  0.00    +0.091 A 
ATOM     26  C   UNL     1      -2.741  -1.607  25.065  0.00  0.00    +0.049 A 
ATOM     27  C   UNL     1      -4.708  -1.842  23.687  0.00  0.00    +0.010 A 
ATOM     30  C   UNL     1      -2.274  -2.874  24.696  0.00  0.00    +0.026 A 
ATOM     31  C   UNL     1      -0.943  -0.811  26.628  0.00  0.00    +0.149 C 
ATOM     33  C   UNL     1      -4.254  -3.110  23.308  0.00  0.00    +0.001 A 
ATOM     35  C   UNL     1      -3.055  -3.617  23.806  0.00  0.00    +0.002 A 
ENDBRANCH  17  19
ENDBRANCH   5  17
ENDBRANCH   9   5
BRANCH  10  14
ATOM     14  C   UNL     1       0.249   2.445  23.382  0.00  0.00    +0.029 C 
BRANCH  14  16
ATOM     16  C   UNL     1      -0.269   1.022  23.233  0.00  0.00    +0.098 C 
BRANCH  16  18
ATOM      2  O   UNL     1       0.528  -1.117  23.874  0.00  0.00    -0.275 OA
ATOM      6  N   UNL     1       2.114   0.483  23.264  0.00  0.00    -0.271 N 
ATOM     18  C   UNL     1       0.827   0.015  23.492  0.00  0.00    +0.220 C 
ATOM     20  C   UNL     1       2.471   1.842  22.805  0.00  0.00    +0.118 C 
ATOM     22  C   UNL     1       3.304  -0.255  23.430  0.00  0.00    +0.039 A 
ATOM     24  C   UNL     1       3.996   1.909  22.684  0.00  0.00    +0.056 C 
ATOM     25  C   UNL     1       4.408   0.537  23.107  0.00  0.00    -0.024 A 
ATOM     28  C   UNL     1       3.475  -1.568  23.846  0.00  0.00    +0.024 A 
ATOM     29  C   UNL     1       5.700   0.042  23.188  0.00  0.00    +0.005 A 
ATOM     32  C   UNL     1       4.775  -2.075  23.932  0.00  0.00    +0.002 A 
ATOM     34  C   UNL     1       5.880  -1.277  23.606  0.00  0.00    +0.000 A 
ENDBRANCH  16  18
ENDBRANCH  14  16
ENDBRANCH  10  14
TORSDOF 6
ENDMDL
MODEL 2
REMARK VINA RESULT:       3.1      0.722      1.735
REMARK  Name = 45360648
REMARK  7 active torsions:
REMARK  status: ('A' for Active; 'I' for Inactive)
REMARK    1  A    between atoms: N_5  and  C_9
REMARK    2  A    between atoms: N_5  and  C_17
REMARK    3  A    between atoms: N_7  and  C_31
REMARK    4  A    between atoms: C_10  and  C_14
REMARK    5  A    between atoms: C_14  and  C_16
REMARK    6  A    between atoms: C_16  and  C_18
REMARK    7  A    between atoms: C_17  and  C_19
REMARK                            x       y       z     vdW  Elec       q    Type
REMARK                         _______ _______ _______ _____ _____    ______ ____
ROOT
ATOM      1  O   UNL     1      -2.847   4.211  27.591  0.00  0.00    -0.274 OA
ATOM      3  N   UNL     1      -1.860   3.440  24.163  0.00  0.00    -0.286 NA
ATOM      4  N   UNL     1      -1.011   3.114  26.818  0.00  0.00    -0.313 N 
ATOM      8  C   UNL     1      -2.580   4.181  25.207  0.00  0.00    +0.145 C 
ATOM      9  C   UNL     1      -4.051   2.873  23.785  0.00  0.00    +0.070 C 
ATOM     10  C   UNL     1      -0.441   3.247  24.436  0.00  0.00    +0.075 C 
ATOM     11  C   UNL     1      -4.061   3.849  24.962  0.00  0.00    +0.048 C 
ATOM     12  C   UNL     1      -2.659   2.261  23.843  0.00  0.00    +0.104 C 
ATOM     13  C   UNL     1      -0.237   2.517  25.754  0.00  0.00    +0.123 C 
ATOM     15  C   UNL     1      -2.175   3.820  26.632  0.00  0.00    +0.230 C 
ATOM     36  H   UNL     1      -0.741   2.898  27.773  0.00  0.00    +0.149 HD
ENDROOT
BRANCH   9   5
ATOM      5  N   UNL     1      -5.121   1.890  23.850  0.00  0.00    -0.308 NA
ATOM     37  H   UNL     1      -5.050   1.279  23.036  0.00  0.00    +0.123 HD
BRANCH   5  17
ATOM     17  C   UNL     1      -5.004   1.066  25.046  0.00  0.00    +0.118 C 
BRANCH  17  19
ATOM      7  N   UNL     1      -4.030  -2.306  23.941  0.00  0.00    -0.349 N 
ATOM     19  C   UNL     1      -4.369  -0.266  24.749  0.00  0.00    -0.008 A 
ATOM     21  C   UNL     1      -3.112  -0.731  25.226  0.00  0.00    +0.004 A 
ATOM     23  C   UNL     1      -4.909  -1.257  23.962  0.00  0.00    +0.091 A 
ATOM     26  C   UNL     1      -2.923  -2.012  24.705  0.00  0.00    +0.049 A 
ATOM     27  C   UNL     1      -2.113  -0.182  26.055  0.00  0.00    +0.010 A 
ATOM     30  C   UNL     1      -1.780  -2.776  24.972  0.00  0.00    +0.026 A 
ATOM     31  C   UNL     1      -4.249  -3.540  23.217  0.00  0.00    +0.149 C 
ATOM     33  C   UNL     1      -0.965  -0.933  26.330  0.00  0.00    +0.001 A 
ATOM     35  C   UNL     1      -0.803  -2.211  25.796  0.00  0.00    +0.002 A 
ENDBRANCH  17  19
ENDBRANCH   5  17
ENDBRANCH   9   5
BRANCH  10  14
ATOM     14  C   UNL     1       0.291   2.535  23.297  0.00  0.00    +0.029 C 
BRANCH  14  16
ATOM     16  C   UNL     1      -0.224   1.122  23.069  0.00  0.00    +0.098 C 
BRANCH  16  18
ATOM      2  O   UNL     1       0.529  -1.036  23.696  0.00  0.00    -0.275 OA
ATOM      6  N   UNL     1       2.151   0.560  23.179  0.00  0.00    -0.271 N 
ATOM     18  C   UNL     1       0.852   0.100  23.349  0.00  0.00    +0.220 C 
ATOM     20  C   UNL     1       2.537   1.924  22.761  0.00  0.00    +0.118 C 
ATOM     22  C   UNL     1       3.327  -0.193  23.376  0.00  0.00    +0.039 A 
ATOM     24  C   UNL     1       4.067   1.979  22.700  0.00  0.00    +0.056 C 
ATOM     25  C   UNL     1       4.449   0.595  23.110  0.00  0.00    -0.024 A 
ATOM     28  C   UNL     1       3.470  -1.515  23.771  0.00  0.00    +0.024 A 
ATOM     29  C   UNL     1       5.733   0.086  23.230  0.00  0.00    +0.005 A 
ATOM     32  C   UNL     1       4.762  -2.037  23.896  0.00  0.00    +0.002 A 
ATOM     34  C   UNL     1       5.886  -1.243  23.628  0.00  0.00    +0.000 A 
ENDBRANCH  16  18
ENDBRANCH  14  16
ENDBRANCH  10  14
TORSDOF 6
ENDMDL
MODEL 3
REMARK VINA RESULT:       4.8      1.700      6.487
REMARK  Name = 45360648
REMARK  7 active torsions:
REMARK  status: ('A' for Active; 'I' for Inactive)
REMARK    1  A    between atoms: N_5  and  C_9
REMARK    2  A    between atoms: N_5  and  C_17
REMARK    3  A    between atoms: N_7  and  C_31
REMARK    4  A    between atoms: C_10  and  C_14
REMARK    5  A    between atoms: C_14  and  C_16
REMARK    6  A    between atoms: C_16  and  C_18
REMARK    7  A    between atoms: C_17  and  C_19
REMARK                            x       y       z     vdW  Elec       q    Type
REMARK                         _______ _______ _______ _____ _____    ______ ____
ROOT
ATOM      1  O   UNL     1       0.171   5.278  25.002  0.00  0.00    -0.274 OA
ATOM      3  N   UNL     1      -2.535   2.836  25.197  0.00  0.00    -0.286 NA
ATOM      4  N   UNL     1      -2.045   5.523  24.555  0.00  0.00    -0.313 N 
ATOM      8  C   UNL     1      -1.211   3.385  25.518  0.00  0.00    +0.145 C 
ATOM      9  C   UNL     1      -1.099   1.342  24.211  0.00  0.00    +0.070 C 
ATOM     10  C   UNL     1      -3.625   3.799  25.297  0.00  0.00    +0.075 C 
ATOM     11  C   UNL     1      -0.220   2.388  24.899  0.00  0.00    +0.048 C 
ATOM     12  C   UNL     1      -2.399   2.088  23.949  0.00  0.00    +0.104 C 
ATOM     13  C   UNL     1      -3.379   4.993  24.386  0.00  0.00    +0.123 C 
ATOM     15  C   UNL     1      -0.964   4.793  24.985  0.00  0.00    +0.230 C 
ATOM     36  H   UNL     1      -1.871   6.467  24.222  0.00  0.00    +0.149 HD
ENDROOT
BRANCH   9   5
ATOM      5  N   UNL     1      -0.494   0.790  23.009  0.00  0.00    -0.308 NA
ATOM     37  H   UNL     1      -0.025   1.545  22.506  0.00  0.00    +0.123 HD
BRANCH   5  17
ATOM     17  C   UNL     1       0.502  -0.220  23.340  0.00  0.00    +0.118 C 
BRANCH  17  19
ATOM      7  N   UNL     1       3.616   1.615  22.647  0.00  0.00    -0.349 N 
ATOM     19  C   UNL     1       1.905   0.291  23.146  0.00  0.00    -0.008 A 
ATOM     21  C   UNL     1       3.109  -0.419  23.410  0.00  0.00    +0.004 A 
ATOM     23  C   UNL     1       2.249   1.538  22.678  0.00  0.00    +0.091 A 
ATOM     26  C   UNL     1       4.167   0.433  23.089  0.00  0.00    +0.049 A 
ATOM     27  C   UNL     1       3.402  -1.710  23.894  0.00  0.00    +0.010 A 
ATOM     30  C   UNL     1       5.509   0.058  23.227  0.00  0.00    +0.026 A 
ATOM     31  C   UNL     1       4.358   2.777  22.208  0.00  0.00    +0.149 C 
ATOM     33  C   UNL     1       4.738  -2.099  24.037  0.00  0.00    +0.001 A 
ATOM     35  C   UNL     1       5.775  -1.227  23.708  0.00  0.00    +0.002 A 
ENDBRANCH  17  19
ENDBRANCH   5  17
ENDBRANCH   9   5
BRANCH  10  14
ATOM     14  C   UNL     1      -4.995   3.176  25.025  0.00  0.00    +0.029 C 
BRANCH  14  16
ATOM     16  C   UNL     1      -5.263   1.960  25.899  0.00  0.00    +0.098 C 
BRANCH  16  18
ATOM      2  O   UNL     1      -6.160   0.462  24.295  0.00  0.00    -0.275 OA
ATOM      6  N   UNL     1      -4.140  -0.128  25.304  0.00  0.00    -0.271 N 
ATOM     18  C   UNL     1      -5.240   0.690  25.081  0.00  0.00    +0.220 C 
ATOM     20  C   UNL     1      -3.036   0.148  26.248  0.00  0.00    +0.118 C 
ATOM     22  C   UNL     1      -3.885  -1.361  24.671  0.00  0.00    +0.039 A 
ATOM     24  C   UNL     1      -2.044  -1.016  26.159  0.00  0.00    +0.056 C 
ATOM     25  C   UNL     1      -2.685  -1.901  25.142  0.00  0.00    -0.024 A 
ATOM     28  C   UNL     1      -4.635  -2.033  23.716  0.00  0.00    +0.024 A 
ATOM     29  C   UNL     1      -2.209  -3.116  24.674  0.00  0.00    +0.005 A 
ATOM     32  C   UNL     1      -4.161  -3.260  23.239  0.00  0.00    +0.002 A 
ATOM     34  C   UNL     1      -2.957  -3.798  23.714  0.00  0.00    +0.000 A 
ENDBRANCH  16  18
ENDBRANCH  14  16
ENDBRANCH  10  14
TORSDOF 6
ENDMDL
MODEL 4
REMARK VINA RESULT:       5.8      1.589      6.680
REMARK  Name = 45360648
REMARK  7 active torsions:
REMARK  status: ('A' for Active; 'I' for Inactive)
REMARK    1  A    between atoms: N_5  and  C_9
REMARK    2  A    between atoms: N_5  and  C_17
REMARK    3  A    between atoms: N_7  and  C_31
REMARK    4  A    between atoms: C_10  and  C_14
REMARK    5  A    between atoms: C_14  and  C_16
REMARK    6  A    between atoms: C_16  and  C_18
REMARK    7  A    between atoms: C_17  and  C_19
REMARK                            x       y       z     vdW  Elec       q    Type
REMARK                         _______ _______ _______ _____ _____    ______ ____
ROOT
ATOM      1  O   UNL     1       0.982   2.906  26.540  0.00  0.00    -0.274 OA
ATOM      3  N   UNL     1      -2.146   2.258  24.775  0.00  0.00    -0.286 NA
ATOM      4  N   UNL     1      -0.519   4.367  25.654  0.00  0.00    -0.313 N 
ATOM      8  C   UNL     1      -1.036   1.933  25.680  0.00  0.00    +0.145 C 
ATOM      9  C   UNL     1      -1.032   0.595  23.653  0.00  0.00    +0.070 C 
ATOM     10  C   UNL     1      -2.745   3.567  25.006  0.00  0.00    +0.075 C 
ATOM     11  C   UNL     1      -0.283   0.795  24.971  0.00  0.00    +0.048 C 
ATOM     12  C   UNL     1      -1.705   1.940  23.420  0.00  0.00    +0.104 C 
ATOM     13  C   UNL     1      -1.703   4.668  24.884  0.00  0.00    +0.123 C 
ATOM     15  C   UNL     1      -0.098   3.099  25.973  0.00  0.00    +0.230 C 
ATOM     36  H   UNL     1       0.106   5.138  25.874  0.00  0.00    +0.149 HD
ENDROOT
BRANCH   9   5
ATOM      5  N   UNL     1      -0.164   0.184  22.561  0.00  0.00    -0.308 NA
ATOM     37  H   UNL     1       0.252   1.018  22.145  0.00  0.00    +0.123 HD
BRANCH   5  17
ATOM     17  C   UNL     1       0.917  -0.666  23.043  0.00  0.00    +0.118 C 
BRANCH  17  19
ATOM      7  N   UNL     1       3.809   1.568  22.610  0.00  0.00    -0.349 N 
ATOM     19  C   UNL     1       2.251   0.028  22.972  0.00  0.00    -0.008 A 
ATOM     21  C   UNL     1       3.509  -0.511  23.362  0.00  0.00    +0.004 A 
ATOM     23  C   UNL     1       2.469   1.307  22.514  0.00  0.00    +0.091 A 
ATOM     26  C   UNL     1       4.469   0.474  23.125  0.00  0.00    +0.049 A 
ATOM     27  C   UNL     1       3.924  -1.748  23.896  0.00  0.00    +0.010 A 
ATOM     30  C   UNL     1       5.829   0.284  23.396  0.00  0.00    +0.026 A 
ATOM     31  C   UNL     1       4.428   2.816  22.220  0.00  0.00    +0.149 C 
ATOM     33  C   UNL     1       5.280  -1.952  24.172  0.00  0.00    +0.001 A 
ATOM     35  C   UNL     1       6.217  -0.950  23.925  0.00  0.00    +0.002 A 
ENDBRANCH  17  19
ENDBRANCH   5  17
ENDBRANCH   9   5
BRANCH  10  14
ATOM     14  C   UNL     1      -3.943   3.842  24.096  0.00  0.00    +0.029 C 
BRANCH  14  16
ATOM     16  C   UNL     1      -5.136   2.957  24.424  0.00  0.00    +0.098 C 
BRANCH  16  18
ATOM      2  O   UNL     1      -4.730   1.954  26.533  0.00  0.00    -0.275 OA
ATOM      6  N   UNL     1      -4.382   0.642  24.634  0.00  0.00    -0.271 N 
ATOM     18  C   UNL     1      -4.729   1.804  25.311  0.00  0.00    +0.220 C 
ATOM     20  C   UNL     1      -4.383   0.464  23.167  0.00  0.00    +0.118 C 
ATOM     22  C   UNL     1      -3.968  -0.568  25.227  0.00  0.00    +0.039 A 
ATOM     24  C   UNL     1      -3.940  -0.972  22.870  0.00  0.00    +0.056 C 
ATOM     25  C   UNL     1      -3.704  -1.519  24.239  0.00  0.00    -0.024 A 
ATOM     28  C   UNL     1      -3.811  -0.882  26.570  0.00  0.00    +0.024 A 
ATOM     29  C   UNL     1      -3.279  -2.798  24.565  0.00  0.00    +0.005 A 
ATOM     32  C   UNL     1      -3.382  -2.170  26.906  0.00  0.00    +0.002 A 
ATOM     34  C   UNL     1      -3.118  -3.122  25.912  0.00  0.00    +0.000 A 
ENDBRANCH  16  18
ENDBRANCH  14  16
ENDBRANCH  10  14
TORSDOF 6
ENDMDL
MODEL 5
REMARK VINA RESULT:       5.9      1.702      2.812
REMARK  Name = 45360648
REMARK  7 active torsions:
REMARK  status: ('A' for Active; 'I' for Inactive)
REMARK    1  A    between atoms: N_5  and  C_9
REMARK    2  A    between atoms: N_5  and  C_17
REMARK    3  A    between atoms: N_7  and  C_31
REMARK    4  A    between atoms: C_10  and  C_14
REMARK    5  A    between atoms: C_14  and  C_16
REMARK    6  A    between atoms: C_16  and  C_18
REMARK    7  A    between atoms: C_17  and  C_19
REMARK                            x       y       z     vdW  Elec       q    Type
REMARK                         _______ _______ _______ _____ _____    ______ ____
ROOT
ATOM      1  O   UNL     1       0.222   2.719  27.762  0.00  0.00    -0.274 OA
ATOM      3  N   UNL     1      -0.434   2.449  24.182  0.00  0.00    -0.286 NA
ATOM      4  N   UNL     1      -0.288   0.890  26.510  0.00  0.00    -0.313 N 
ATOM      8  C   UNL     1       0.112   3.077  25.392  0.00  0.00    +0.145 C 
ATOM      9  C   UNL     1      -1.691   4.358  24.388  0.00  0.00    +0.070 C 
ATOM     10  C   UNL     1      -0.148   1.024  24.065  0.00  0.00    +0.075 C 
ATOM     11  C   UNL     1      -0.689   4.381  25.543  0.00  0.00    +0.048 C 
ATOM     12  C   UNL     1      -1.825   2.877  24.064  0.00  0.00    +0.104 C 
ATOM     13  C   UNL     1      -0.682   0.264  25.269  0.00  0.00    +0.123 C 
ATOM     15  C   UNL     1      -0.002   2.226  26.653  0.00  0.00    +0.230 C 
ATOM     36  H   UNL     1      -0.340   0.329  27.356  0.00  0.00    +0.149 HD
ENDROOT
BRANCH   9   5
ATOM      5  N   UNL     1      -2.955   4.997  24.717  0.00  0.00    -0.308 NA
ATOM     37  H   UNL     1      -2.892   5.985  24.470  0.00  0.00    +0.123 HD
BRANCH   5  17
ATOM     17  C   UNL     1      -4.052   4.410  23.958  0.00  0.00    +0.118 C 
BRANCH  17  19
ATOM      7  N   UNL     1      -5.795   1.953  26.071  0.00  0.00    -0.349 N 
ATOM     19  C   UNL     1      -4.637   3.211  24.655  0.00  0.00    -0.008 A 
ATOM     21  C   UNL     1      -4.409   1.845  24.327  0.00  0.00    +0.004 A 
ATOM     23  C   UNL     1      -5.493   3.244  25.732  0.00  0.00    +0.091 A 
ATOM     26  C   UNL     1      -5.146   1.077  25.229  0.00  0.00    +0.049 A 
ATOM     27  C   UNL     1      -3.642   1.187  23.345  0.00  0.00    +0.010 A 
ATOM     30  C   UNL     1      -5.156  -0.322  25.199  0.00  0.00    +0.026 A 
ATOM     31  C   UNL     1      -6.670   1.579  27.162  0.00  0.00    +0.149 C 
ATOM     33  C   UNL     1      -3.642  -0.212  23.302  0.00  0.00    +0.001 A 
ATOM     35  C   UNL     1      -4.388  -0.953  24.216  0.00  0.00    +0.002 A 
ENDBRANCH  17  19
ENDBRANCH   5  17
ENDBRANCH   9   5
BRANCH  10  14
ATOM     14  C   UNL     1      -0.669   0.419  22.760  0.00  0.00    +0.029 C 
BRANCH  14  16
ATOM     16  C   UNL     1       0.453   0.083  21.788  0.00  0.00    +0.098 C 
BRANCH  16  18
ATOM      2  O   UNL     1       1.388  -1.818  22.852  0.00  0.00    -0.275 OA
ATOM      6  N   UNL     1       2.741   0.074  22.646  0.00  0.00    -0.271 N 
ATOM     18  C   UNL     1       1.571  -0.656  22.484  0.00  0.00    +0.220 C 
ATOM     20  C   UNL     1       2.958   1.467  22.204  0.00  0.00    +0.118 C 
ATOM     22  C   UNL     1       3.923  -0.386  23.261  0.00  0.00    +0.039 A 
ATOM     24  C   UNL     1       4.389   1.860  22.583  0.00  0.00    +0.056 C 
ATOM     25  C   UNL     1       4.893   0.619  23.243  0.00  0.00    -0.024 A 
ATOM     28  C   UNL     1       4.197  -1.621  23.831  0.00  0.00    +0.024 A 
ATOM     29  C   UNL     1       6.152   0.416  23.789  0.00  0.00    +0.005 A 
ATOM     32  C   UNL     1       5.464  -1.833  24.385  0.00  0.00    +0.002 A 
ATOM     34  C   UNL     1       6.435  -0.822  24.364  0.00  0.00    +0.000 A 
ENDBRANCH  16  18
ENDBRANCH  14  16
ENDBRANCH  10  14
TORSDOF 6
ENDMDL
MODEL 6
REMARK VINA RESULT:       6.0      2.107      5.812
REMARK  Name = 45360648
REMARK  7 active torsions:
REMARK  status: ('A' for Active; 'I' for Inactive)
REMARK    1  A    between atoms: N_5  and  C_9
REMARK    2  A    between atoms: N_5  and  C_17
REMARK    3  A    between atoms: N_7  and  C_31
REMARK    4  A    between atoms: C_10  and  C_14
REMARK    5  A    between atoms: C_14  and  C_16
REMARK    6  A    between atoms: C_16  and  C_18
REMARK    7  A    between atoms: C_17  and  C_19
REMARK                            x       y       z     vdW  Elec       q    Type
REMARK                         _______ _______ _______ _____ _____    ______ ____
ROOT
ATOM      1  O   UNL     1       1.577  -0.544  20.936  0.00  0.00    -0.274 OA
ATOM      3  N   UNL     1      -0.221   0.952  23.738  0.00  0.00    -0.286 NA
ATOM      4  N   UNL     1       2.346   0.777  22.620  0.00  0.00    -0.313 N 
ATOM      8  C   UNL     1      -0.011  -0.020  22.657  0.00  0.00    +0.145 C 
ATOM      9  C   UNL     1      -1.881   1.474  22.241  0.00  0.00    +0.070 C 
ATOM     10  C   UNL     1       0.941   1.157  24.595  0.00  0.00    +0.075 C 
ATOM     11  C   UNL     1      -1.131   0.281  21.647  0.00  0.00    +0.048 C 
ATOM     12  C   UNL     1      -0.845   2.131  23.143  0.00  0.00    +0.104 C 
ATOM     13  C   UNL     1       2.141   1.615  23.779  0.00  0.00    +0.123 C 
ATOM     15  C   UNL     1       1.357   0.065  21.987  0.00  0.00    +0.230 C 
ATOM     36  H   UNL     1       3.259   0.808  22.175  0.00  0.00    +0.149 HD
ENDROOT
BRANCH   9   5
ATOM      5  N   UNL     1      -2.421   2.368  21.230  0.00  0.00    -0.308 NA
ATOM     37  H   UNL     1      -2.497   1.856  20.351  0.00  0.00    +0.123 HD
BRANCH   5  17
ATOM     17  C   UNL     1      -3.753   2.831  21.599  0.00  0.00    +0.118 C 
BRANCH  17  19
ATOM      7  N   UNL     1      -3.360   4.381  24.913  0.00  0.00    -0.349 N 
ATOM     19  C   UNL     1      -3.810   3.294  23.030  0.00  0.00    -0.008 A 
ATOM     21  C   UNL     1      -4.707   2.835  24.034  0.00  0.00    +0.004 A 
ATOM     23  C   UNL     1      -2.994   4.244  23.601  0.00  0.00    +0.091 A 
ATOM     26  C   UNL     1      -4.404   3.531  25.205  0.00  0.00    +0.049 A 
ATOM     27  C   UNL     1      -5.751   1.889  24.059  0.00  0.00    +0.010 A 
ATOM     30  C   UNL     1      -5.096   3.330  26.405  0.00  0.00    +0.026 A 
ATOM     31  C   UNL     1      -2.728   5.289  25.846  0.00  0.00    +0.149 C 
ATOM     33  C   UNL     1      -6.452   1.677  25.251  0.00  0.00    +0.001 A 
ATOM     35  C   UNL     1      -6.128   2.387  26.406  0.00  0.00    +0.002 A 
ENDBRANCH  17  19
ENDBRANCH   5  17
ENDBRANCH   9   5
BRANCH  10  14
ATOM     14  C   UNL     1       0.665   2.120  25.751  0.00  0.00    +0.029 C 
BRANCH  14  16
ATOM     16  C   UNL     1      -0.304   1.539  26.770  0.00  0.00    +0.098 C 
BRANCH  16  18
ATOM      2  O   UNL     1      -2.500   1.781  25.912  0.00  0.00    -0.275 OA
ATOM      6  N   UNL     1      -1.505  -0.323  25.739  0.00  0.00    -0.271 N 
ATOM     18  C   UNL     1      -1.552   1.018  26.098  0.00  0.00    +0.220 C 
ATOM     20  C   UNL     1      -0.366  -1.237  25.962  0.00  0.00    +0.118 C 
ATOM     22  C   UNL     1      -2.535  -1.045  25.102  0.00  0.00    +0.039 A 
ATOM     24  C   UNL     1      -0.752  -2.611  25.404  0.00  0.00    +0.056 C 
ATOM     25  C   UNL     1      -2.135  -2.367  24.896  0.00  0.00    -0.024 A 
ATOM     28  C   UNL     1      -3.791  -0.616  24.697  0.00  0.00    +0.024 A 
ATOM     29  C   UNL     1      -2.972  -3.286  24.283  0.00  0.00    +0.005 A 
ATOM     32  C   UNL     1      -4.642  -1.538  24.079  0.00  0.00    +0.002 A 
ATOM     34  C   UNL     1      -4.237  -2.863  23.873  0.00  0.00    +0.000 A 
ENDBRANCH  16  18
ENDBRANCH  14  16
ENDBRANCH  10  14
TORSDOF 6
ENDMDL
MODEL 7
REMARK VINA RESULT:       6.1      2.112      6.207
REMARK  Name = 45360648
REMARK  7 active torsions:
REMARK  status: ('A' for Active; 'I' for Inactive)
REMARK    1  A    between atoms: N_5  and  C_9
REMARK    2  A    between atoms: N_5  and  C_17
REMARK    3  A    between atoms: N_7  and  C_31
REMARK    4  A    between atoms: C_10  and  C_14
REMARK    5  A    between atoms: C_14  and  C_16
REMARK    6  A    between atoms: C_16  and  C_18
REMARK    7  A    between atoms: C_17  and  C_19
REMARK                            x       y       z     vdW  Elec       q    Type
REMARK                         _______ _______ _______ _____ _____    ______ ____
ROOT
ATOM      1  O   UNL     1      -0.989   6.046  23.879  0.00  0.00    -0.274 OA
ATOM      3  N   UNL     1      -2.962   3.894  26.068  0.00  0.00    -0.286 NA
ATOM      4  N   UNL     1      -3.146   5.355  23.680  0.00  0.00    -0.313 N 
ATOM      8  C   UNL     1      -1.862   4.809  25.741  0.00  0.00    +0.145 C 
ATOM      9  C   UNL     1      -1.107   2.552  26.227  0.00  0.00    +0.070 C 
ATOM     10  C   UNL     1      -4.272   4.342  25.610  0.00  0.00    +0.075 C 
ATOM     11  C   UNL     1      -0.595   3.948  25.870  0.00  0.00    +0.048 C 
ATOM     12  C   UNL     1      -2.532   2.550  25.692  0.00  0.00    +0.104 C 
ATOM     13  C   UNL     1      -4.274   4.557  24.104  0.00  0.00    +0.123 C 
ATOM     15  C   UNL     1      -1.951   5.433  24.352  0.00  0.00    +0.230 C 
ATOM     36  H   UNL     1      -3.199   5.793  22.765  0.00  0.00    +0.149 HD
ENDROOT
BRANCH   9   5
ATOM      5  N   UNL     1      -0.282   1.486  25.684  0.00  0.00    -0.308 NA
ATOM     37  H   UNL     1      -0.815   0.996  24.965  0.00  0.00    +0.123 HD
BRANCH   5  17
ATOM     17  C   UNL     1       0.925   2.020  25.066  0.00  0.00    +0.118 C 
BRANCH  17  19
ATOM      7  N   UNL     1       1.353  -0.107  22.094  0.00  0.00    -0.349 N 
ATOM     19  C   UNL     1       1.380   1.178  23.904  0.00  0.00    -0.008 A 
ATOM     21  C   UNL     1       2.725   0.876  23.552  0.00  0.00    +0.004 A 
ATOM     23  C   UNL     1       0.560   0.559  22.989  0.00  0.00    +0.091 A 
ATOM     26  C   UNL     1       2.681   0.069  22.414  0.00  0.00    +0.049 A 
ATOM     27  C   UNL     1       3.982   1.213  24.095  0.00  0.00    +0.010 A 
ATOM     30  C   UNL     1       3.833  -0.420  21.788  0.00  0.00    +0.026 A 
ATOM     31  C   UNL     1       0.852  -0.882  20.979  0.00  0.00    +0.149 C 
ATOM     33  C   UNL     1       5.143   0.732  23.480  0.00  0.00    +0.001 A 
ATOM     35  C   UNL     1       5.068  -0.072  22.344  0.00  0.00    +0.002 A 
ENDBRANCH  17  19
ENDBRANCH   5  17
ENDBRANCH   9   5
BRANCH  10  14
ATOM     14  C   UNL     1      -5.403   3.401  26.030  0.00  0.00    +0.029 C 
BRANCH  14  16
ATOM     16  C   UNL     1      -5.747   2.388  24.948  0.00  0.00    +0.098 C 
BRANCH  16  18
ATOM      2  O   UNL     1      -5.813   0.405  26.245  0.00  0.00    -0.275 OA
ATOM      6  N   UNL     1      -4.202   0.535  24.561  0.00  0.00    -0.271 N 
ATOM     18  C   UNL     1      -5.262   1.008  25.323  0.00  0.00    +0.220 C 
ATOM     20  C   UNL     1      -3.543   1.259  23.454  0.00  0.00    +0.118 C 
ATOM     22  C   UNL     1      -3.570  -0.717  24.710  0.00  0.00    +0.039 A 
ATOM     24  C   UNL     1      -2.436   0.358  22.899  0.00  0.00    +0.056 C 
ATOM     25  C   UNL     1      -2.546  -0.850  23.769  0.00  0.00    -0.024 A 
ATOM     28  C   UNL     1      -3.837  -1.736  25.613  0.00  0.00    +0.024 A 
ATOM     29  C   UNL     1      -1.770  -1.997  23.707  0.00  0.00    +0.005 A 
ATOM     32  C   UNL     1      -3.057  -2.896  25.557  0.00  0.00    +0.002 A 
ATOM     34  C   UNL     1      -2.030  -3.026  24.612  0.00  0.00    +0.000 A 
ENDBRANCH  16  18
ENDBRANCH  14  16
ENDBRANCH  10  14
TORSDOF 6
ENDMDL
