MODEL 1
REMARK VINA RESULT:       7.1      0.000      0.000
REMARK  Name = 40779509
REMARK  11 active torsions:
REMARK  status: ('A' for Active; 'I' for Inactive)
REMARK    1  A    between atoms: O_5  and  C_30
REMARK    2  A    between atoms: O_5  and  C_37
REMARK    3  A    between atoms: O_6  and  C_32
REMARK    4  A    between atoms: O_6  and  C_38
REMARK    5  A    between atoms: N_8  and  C_22
REMARK    6  A    between atoms: N_9  and  C_19
REMARK    7  A    between atoms: C_12  and  C_18
REMARK    8  A    between atoms: C_13  and  C_19
REMARK    9  A    between atoms: C_21  and  C_24
REMARK   10  A    between atoms: C_23  and  C_25
REMARK   11  A    between atoms: C_35  and  C_36
REMARK                            x       y       z     vdW  Elec       q    Type
REMARK                         _______ _______ _______ _____ _____    ______ ____
ROOT
ATOM      7  N   UNL     1      -5.001   2.728  25.850  0.00  0.00    -0.297 NA
ATOM     11  C   UNL     1      -4.937   0.980  23.920  0.00  0.00    +0.002 C 
ATOM     12  C   UNL     1      -3.977   0.560  25.067  0.00  0.00    +0.055 C 
ATOM     13  C   UNL     1      -4.797   3.416  24.548  0.00  0.00    +0.074 C 
ATOM     14  C   UNL     1      -4.550   2.389  23.422  0.00  0.00    +0.024 C 
ATOM     15  C   UNL     1      -6.348   1.089  24.538  0.00  0.00    +0.019 C 
ATOM     16  C   UNL     1      -3.917   1.740  26.078  0.00  0.00    +0.094 C 
ATOM     17  C   UNL     1      -6.288   1.995  25.780  0.00  0.00    +0.085 C 
ENDROOT
BRANCH  12  18
ATOM      8  N   UNL     1      -2.284  -1.278  24.625  0.00  0.00    -0.270 N 
ATOM     10  N   UNL     1      -1.007  -1.521  24.279  0.00  0.00    -0.171 NA
ATOM     18  C   UNL     1      -2.593   0.049  24.694  0.00  0.00    +0.044 A 
ATOM     20  C   UNL     1      -1.438   0.720  24.372  0.00  0.00    +0.053 A 
ATOM     21  C   UNL     1      -0.497  -0.297  24.126  0.00  0.00    +0.093 A 
ATOM     22  C   UNL     1      -3.169  -2.391  24.881  0.00  0.00    +0.172 C 
BRANCH  21  24
ATOM     24  C   UNL     1       0.882  -0.121  23.750  0.00  0.00    +0.006 A 
ATOM     26  C   UNL     1       1.777  -1.185  23.860  0.00  0.00    +0.059 A 
ATOM     27  C   UNL     1       1.323   1.115  23.277  0.00  0.00    +0.014 A 
ATOM     30  C   UNL     1       3.113  -1.014  23.496  0.00  0.00    +0.162 A 
ATOM     31  C   UNL     1       2.659   1.287  22.913  0.00  0.00    +0.050 A 
ATOM     32  C   UNL     1       3.554   0.222  23.023  0.00  0.00    +0.162 A 
BRANCH  30   5
ATOM      5  O   UNL     1       3.977  -2.060  23.608  0.00  0.00    -0.491 OA
ATOM     37  C   UNL     1       5.236  -1.799  24.226  0.00  0.00    +0.277 C 
ENDBRANCH  30   5
BRANCH  32   6
ATOM      6  O   UNL     1       4.856   0.403  22.664  0.00  0.00    -0.491 OA
ATOM     38  C   UNL     1       5.754   0.838  23.682  0.00  0.00    +0.277 C 
ENDBRANCH  32   6
ENDBRANCH  21  24
ENDBRANCH  12  18
BRANCH  13  19
ATOM     19  C   UNL     1      -3.689   4.470  24.612  0.00  0.00    +0.123 C 
BRANCH  19   9
ATOM      4  O   UNL     1      -1.062   3.424  24.111  0.00  0.00    -0.270 OA
ATOM      9  N   UNL     1      -2.709   4.120  25.592  0.00  0.00    -0.310 N 
ATOM     23  C   UNL     1      -1.452   3.617  25.260  0.00  0.00    +0.244 C 
ATOM     39  H   UNL     1      -2.996   4.173  26.563  0.00  0.00    +0.149 HD
BRANCH  23  25
ATOM     25  C   UNL     1      -0.556   3.277  26.396  0.00  0.00    +0.037 A 
ATOM     28  C   UNL     1      -1.082   3.134  27.680  0.00  0.00    +0.013 A 
ATOM     29  C   UNL     1       0.810   3.101  26.177  0.00  0.00    +0.013 A 
ATOM     33  C   UNL     1      -0.240   2.815  28.746  0.00  0.00    +0.013 A 
ATOM     34  C   UNL     1       1.651   2.781  27.243  0.00  0.00    +0.013 A 
ATOM     35  C   UNL     1       1.126   2.639  28.528  0.00  0.00    +0.055 A 
BRANCH  35  36
ATOM      1  F   UNL     1       1.410   2.352  30.885  0.00  0.00    -0.166 F 
ATOM      2  F   UNL     1       3.097   3.137  29.761  0.00  0.00    -0.166 F 
ATOM      3  F   UNL     1       2.551   1.039  29.591  0.00  0.00    -0.166 F 
ATOM     36  C   UNL     1       2.025   2.297  29.667  0.00  0.00    +0.417 C 
ENDBRANCH  35  36
ENDBRANCH  23  25
ENDBRANCH  19   9
ENDBRANCH  13  19
TORSDOF 8
ENDMDL
MODEL 2
REMARK VINA RESULT:       9.3      2.924      4.684
REMARK  Name = 40779509
REMARK  11 active torsions:
REMARK  status: ('A' for Active; 'I' for Inactive)
REMARK    1  A    between atoms: O_5  and  C_30
REMARK    2  A    between atoms: O_5  and  C_37
REMARK    3  A    between atoms: O_6  and  C_32
REMARK    4  A    between atoms: O_6  and  C_38
REMARK    5  A    between atoms: N_8  and  C_22
REMARK    6  A    between atoms: N_9  and  C_19
REMARK    7  A    between atoms: C_12  and  C_18
REMARK    8  A    between atoms: C_13  and  C_19
REMARK    9  A    between atoms: C_21  and  C_24
REMARK   10  A    between atoms: C_23  and  C_25
REMARK   11  A    between atoms: C_35  and  C_36
REMARK                            x       y       z     vdW  Elec       q    Type
REMARK                         _______ _______ _______ _____ _____    ______ ____
ROOT
ATOM      7  N   UNL     1      -5.957   3.834  24.559  0.00  0.00    -0.297 NA
ATOM     11  C   UNL     1      -4.122   4.259  26.357  0.00  0.00    +0.002 C 
ATOM     12  C   UNL     1      -3.554   4.503  24.932  0.00  0.00    +0.055 C 
ATOM     13  C   UNL     1      -5.893   2.686  25.501  0.00  0.00    +0.074 C 
ATOM     14  C   UNL     1      -4.679   2.822  26.445  0.00  0.00    +0.024 C 
ATOM     15  C   UNL     1      -5.318   5.221  26.530  0.00  0.00    +0.019 C 
ATOM     16  C   UNL     1      -4.634   4.038  23.916  0.00  0.00    +0.094 C 
ATOM     17  C   UNL     1      -6.282   5.049  25.344  0.00  0.00    +0.085 C 
ENDROOT
BRANCH  12  18
ATOM      8  N   UNL     1      -1.041   4.705  24.639  0.00  0.00    -0.270 N 
ATOM     10  N   UNL     1       0.074   4.027  24.315  0.00  0.00    -0.171 NA
ATOM     18  C   UNL     1      -2.175   3.948  24.604  0.00  0.00    +0.044 A 
ATOM     20  C   UNL     1      -1.774   2.688  24.231  0.00  0.00    +0.053 A 
ATOM     21  C   UNL     1      -0.380   2.796  24.067  0.00  0.00    +0.093 A 
ATOM     22  C   UNL     1      -0.942   6.106  24.976  0.00  0.00    +0.172 C 
BRANCH  21  24
ATOM     24  C   UNL     1       0.525   1.747  23.676  0.00  0.00    +0.006 A 
ATOM     26  C   UNL     1       1.877   2.026  23.485  0.00  0.00    +0.059 A 
ATOM     27  C   UNL     1       0.047   0.450  23.486  0.00  0.00    +0.014 A 
ATOM     30  C   UNL     1       2.754   1.009  23.106  0.00  0.00    +0.162 A 
ATOM     31  C   UNL     1       0.923  -0.567  23.106  0.00  0.00    +0.050 A 
ATOM     32  C   UNL     1       2.277  -0.288  22.916  0.00  0.00    +0.162 A 
BRANCH  30   5
ATOM      5  O   UNL     1       4.073   1.295  22.923  0.00  0.00    -0.491 OA
ATOM     37  C   UNL     1       4.991   0.758  23.874  0.00  0.00    +0.277 C 
ENDBRANCH  30   5
BRANCH  32   6
ATOM      6  O   UNL     1       3.122  -1.290  22.545  0.00  0.00    -0.491 OA
ATOM     38  C   UNL     1       4.039  -1.761  23.530  0.00  0.00    +0.277 C 
ENDBRANCH  32   6
ENDBRANCH  21  24
ENDBRANCH  12  18
BRANCH  13  19
ATOM     19  C   UNL     1      -5.904   1.337  24.778  0.00  0.00    +0.123 C 
BRANCH  19   9
ATOM      4  O   UNL     1      -5.175  -1.211  23.673  0.00  0.00    -0.270 OA
ATOM      9  N   UNL     1      -4.683   0.629  25.000  0.00  0.00    -0.310 N 
ATOM     23  C   UNL     1      -4.408  -0.609  24.422  0.00  0.00    +0.244 C 
ATOM     39  H   UNL     1      -4.041   1.028  25.676  0.00  0.00    +0.149 HD
BRANCH  23  25
ATOM     25  C   UNL     1      -3.104  -1.227  24.773  0.00  0.00    +0.037 A 
ATOM     28  C   UNL     1      -2.278  -0.622  25.720  0.00  0.00    +0.013 A 
ATOM     29  C   UNL     1      -2.705  -2.413  24.155  0.00  0.00    +0.013 A 
ATOM     33  C   UNL     1      -1.052  -1.203  26.050  0.00  0.00    +0.013 A 
ATOM     34  C   UNL     1      -1.480  -2.993  24.485  0.00  0.00    +0.013 A 
ATOM     35  C   UNL     1      -0.653  -2.388  25.432  0.00  0.00    +0.055 A 
BRANCH  35  36
ATOM      1  F   UNL     1       0.657  -4.372  25.694  0.00  0.00    -0.166 F 
ATOM      2  F   UNL     1       1.043  -2.728  27.062  0.00  0.00    -0.166 F 
ATOM      3  F   UNL     1       1.688  -2.598  24.990  0.00  0.00    -0.166 F 
ATOM     36  C   UNL     1       0.655  -3.009  25.785  0.00  0.00    +0.417 C 
ENDBRANCH  35  36
ENDBRANCH  23  25
ENDBRANCH  19   9
ENDBRANCH  13  19
TORSDOF 8
ENDMDL
MODEL 3
REMARK VINA RESULT:      10.4      3.285      5.015
REMARK  Name = 40779509
REMARK  11 active torsions:
REMARK  status: ('A' for Active; 'I' for Inactive)
REMARK    1  A    between atoms: O_5  and  C_30
REMARK    2  A    between atoms: O_5  and  C_37
REMARK    3  A    between atoms: O_6  and  C_32
REMARK    4  A    between atoms: O_6  and  C_38
REMARK    5  A    between atoms: N_8  and  C_22
REMARK    6  A    between atoms: N_9  and  C_19
REMARK    7  A    between atoms: C_12  and  C_18
REMARK    8  A    between atoms: C_13  and  C_19
REMARK    9  A    between atoms: C_21  and  C_24
REMARK   10  A    between atoms: C_23  and  C_25
REMARK   11  A    between atoms: C_35  and  C_36
REMARK                            x       y       z     vdW  Elec       q    Type
REMARK                         _______ _______ _______ _____ _____    ______ ____
ROOT
ATOM      7  N   UNL     1      -4.125   5.219  24.423  0.00  0.00    -0.297 NA
ATOM     11  C   UNL     1      -1.642   5.071  25.196  0.00  0.00    +0.002 C 
ATOM     12  C   UNL     1      -1.826   4.376  23.818  0.00  0.00    +0.055 C 
ATOM     13  C   UNL     1      -4.057   4.716  25.820  0.00  0.00    +0.074 C 
ATOM     14  C   UNL     1      -2.595   4.425  26.224  0.00  0.00    +0.024 C 
ATOM     15  C   UNL     1      -2.093   6.537  25.018  0.00  0.00    +0.019 C 
ATOM     16  C   UNL     1      -3.352   4.328  23.523  0.00  0.00    +0.094 C 
ATOM     17  C   UNL     1      -3.499   6.563  24.393  0.00  0.00    +0.085 C 
ENDROOT
BRANCH  12  18
ATOM      8  N   UNL     1      -1.783   1.969  23.014  0.00  0.00    -0.270 N 
ATOM     10  N   UNL     1      -1.015   0.870  22.912  0.00  0.00    -0.171 NA
ATOM     18  C   UNL     1      -1.152   3.029  23.598  0.00  0.00    +0.044 A 
ATOM     20  C   UNL     1       0.115   2.592  23.899  0.00  0.00    +0.053 A 
ATOM     21  C   UNL     1       0.142   1.257  23.454  0.00  0.00    +0.093 A 
ATOM     22  C   UNL     1      -3.140   1.929  22.522  0.00  0.00    +0.172 C 
BRANCH  21  24
ATOM     24  C   UNL     1       1.252   0.344  23.539  0.00  0.00    +0.006 A 
ATOM     26  C   UNL     1       2.515   0.737  23.098  0.00  0.00    +0.059 A 
ATOM     27  C   UNL     1       1.064  -0.936  24.062  0.00  0.00    +0.014 A 
ATOM     30  C   UNL     1       3.591  -0.148  23.180  0.00  0.00    +0.162 A 
ATOM     31  C   UNL     1       2.139  -1.821  24.144  0.00  0.00    +0.050 A 
ATOM     32  C   UNL     1       3.402  -1.427  23.703  0.00  0.00    +0.162 A 
BRANCH  30   5
ATOM      5  O   UNL     1       4.819   0.248  22.746  0.00  0.00    -0.491 OA
ATOM     37  C   UNL     1       5.663   0.900  23.694  0.00  0.00    +0.277 C 
ENDBRANCH  30   5
BRANCH  32   6
ATOM      6  O   UNL     1       4.443  -2.301  23.789  0.00  0.00    -0.491 OA
ATOM     38  C   UNL     1       5.686  -1.784  24.258  0.00  0.00    +0.277 C 
ENDBRANCH  32   6
ENDBRANCH  21  24
ENDBRANCH  12  18
BRANCH  13  19
ATOM     19  C   UNL     1      -4.963   3.504  26.049  0.00  0.00    +0.123 C 
BRANCH  19   9
ATOM      4  O   UNL     1      -6.193   1.085  25.109  0.00  0.00    -0.270 OA
ATOM      9  N   UNL     1      -4.296   2.292  25.686  0.00  0.00    -0.310 N 
ATOM     23  C   UNL     1      -4.973   1.159  25.238  0.00  0.00    +0.244 C 
ATOM     39  H   UNL     1      -3.296   2.256  25.851  0.00  0.00    +0.149 HD
BRANCH  23  25
ATOM     25  C   UNL     1      -4.138  -0.029  24.926  0.00  0.00    +0.037 A 
ATOM     28  C   UNL     1      -4.590  -0.978  24.009  0.00  0.00    +0.013 A 
ATOM     29  C   UNL     1      -2.902  -0.195  25.550  0.00  0.00    +0.013 A 
ATOM     33  C   UNL     1      -3.805  -2.095  23.717  0.00  0.00    +0.013 A 
ATOM     34  C   UNL     1      -2.117  -1.310  25.258  0.00  0.00    +0.013 A 
ATOM     35  C   UNL     1      -2.568  -2.261  24.341  0.00  0.00    +0.055 A 
BRANCH  35  36
ATOM      1  F   UNL     1      -2.455  -4.556  23.680  0.00  0.00    -0.166 F 
ATOM      2  F   UNL     1      -0.957  -3.842  25.083  0.00  0.00    -0.166 F 
ATOM      3  F   UNL     1      -0.862  -3.255  22.992  0.00  0.00    -0.166 F 
ATOM     36  C   UNL     1      -1.730  -3.453  24.029  0.00  0.00    +0.417 C 
ENDBRANCH  35  36
ENDBRANCH  23  25
ENDBRANCH  19   9
ENDBRANCH  13  19
TORSDOF 8
ENDMDL
