MODEL 1
REMARK VINA RESULT:      -2.7      0.000      0.000
REMARK  Name = 45783558
REMARK  12 active torsions:
REMARK  status: ('A' for Active; 'I' for Inactive)
REMARK    1  A    between atoms: O_2  and  C_23
REMARK    2  A    between atoms: O_2  and  C_24
REMARK    3  A    between atoms: O_3  and  C_25
REMARK    4  A    between atoms: O_3  and  C_26
REMARK    5  A    between atoms: N_4  and  C_11
REMARK    6  A    between atoms: C_8  and  C_14
REMARK    7  A    between atoms: C_11  and  C_13
REMARK    8  A    between atoms: C_13  and  C_15
REMARK    9  A    between atoms: C_13  and  C_16
REMARK   10  A    between atoms: C_13  and  C_17
REMARK   11  A    between atoms: C_18  and  C_19
REMARK   12  A    between atoms: C_24  and  C_25
REMARK                            x       y       z     vdW  Elec       q    Type
REMARK                         _______ _______ _______ _____ _____    ______ ____
ROOT
ATOM      1  O   UNL     1      16.548  -5.830  29.473  0.00  0.00    -0.336 OA
ATOM      5  N   UNL     1      16.793  -6.814  27.476  0.00  0.00    -0.190 NA
ATOM      6  N   UNL     1      16.666  -4.792  28.540  0.00  0.00    -0.056 NA
ATOM     14  C   UNL     1      16.634  -6.985  28.764  0.00  0.00    +0.245 A 
ATOM     18  C   UNL     1      16.807  -5.452  27.386  0.00  0.00    +0.204 A 
ENDROOT
BRANCH  18  19
ATOM      7  N   UNL     1      17.037  -4.906  23.715  0.00  0.00    -0.221 NA
ATOM     19  C   UNL     1      16.966  -4.781  26.128  0.00  0.00    +0.041 A 
ATOM     20  C   UNL     1      17.195  -3.410  26.071  0.00  0.00    +0.018 A 
ATOM     21  C   UNL     1      16.896  -5.477  24.932  0.00  0.00    +0.126 A 
ATOM     22  C   UNL     1      17.346  -2.787  24.838  0.00  0.00    +0.068 A 
ATOM     23  C   UNL     1      17.259  -3.572  23.700  0.00  0.00    +0.215 A 
BRANCH  23   2
ATOM      2  O   UNL     1      17.404  -2.981  22.472  0.00  0.00    -0.474 OA
BRANCH   2  24
ATOM     24  C   UNL     1      16.819  -1.695  22.307  0.00  0.00    +0.258 C 
BRANCH  24  25
ATOM     25  C   UNL     1      15.345  -1.772  22.659  0.00  0.00    +0.200 C 
BRANCH  25   3
ATOM      3  O   UNL     1      14.744  -2.820  21.909  0.00  0.00    -0.380 OA
ATOM     26  C   UNL     1      13.338  -2.643  21.801  0.00  0.00    +0.194 C 
ENDBRANCH  25   3
ENDBRANCH  24  25
ENDBRANCH   2  24
ENDBRANCH  23   2
ENDBRANCH  18  19
BRANCH  14   8
ATOM      4  N   UNL     1      15.185  -8.850  29.722  0.00  0.00    -0.291 NA
ATOM      8  C   UNL     1      16.532  -8.279  29.560  0.00  0.00    +0.146 C 
ATOM      9  C   UNL     1      17.293  -9.464  28.949  0.00  0.00    +0.030 C 
ATOM     10  C   UNL     1      14.903  -9.662  28.545  0.00  0.00    +0.085 C 
ATOM     12  C   UNL     1      16.244 -10.310  28.228  0.00  0.00    +0.017 C 
BRANCH   4  11
ATOM     11  C   UNL     1      14.121  -7.924  30.061  0.00  0.00    +0.091 C 
BRANCH  11  13
ATOM     13  C   UNL     1      13.254  -8.371  31.267  0.00  0.00    -0.025 C 
ATOM     15  C   UNL     1      12.945  -9.877  31.206  0.00  0.00    +0.012 C 
ATOM     16  C   UNL     1      14.041  -8.085  32.560  0.00  0.00    +0.012 C 
ATOM     17  C   UNL     1      11.932  -7.583  31.313  0.00  0.00    +0.012 C 
ENDBRANCH  11  13
ENDBRANCH   4  11
ENDBRANCH  14   8
TORSDOF 8
ENDMDL
MODEL 2
REMARK VINA RESULT:      -2.0     23.021     26.017
REMARK  Name = 45783558
REMARK  12 active torsions:
REMARK  status: ('A' for Active; 'I' for Inactive)
REMARK    1  A    between atoms: O_2  and  C_23
REMARK    2  A    between atoms: O_2  and  C_24
REMARK    3  A    between atoms: O_3  and  C_25
REMARK    4  A    between atoms: O_3  and  C_26
REMARK    5  A    between atoms: N_4  and  C_11
REMARK    6  A    between atoms: C_8  and  C_14
REMARK    7  A    between atoms: C_11  and  C_13
REMARK    8  A    between atoms: C_13  and  C_15
REMARK    9  A    between atoms: C_13  and  C_16
REMARK   10  A    between atoms: C_13  and  C_17
REMARK   11  A    between atoms: C_18  and  C_19
REMARK   12  A    between atoms: C_24  and  C_25
REMARK                            x       y       z     vdW  Elec       q    Type
REMARK                         _______ _______ _______ _____ _____    ______ ____
ROOT
ATOM      1  O   UNL     1      -7.404 -10.167  15.298  0.00  0.00    -0.336 OA
ATOM      5  N   UNL     1      -6.976 -10.565  13.136  0.00  0.00    -0.190 NA
ATOM      6  N   UNL     1      -6.020 -10.017  15.141  0.00  0.00    -0.056 NA
ATOM     14  C   UNL     1      -7.889 -10.489  14.071  0.00  0.00    +0.245 A 
ATOM     18  C   UNL     1      -5.845 -10.268  13.840  0.00  0.00    +0.204 A 
ENDROOT
BRANCH  18  19
ATOM      7  N   UNL     1      -2.156 -10.451  13.410  0.00  0.00    -0.221 NA
ATOM     19  C   UNL     1      -4.556 -10.230  13.214  0.00  0.00    +0.041 A 
ATOM     20  C   UNL     1      -4.426  -9.948  11.858  0.00  0.00    +0.018 A 
ATOM     21  C   UNL     1      -3.400 -10.472  13.939  0.00  0.00    +0.126 A 
ATOM     22  C   UNL     1      -3.163  -9.917  11.278  0.00  0.00    +0.068 A 
ATOM     23  C   UNL     1      -2.070 -10.174  12.089  0.00  0.00    +0.215 A 
BRANCH  23   2
ATOM      2  O   UNL     1      -0.814 -10.149  11.541  0.00  0.00    -0.474 OA
BRANCH   2  24
ATOM     24  C   UNL     1      -0.414  -8.938  10.911  0.00  0.00    +0.258 C 
BRANCH  24  25
ATOM     25  C   UNL     1       0.323  -8.076  11.919  0.00  0.00    +0.200 C 
BRANCH  25   3
ATOM      3  O   UNL     1       1.626  -7.795  11.423  0.00  0.00    -0.380 OA
ATOM     26  C   UNL     1       2.222  -6.705  12.113  0.00  0.00    +0.194 C 
ENDBRANCH  25   3
ENDBRANCH  24  25
ENDBRANCH   2  24
ENDBRANCH  23   2
ENDBRANCH  18  19
BRANCH  14   8
ATOM      4  N   UNL     1     -10.200 -10.279  15.125  0.00  0.00    -0.291 NA
ATOM      8  C   UNL     1      -9.393 -10.708  13.971  0.00  0.00    +0.146 C 
ATOM      9  C   UNL     1     -10.072  -9.948  12.825  0.00  0.00    +0.030 C 
ATOM     10  C   UNL     1     -10.491  -8.861  14.959  0.00  0.00    +0.085 C 
ATOM     12  C   UNL     1     -10.712  -8.714  13.460  0.00  0.00    +0.017 C 
BRANCH   4  11
ATOM     11  C   UNL     1      -9.691 -10.620  16.440  0.00  0.00    +0.091 C 
BRANCH  11  13
ATOM     13  C   UNL     1      -9.881  -9.504  17.500  0.00  0.00    -0.025 C 
ATOM     15  C   UNL     1     -10.567 -10.047  18.766  0.00  0.00    +0.012 C 
ATOM     16  C   UNL     1      -8.491  -8.966  17.890  0.00  0.00    +0.012 C 
ATOM     17  C   UNL     1     -10.715  -8.343  16.930  0.00  0.00    +0.012 C 
ENDBRANCH  11  13
ENDBRANCH   4  11
ENDBRANCH  14   8
TORSDOF 8
ENDMDL
MODEL 3
REMARK VINA RESULT:      -1.9     15.915     18.598
REMARK  Name = 45783558
REMARK  12 active torsions:
REMARK  status: ('A' for Active; 'I' for Inactive)
REMARK    1  A    between atoms: O_2  and  C_23
REMARK    2  A    between atoms: O_2  and  C_24
REMARK    3  A    between atoms: O_3  and  C_25
REMARK    4  A    between atoms: O_3  and  C_26
REMARK    5  A    between atoms: N_4  and  C_11
REMARK    6  A    between atoms: C_8  and  C_14
REMARK    7  A    between atoms: C_11  and  C_13
REMARK    8  A    between atoms: C_13  and  C_15
REMARK    9  A    between atoms: C_13  and  C_16
REMARK   10  A    between atoms: C_13  and  C_17
REMARK   11  A    between atoms: C_18  and  C_19
REMARK   12  A    between atoms: C_24  and  C_25
REMARK                            x       y       z     vdW  Elec       q    Type
REMARK                         _______ _______ _______ _____ _____    ______ ____
ROOT
ATOM      1  O   UNL     1      -2.037   1.563  25.367  0.00  0.00    -0.336 OA
ATOM      5  N   UNL     1      -1.138  -0.284  24.472  0.00  0.00    -0.190 NA
ATOM      6  N   UNL     1      -0.812   1.956  24.811  0.00  0.00    -0.056 NA
ATOM     14  C   UNL     1      -2.150   0.231  25.123  0.00  0.00    +0.245 A 
ATOM     18  C   UNL     1      -0.343   0.813  24.303  0.00  0.00    +0.204 A 
ENDROOT
BRANCH  18  19
ATOM      7  N   UNL     1       3.128   1.636  23.254  0.00  0.00    -0.221 NA
ATOM     19  C   UNL     1       0.917   0.732  23.622  0.00  0.00    +0.041 A 
ATOM     20  C   UNL     1       1.169  -0.277  22.698  0.00  0.00    +0.018 A 
ATOM     21  C   UNL     1       1.921   1.656  23.861  0.00  0.00    +0.126 A 
ATOM     22  C   UNL     1       2.398  -0.330  22.052  0.00  0.00    +0.068 A 
ATOM     23  C   UNL     1       3.336   0.641  22.362  0.00  0.00    +0.215 A 
BRANCH  23   2
ATOM      2  O   UNL     1       4.556   0.610  21.739  0.00  0.00    -0.474 OA
BRANCH   2  24
ATOM     24  C   UNL     1       5.591  -0.114  22.393  0.00  0.00    +0.258 C 
BRANCH  24  25
ATOM     25  C   UNL     1       5.732   0.397  23.814  0.00  0.00    +0.200 C 
BRANCH  25   3
ATOM      3  O   UNL     1       5.402  -0.651  24.718  0.00  0.00    -0.380 OA
ATOM     26  C   UNL     1       4.966  -1.814  24.030  0.00  0.00    +0.194 C 
ENDBRANCH  25   3
ENDBRANCH  24  25
ENDBRANCH   2  24
ENDBRANCH  23   2
ENDBRANCH  18  19
BRANCH  14   8
ATOM      4  N   UNL     1      -4.618  -0.318  24.796  0.00  0.00    -0.291 NA
ATOM      8  C   UNL     1      -3.414  -0.448  25.634  0.00  0.00    +0.146 C 
ATOM      9  C   UNL     1      -3.305  -1.972  25.776  0.00  0.00    +0.030 C 
ATOM     10  C   UNL     1      -4.572  -1.372  23.789  0.00  0.00    +0.085 C 
ATOM     12  C   UNL     1      -3.986  -2.559  24.541  0.00  0.00    +0.017 C 
BRANCH   4  11
ATOM     11  C   UNL     1      -4.895   0.998  24.251  0.00  0.00    +0.091 C 
BRANCH  11  13
ATOM     13  C   UNL     1      -5.775   1.888  25.167  0.00  0.00    -0.025 C 
ATOM     15  C   UNL     1      -5.117   3.256  25.415  0.00  0.00    +0.012 C 
ATOM     16  C   UNL     1      -7.128   2.115  24.464  0.00  0.00    +0.012 C 
ATOM     17  C   UNL     1      -6.034   1.196  26.518  0.00  0.00    +0.012 C 
ENDBRANCH  11  13
ENDBRANCH   4  11
ENDBRANCH  14   8
TORSDOF 8
ENDMDL
MODEL 4
REMARK VINA RESULT:      -1.9      3.685      8.867
REMARK  Name = 45783558
REMARK  12 active torsions:
REMARK  status: ('A' for Active; 'I' for Inactive)
REMARK    1  A    between atoms: O_2  and  C_23
REMARK    2  A    between atoms: O_2  and  C_24
REMARK    3  A    between atoms: O_3  and  C_25
REMARK    4  A    between atoms: O_3  and  C_26
REMARK    5  A    between atoms: N_4  and  C_11
REMARK    6  A    between atoms: C_8  and  C_14
REMARK    7  A    between atoms: C_11  and  C_13
REMARK    8  A    between atoms: C_13  and  C_15
REMARK    9  A    between atoms: C_13  and  C_16
REMARK   10  A    between atoms: C_13  and  C_17
REMARK   11  A    between atoms: C_18  and  C_19
REMARK   12  A    between atoms: C_24  and  C_25
REMARK                            x       y       z     vdW  Elec       q    Type
REMARK                         _______ _______ _______ _____ _____    ______ ____
ROOT
ATOM      1  O   UNL     1      15.881  -8.658  29.005  0.00  0.00    -0.336 OA
ATOM      5  N   UNL     1      14.847  -7.474  30.601  0.00  0.00    -0.190 NA
ATOM      6  N   UNL     1      14.709  -9.361  29.314  0.00  0.00    -0.056 NA
ATOM     14  C   UNL     1      15.885  -7.561  29.807  0.00  0.00    +0.245 A 
ATOM     18  C   UNL     1      14.155  -8.600  30.262  0.00  0.00    +0.204 A 
ENDROOT
BRANCH  18  19
ATOM      7  N   UNL     1      11.332 -10.637  31.569  0.00  0.00    -0.221 NA
ATOM     19  C   UNL     1      12.910  -8.936  30.891  0.00  0.00    +0.041 A 
ATOM     20  C   UNL     1      12.086  -7.950  31.421  0.00  0.00    +0.018 A 
ATOM     21  C   UNL     1      12.491 -10.253  30.990  0.00  0.00    +0.126 A 
ATOM     22  C   UNL     1      10.884  -8.305  32.024  0.00  0.00    +0.068 A 
ATOM     23  C   UNL     1      10.556  -9.650  32.072  0.00  0.00    +0.215 A 
BRANCH  23   2
ATOM      2  O   UNL     1       9.378 -10.026  32.662  0.00  0.00    -0.474 OA
BRANCH   2  24
ATOM     24  C   UNL     1       8.454 -10.739  31.848  0.00  0.00    +0.258 C 
BRANCH  24  25
ATOM     25  C   UNL     1       7.184  -9.921  31.707  0.00  0.00    +0.200 C 
BRANCH  25   3
ATOM      3  O   UNL     1       6.712 -10.026  30.370  0.00  0.00    -0.380 OA
ATOM     26  C   UNL     1       7.603 -10.781  29.560  0.00  0.00    +0.194 C 
ENDBRANCH  25   3
ENDBRANCH  24  25
ENDBRANCH   2  24
ENDBRANCH  23   2
ENDBRANCH  18  19
BRANCH  14   8
ATOM      4  N   UNL     1      17.405  -6.179  28.299  0.00  0.00    -0.291 NA
ATOM      8  C   UNL     1      17.072  -6.619  29.664  0.00  0.00    +0.146 C 
ATOM      9  C   UNL     1      16.909  -5.274  30.385  0.00  0.00    +0.030 C 
ATOM     10  C   UNL     1      16.571  -5.024  27.990  0.00  0.00    +0.085 C 
ATOM     12  C   UNL     1      16.507  -4.267  29.308  0.00  0.00    +0.017 C 
BRANCH   4  11
ATOM     11  C   UNL     1      17.396  -7.198  27.265  0.00  0.00    +0.091 C 
BRANCH  11  13
ATOM     13  C   UNL     1      16.597  -6.805  25.996  0.00  0.00    -0.025 C 
ATOM     15  C   UNL     1      16.746  -5.305  25.685  0.00  0.00    +0.012 C 
ATOM     16  C   UNL     1      17.154  -7.609  24.805  0.00  0.00    +0.012 C 
ATOM     17  C   UNL     1      15.104  -7.143  26.162  0.00  0.00    +0.012 C 
ENDBRANCH  11  13
ENDBRANCH   4  11
ENDBRANCH  14   8
TORSDOF 8
ENDMDL
MODEL 5
REMARK VINA RESULT:      -1.5     16.109     19.171
REMARK  Name = 45783558
REMARK  12 active torsions:
REMARK  status: ('A' for Active; 'I' for Inactive)
REMARK    1  A    between atoms: O_2  and  C_23
REMARK    2  A    between atoms: O_2  and  C_24
REMARK    3  A    between atoms: O_3  and  C_25
REMARK    4  A    between atoms: O_3  and  C_26
REMARK    5  A    between atoms: N_4  and  C_11
REMARK    6  A    between atoms: C_8  and  C_14
REMARK    7  A    between atoms: C_11  and  C_13
REMARK    8  A    between atoms: C_13  and  C_15
REMARK    9  A    between atoms: C_13  and  C_16
REMARK   10  A    between atoms: C_13  and  C_17
REMARK   11  A    between atoms: C_18  and  C_19
REMARK   12  A    between atoms: C_24  and  C_25
REMARK                            x       y       z     vdW  Elec       q    Type
REMARK                         _______ _______ _______ _____ _____    ______ ____
ROOT
ATOM      1  O   UNL     1      -3.071  -0.275  24.808  0.00  0.00    -0.336 OA
ATOM      5  N   UNL     1      -1.720   1.502  24.628  0.00  0.00    -0.190 NA
ATOM      6  N   UNL     1      -1.896  -0.739  24.203  0.00  0.00    -0.056 NA
ATOM     14  C   UNL     1      -2.884   1.053  25.024  0.00  0.00    +0.245 A 
ATOM     18  C   UNL     1      -1.149   0.366  24.132  0.00  0.00    +0.204 A 
ENDROOT
BRANCH  18  19
ATOM      7  N   UNL     1       2.383   1.341  23.498  0.00  0.00    -0.221 NA
ATOM     19  C   UNL     1       0.170   0.370  23.569  0.00  0.00    +0.041 A 
ATOM     20  C   UNL     1       0.532  -0.544  22.585  0.00  0.00    +0.018 A 
ATOM     21  C   UNL     1       1.124   1.284  23.987  0.00  0.00    +0.126 A 
ATOM     22  C   UNL     1       1.817  -0.516  22.056  0.00  0.00    +0.068 A 
ATOM     23  C   UNL     1       2.698   0.437  22.542  0.00  0.00    +0.215 A 
BRANCH  23   2
ATOM      2  O   UNL     1       3.971   0.485  22.038  0.00  0.00    -0.474 OA
BRANCH   2  24
ATOM     24  C   UNL     1       4.991   0.947  22.916  0.00  0.00    +0.258 C 
BRANCH  24  25
ATOM     25  C   UNL     1       5.882  -0.220  23.298  0.00  0.00    +0.200 C 
BRANCH  25   3
ATOM      3  O   UNL     1       5.314  -0.891  24.415  0.00  0.00    -0.380 OA
ATOM     26  C   UNL     1       4.568  -2.032  24.014  0.00  0.00    +0.194 C 
ENDBRANCH  25   3
ENDBRANCH  24  25
ENDBRANCH   2  24
ENDBRANCH  23   2
ENDBRANCH  18  19
BRANCH  14   8
ATOM      4  N   UNL     1      -4.512   3.014  24.995  0.00  0.00    -0.291 NA
ATOM      8  C   UNL     1      -4.035   1.803  25.682  0.00  0.00    +0.146 C 
ATOM      9  C   UNL     1      -5.332   0.993  25.809  0.00  0.00    +0.030 C 
ATOM     10  C   UNL     1      -5.482   2.599  23.989  0.00  0.00    +0.085 C 
ATOM     12  C   UNL     1      -6.231   1.458  24.663  0.00  0.00    +0.017 C 
BRANCH   4  11
ATOM     11  C   UNL     1      -3.498   3.919  24.489  0.00  0.00    +0.091 C 
BRANCH  11  13
ATOM     13  C   UNL     1      -2.597   4.538  25.590  0.00  0.00    -0.025 C 
ATOM     15  C   UNL     1      -1.232   3.832  25.657  0.00  0.00    +0.012 C 
ATOM     16  C   UNL     1      -2.364   6.022  25.246  0.00  0.00    +0.012 C 
ATOM     17  C   UNL     1      -3.280   4.454  26.967  0.00  0.00    +0.012 C 
ENDBRANCH  11  13
ENDBRANCH   4  11
ENDBRANCH  14   8
TORSDOF 8
ENDMDL
MODEL 6
REMARK VINA RESULT:      -0.7     15.681     18.537
REMARK  Name = 45783558
REMARK  12 active torsions:
REMARK  status: ('A' for Active; 'I' for Inactive)
REMARK    1  A    between atoms: O_2  and  C_23
REMARK    2  A    between atoms: O_2  and  C_24
REMARK    3  A    between atoms: O_3  and  C_25
REMARK    4  A    between atoms: O_3  and  C_26
REMARK    5  A    between atoms: N_4  and  C_11
REMARK    6  A    between atoms: C_8  and  C_14
REMARK    7  A    between atoms: C_11  and  C_13
REMARK    8  A    between atoms: C_13  and  C_15
REMARK    9  A    between atoms: C_13  and  C_16
REMARK   10  A    between atoms: C_13  and  C_17
REMARK   11  A    between atoms: C_18  and  C_19
REMARK   12  A    between atoms: C_24  and  C_25
REMARK                            x       y       z     vdW  Elec       q    Type
REMARK                         _______ _______ _______ _____ _____    ______ ____
ROOT
ATOM      1  O   UNL     1      -2.133   2.621  24.969  0.00  0.00    -0.336 OA
ATOM      5  N   UNL     1      -1.671   1.214  23.288  0.00  0.00    -0.190 NA
ATOM      6  N   UNL     1      -0.736   2.540  24.901  0.00  0.00    -0.056 NA
ATOM     14  C   UNL     1      -2.605   1.810  23.986  0.00  0.00    +0.245 A 
ATOM     18  C   UNL     1      -0.542   1.693  23.886  0.00  0.00    +0.204 A 
ENDROOT
BRANCH  18  19
ATOM      7  N   UNL     1       3.122   1.816  23.262  0.00  0.00    -0.221 NA
ATOM     19  C   UNL     1       0.767   1.304  23.446  0.00  0.00    +0.041 A 
ATOM     20  C   UNL     1       0.973   0.091  22.796  0.00  0.00    +0.018 A 
ATOM     21  C   UNL     1       1.865   2.123  23.652  0.00  0.00    +0.126 A 
ATOM     22  C   UNL     1       2.251  -0.259  22.378  0.00  0.00    +0.068 A 
ATOM     23  C   UNL     1       3.283   0.629  22.634  0.00  0.00    +0.215 A 
BRANCH  23   2
ATOM      2  O   UNL     1       4.553   0.307  22.233  0.00  0.00    -0.474 OA
BRANCH   2  24
ATOM     24  C   UNL     1       5.603   0.576  23.154  0.00  0.00    +0.258 C 
BRANCH  24  25
ATOM     25  C   UNL     1       5.464  -0.349  24.348  0.00  0.00    +0.200 C 
BRANCH  25   3
ATOM      3  O   UNL     1       5.433  -1.695  23.891  0.00  0.00    -0.380 OA
ATOM     26  C   UNL     1       4.159  -2.288  24.102  0.00  0.00    +0.194 C 
ENDBRANCH  25   3
ENDBRANCH  24  25
ENDBRANCH   2  24
ENDBRANCH  23   2
ENDBRANCH  18  19
BRANCH  14   8
ATOM      4  N   UNL     1      -4.734   0.421  24.166  0.00  0.00    -0.291 NA
ATOM      8  C   UNL     1      -4.119   1.720  23.849  0.00  0.00    +0.146 C 
ATOM      9  C   UNL     1      -4.899   2.661  24.776  0.00  0.00    +0.030 C 
ATOM     10  C   UNL     1      -4.957   0.375  25.605  0.00  0.00    +0.085 C 
ATOM     12  C   UNL     1      -5.369   1.800  25.948  0.00  0.00    +0.017 C 
BRANCH   4  11
ATOM     11  C   UNL     1      -4.074  -0.759  23.639  0.00  0.00    +0.091 C 
BRANCH  11  13
ATOM     13  C   UNL     1      -3.382  -1.631  24.720  0.00  0.00    -0.025 C 
ATOM     15  C   UNL     1      -3.678  -1.106  26.135  0.00  0.00    +0.012 C 
ATOM     16  C   UNL     1      -3.929  -3.067  24.606  0.00  0.00    +0.012 C 
ATOM     17  C   UNL     1      -1.858  -1.667  24.501  0.00  0.00    +0.012 C 
ENDBRANCH  11  13
ENDBRANCH   4  11
ENDBRANCH  14   8
TORSDOF 8
ENDMDL
MODEL 7
REMARK VINA RESULT:       0.8      3.413      8.743
REMARK  Name = 45783558
REMARK  12 active torsions:
REMARK  status: ('A' for Active; 'I' for Inactive)
REMARK    1  A    between atoms: O_2  and  C_23
REMARK    2  A    between atoms: O_2  and  C_24
REMARK    3  A    between atoms: O_3  and  C_25
REMARK    4  A    between atoms: O_3  and  C_26
REMARK    5  A    between atoms: N_4  and  C_11
REMARK    6  A    between atoms: C_8  and  C_14
REMARK    7  A    between atoms: C_11  and  C_13
REMARK    8  A    between atoms: C_13  and  C_15
REMARK    9  A    between atoms: C_13  and  C_16
REMARK   10  A    between atoms: C_13  and  C_17
REMARK   11  A    between atoms: C_18  and  C_19
REMARK   12  A    between atoms: C_24  and  C_25
REMARK                            x       y       z     vdW  Elec       q    Type
REMARK                         _______ _______ _______ _____ _____    ______ ____
ROOT
ATOM      1  O   UNL     1      15.744  -6.753  28.535  0.00  0.00    -0.336 OA
ATOM      5  N   UNL     1      14.970  -5.892  30.453  0.00  0.00    -0.190 NA
ATOM      6  N   UNL     1      14.640  -7.536  28.897  0.00  0.00    -0.056 NA
ATOM     14  C   UNL     1      15.869  -5.810  29.505  0.00  0.00    +0.245 A 
ATOM     18  C   UNL     1      14.238  -6.966  30.037  0.00  0.00    +0.204 A 
ENDROOT
BRANCH  18  19
ATOM      7  N   UNL     1      11.715  -9.301  31.453  0.00  0.00    -0.221 NA
ATOM     19  C   UNL     1      13.112  -7.445  30.784  0.00  0.00    +0.041 A 
ATOM     20  C   UNL     1      12.334  -6.577  31.543  0.00  0.00    +0.018 A 
ATOM     21  C   UNL     1      12.763  -8.786  30.772  0.00  0.00    +0.126 A 
ATOM     22  C   UNL     1      11.247  -7.069  32.256  0.00  0.00    +0.068 A 
ATOM     23  C   UNL     1      10.982  -8.426  32.179  0.00  0.00    +0.215 A 
BRANCH  23   2
ATOM      2  O   UNL     1       9.916  -8.936  32.873  0.00  0.00    -0.474 OA
BRANCH   2  24
ATOM     24  C   UNL     1       8.672  -8.995  32.185  0.00  0.00    +0.258 C 
BRANCH  24  25
ATOM     25  C   UNL     1       7.757  -7.912  32.722  0.00  0.00    +0.200 C 
BRANCH  25   3
ATOM      3  O   UNL     1       6.751  -7.633  31.756  0.00  0.00    -0.380 OA
ATOM     26  C   UNL     1       6.876  -8.474  30.617  0.00  0.00    +0.194 C 
ENDBRANCH  25   3
ENDBRANCH  24  25
ENDBRANCH   2  24
ENDBRANCH  23   2
ENDBRANCH  18  19
BRANCH  14   8
ATOM      4  N   UNL     1      17.348  -4.415  27.968  0.00  0.00    -0.291 NA
ATOM      8  C   UNL     1      17.014  -4.818  29.343  0.00  0.00    +0.146 C 
ATOM      9  C   UNL     1      16.775  -3.457  30.009  0.00  0.00    +0.030 C 
ATOM     10  C   UNL     1      16.467  -3.313  27.602  0.00  0.00    +0.085 C 
ATOM     12  C   UNL     1      16.346  -2.510  28.889  0.00  0.00    +0.017 C 
BRANCH   4  11
ATOM     11  C   UNL     1      17.405  -5.471  26.974  0.00  0.00    +0.091 C 
BRANCH  11  13
ATOM     13  C   UNL     1      16.657  -5.140  25.656  0.00  0.00    -0.025 C 
ATOM     15  C   UNL     1      16.494  -6.392  24.778  0.00  0.00    +0.012 C 
ATOM     16  C   UNL     1      15.257  -4.608  26.016  0.00  0.00    +0.012 C 
ATOM     17  C   UNL     1      17.405  -4.055  24.860  0.00  0.00    +0.012 C 
ENDBRANCH  11  13
ENDBRANCH   4  11
ENDBRANCH  14   8
TORSDOF 8
ENDMDL
MODEL 8
REMARK VINA RESULT:       0.8     23.096     26.624
REMARK  Name = 45783558
REMARK  12 active torsions:
REMARK  status: ('A' for Active; 'I' for Inactive)
REMARK    1  A    between atoms: O_2  and  C_23
REMARK    2  A    between atoms: O_2  and  C_24
REMARK    3  A    between atoms: O_3  and  C_25
REMARK    4  A    between atoms: O_3  and  C_26
REMARK    5  A    between atoms: N_4  and  C_11
REMARK    6  A    between atoms: C_8  and  C_14
REMARK    7  A    between atoms: C_11  and  C_13
REMARK    8  A    between atoms: C_13  and  C_15
REMARK    9  A    between atoms: C_13  and  C_16
REMARK   10  A    between atoms: C_13  and  C_17
REMARK   11  A    between atoms: C_18  and  C_19
REMARK   12  A    between atoms: C_24  and  C_25
REMARK                            x       y       z     vdW  Elec       q    Type
REMARK                         _______ _______ _______ _____ _____    ______ ____
ROOT
ATOM      1  O   UNL     1      -6.952  -8.667  10.666  0.00  0.00    -0.336 OA
ATOM      5  N   UNL     1      -5.637 -10.481  10.665  0.00  0.00    -0.190 NA
ATOM      6  N   UNL     1      -5.641  -8.198  10.821  0.00  0.00    -0.056 NA
ATOM     14  C   UNL     1      -6.860 -10.020  10.582  0.00  0.00    +0.245 A 
ATOM     18  C   UNL     1      -4.924  -9.325  10.810  0.00  0.00    +0.204 A 
ENDROOT
BRANCH  18  19
ATOM      7  N   UNL     1      -1.545  -9.945  12.233  0.00  0.00    -0.221 NA
ATOM     19  C   UNL     1      -3.496  -9.333  10.944  0.00  0.00    +0.041 A 
ATOM     20  C   UNL     1      -2.683  -8.764   9.970  0.00  0.00    +0.018 A 
ATOM     21  C   UNL     1      -2.884  -9.905  12.047  0.00  0.00    +0.126 A 
ATOM     22  C   UNL     1      -1.302  -8.784  10.126  0.00  0.00    +0.068 A 
ATOM     23  C   UNL     1      -0.787  -9.382  11.265  0.00  0.00    +0.215 A 
BRANCH  23   2
ATOM      2  O   UNL     1       0.571  -9.415  11.443  0.00  0.00    -0.474 OA
BRANCH   2  24
ATOM     24  C   UNL     1       1.315  -8.329  10.902  0.00  0.00    +0.258 C 
BRANCH  24  25
ATOM     25  C   UNL     1       1.834  -7.469  12.039  0.00  0.00    +0.200 C 
BRANCH  25   3
ATOM      3  O   UNL     1       3.016  -6.803  11.613  0.00  0.00    -0.380 OA
ATOM     26  C   UNL     1       3.200  -5.576  12.305  0.00  0.00    +0.194 C 
ENDBRANCH  25   3
ENDBRANCH  24  25
ENDBRANCH   2  24
ENDBRANCH  23   2
ENDBRANCH  18  19
BRANCH  14   8
ATOM      4  N   UNL     1      -9.148 -10.666  11.500  0.00  0.00    -0.291 NA
ATOM      8  C   UNL     1      -8.167 -10.781  10.408  0.00  0.00    +0.146 C 
ATOM      9  C   UNL     1      -9.004 -10.340   9.200  0.00  0.00    +0.030 C 
ATOM     10  C   UNL     1      -9.929  -9.458  11.268  0.00  0.00    +0.085 C 
ATOM     12  C   UNL     1     -10.092  -9.422   9.755  0.00  0.00    +0.017 C 
BRANCH   4  11
ATOM     11  C   UNL     1      -8.635 -10.779  12.852  0.00  0.00    +0.091 C 
BRANCH  11  13
ATOM     13  C   UNL     1      -9.361  -9.873  13.881  0.00  0.00    -0.025 C 
ATOM     15  C   UNL     1     -10.458  -9.031  13.208  0.00  0.00    +0.012 C 
ATOM     16  C   UNL     1     -10.019 -10.778  14.942  0.00  0.00    +0.012 C 
ATOM     17  C   UNL     1      -8.363  -8.937  14.586  0.00  0.00    +0.012 C 
ENDBRANCH  11  13
ENDBRANCH   4  11
ENDBRANCH  14   8
TORSDOF 8
ENDMDL
