MODEL 1
REMARK VINA RESULT:      -0.5      0.000      0.000
REMARK  Name = 28961045
REMARK  6 active torsions:
REMARK  status: ('A' for Active; 'I' for Inactive)
REMARK    1  A    between atoms: S_1  and  N_8
REMARK    2  A    between atoms: S_1  and  C_17
REMARK    3  A    between atoms: N_7  and  C_16
REMARK    4  A    between atoms: N_8  and  C_11
REMARK    5  A    between atoms: C_12  and  C_15
REMARK    6  A    between atoms: C_18  and  C_19
REMARK                            x       y       z     vdW  Elec       q    Type
REMARK                         _______ _______ _______ _____ _____    ______ ____
ROOT
ATOM      7  N   UNL     1      -2.594  -1.470  25.153  0.00  0.00    -0.293 NA
ATOM     11  C   UNL     1      -4.563  -0.262  24.829  0.00  0.00    +0.092 C 
ATOM     12  C   UNL     1      -2.466  -0.938  23.782  0.00  0.00    +0.147 C 
ATOM     13  C   UNL     1      -3.666   0.015  23.626  0.00  0.00    +0.050 C 
ATOM     14  C   UNL     1      -4.034  -1.562  25.412  0.00  0.00    +0.105 C 
ATOM     16  C   UNL     1      -1.926  -2.753  25.336  0.00  0.00    +0.105 C 
ENDROOT
BRANCH  12  15
ATOM      2  O   UNL     1      -1.199   1.042  23.116  0.00  0.00    -0.336 OA
ATOM      9  N   UNL     1       0.075  -0.728  23.626  0.00  0.00    -0.190 NA
ATOM     10  N   UNL     1       0.128   1.453  22.939  0.00  0.00    -0.056 NA
ATOM     15  C   UNL     1      -1.141  -0.254  23.521  0.00  0.00    +0.245 A 
ATOM     18  C   UNL     1       0.819   0.355  23.259  0.00  0.00    +0.202 A 
BRANCH  18  19
ATOM      5  O   UNL     1       5.113  -1.838  24.049  0.00  0.00    -0.453 OA
ATOM      6  O   UNL     1       6.348   0.042  23.183  0.00  0.00    -0.453 OA
ATOM     19  C   UNL     1       2.252   0.307  23.225  0.00  0.00    +0.026 A 
ATOM     22  C   UNL     1       2.919  -0.828  23.693  0.00  0.00    +0.061 A 
ATOM     23  C   UNL     1       2.973   1.404  22.721  0.00  0.00    +0.015 A 
ATOM     26  C   UNL     1       4.298  -0.827  23.640  0.00  0.00    +0.167 A 
ATOM     28  C   UNL     1       5.003   0.245  23.146  0.00  0.00    +0.166 A 
ATOM     29  C   UNL     1       4.369   1.378  22.678  0.00  0.00    +0.050 A 
ATOM     30  C   UNL     1       6.411  -1.279  23.756  0.00  0.00    +0.466 C 
ENDBRANCH  18  19
ENDBRANCH  12  15
BRANCH  11   8
ATOM      8  N   UNL     1      -4.426   0.833  25.824  0.00  0.00    -0.186 NA
ATOM     31  H   UNL     1      -4.379   0.569  26.815  0.00  0.00    +0.148 HD
BRANCH   8   1
ATOM      1  S   UNL     1      -4.752   2.434  25.366  0.00  0.00    +0.059 S 
ATOM      3  O   UNL     1      -5.536   3.083  26.398  0.00  0.00    -0.153 OA
ATOM      4  O   UNL     1      -5.209   2.440  23.989  0.00  0.00    -0.153 OA
BRANCH   1  17
ATOM     17  C   UNL     1      -3.137   3.153  25.375  0.00  0.00    +0.105 A 
ATOM     20  C   UNL     1      -2.955   4.467  24.945  0.00  0.00    +0.028 A 
ATOM     21  C   UNL     1      -2.043   2.405  25.812  0.00  0.00    +0.028 A 
ATOM     24  C   UNL     1      -1.681   5.034  24.952  0.00  0.00    +0.002 A 
ATOM     25  C   UNL     1      -0.769   2.971  25.820  0.00  0.00    +0.002 A 
ATOM     27  C   UNL     1      -0.588   4.287  25.390  0.00  0.00    +0.000 A 
ENDBRANCH   1  17
ENDBRANCH   8   1
ENDBRANCH  11   8
TORSDOF 5
ENDMDL
MODEL 2
REMARK VINA RESULT:      -0.3      1.314      1.571
REMARK  Name = 28961045
REMARK  6 active torsions:
REMARK  status: ('A' for Active; 'I' for Inactive)
REMARK    1  A    between atoms: S_1  and  N_8
REMARK    2  A    between atoms: S_1  and  C_17
REMARK    3  A    between atoms: N_7  and  C_16
REMARK    4  A    between atoms: N_8  and  C_11
REMARK    5  A    between atoms: C_12  and  C_15
REMARK    6  A    between atoms: C_18  and  C_19
REMARK                            x       y       z     vdW  Elec       q    Type
REMARK                         _______ _______ _______ _____ _____    ______ ____
ROOT
ATOM      7  N   UNL     1      -4.163  -0.517  24.403  0.00  0.00    -0.293 NA
ATOM     11  C   UNL     1      -4.835   1.717  24.390  0.00  0.00    +0.092 C 
ATOM     12  C   UNL     1      -3.230   0.131  23.460  0.00  0.00    +0.147 C 
ATOM     13  C   UNL     1      -3.539   1.635  23.589  0.00  0.00    +0.050 C 
ATOM     14  C   UNL     1      -5.381   0.297  24.383  0.00  0.00    +0.105 C 
ATOM     16  C   UNL     1      -4.436  -1.911  24.073  0.00  0.00    +0.105 C 
ENDROOT
BRANCH  12  15
ATOM      2  O   UNL     1      -1.531  -1.157  24.654  0.00  0.00    -0.336 OA
ATOM      9  N   UNL     1      -0.697   0.336  23.208  0.00  0.00    -0.190 NA
ATOM     10  N   UNL     1      -0.137  -1.273  24.734  0.00  0.00    -0.056 NA
ATOM     15  C   UNL     1      -1.776  -0.188  23.733  0.00  0.00    +0.245 A 
ATOM     18  C   UNL     1       0.282  -0.361  23.853  0.00  0.00    +0.202 A 
BRANCH  18  19
ATOM      5  O   UNL     1       4.992  -1.661  23.874  0.00  0.00    -0.453 OA
ATOM      6  O   UNL     1       5.679   0.432  22.894  0.00  0.00    -0.453 OA
ATOM     19  C   UNL     1       1.673  -0.123  23.591  0.00  0.00    +0.026 A 
ATOM     22  C   UNL     1       2.615  -1.105  23.906  0.00  0.00    +0.061 A 
ATOM     23  C   UNL     1       2.074   1.098  23.021  0.00  0.00    +0.015 A 
ATOM     26  C   UNL     1       3.940  -0.830  23.636  0.00  0.00    +0.167 A 
ATOM     28  C   UNL     1       4.333   0.364  23.077  0.00  0.00    +0.166 A 
ATOM     29  C   UNL     1       3.422   1.350  22.757  0.00  0.00    +0.050 A 
ATOM     30  C   UNL     1       6.091  -0.854  23.401  0.00  0.00    +0.466 C 
ENDBRANCH  18  19
ENDBRANCH  12  15
BRANCH  11   8
ATOM      8  N   UNL     1      -4.541   2.140  25.783  0.00  0.00    -0.186 NA
ATOM     31  H   UNL     1      -4.847   1.518  26.541  0.00  0.00    +0.148 HD
BRANCH   8   1
ATOM      1  S   UNL     1      -4.106   3.748  26.101  0.00  0.00    +0.059 S 
ATOM      3  O   UNL     1      -4.212   4.007  27.524  0.00  0.00    -0.153 OA
ATOM      4  O   UNL     1      -4.781   4.610  25.149  0.00  0.00    -0.153 OA
BRANCH   1  17
ATOM     17  C   UNL     1      -2.390   3.753  25.673  0.00  0.00    +0.105 A 
ATOM     20  C   UNL     1      -1.853   4.820  24.953  0.00  0.00    +0.028 A 
ATOM     21  C   UNL     1      -1.573   2.689  26.055  0.00  0.00    +0.028 A 
ATOM     24  C   UNL     1      -0.500   4.824  24.616  0.00  0.00    +0.002 A 
ATOM     25  C   UNL     1      -0.220   2.691  25.718  0.00  0.00    +0.002 A 
ATOM     27  C   UNL     1       0.317   3.760  24.998  0.00  0.00    +0.000 A 
ENDBRANCH   1  17
ENDBRANCH   8   1
ENDBRANCH  11   8
TORSDOF 5
ENDMDL
MODEL 3
REMARK VINA RESULT:       0.6      1.398      3.508
REMARK  Name = 28961045
REMARK  6 active torsions:
REMARK  status: ('A' for Active; 'I' for Inactive)
REMARK    1  A    between atoms: S_1  and  N_8
REMARK    2  A    between atoms: S_1  and  C_17
REMARK    3  A    between atoms: N_7  and  C_16
REMARK    4  A    between atoms: N_8  and  C_11
REMARK    5  A    between atoms: C_12  and  C_15
REMARK    6  A    between atoms: C_18  and  C_19
REMARK                            x       y       z     vdW  Elec       q    Type
REMARK                         _______ _______ _______ _____ _____    ______ ____
ROOT
ATOM      7  N   UNL     1      -3.312   2.706  23.355  0.00  0.00    -0.293 NA
ATOM     11  C   UNL     1      -3.770   3.693  25.419  0.00  0.00    +0.092 C 
ATOM     12  C   UNL     1      -1.996   3.183  23.823  0.00  0.00    +0.147 C 
ATOM     13  C   UNL     1      -2.252   3.663  25.264  0.00  0.00    +0.050 C 
ATOM     14  C   UNL     1      -4.303   3.573  24.000  0.00  0.00    +0.105 C 
ATOM     16  C   UNL     1      -3.445   2.718  21.903  0.00  0.00    +0.105 C 
ENDROOT
BRANCH  12  15
ATOM      2  O   UNL     1      -1.306   0.839  23.879  0.00  0.00    -0.336 OA
ATOM      9  N   UNL     1       0.378   2.281  23.564  0.00  0.00    -0.190 NA
ATOM     10  N   UNL     1      -0.145   0.064  23.775  0.00  0.00    -0.056 NA
ATOM     15  C   UNL     1      -0.909   2.132  23.745  0.00  0.00    +0.245 A 
ATOM     18  C   UNL     1       0.805   0.985  23.590  0.00  0.00    +0.202 A 
BRANCH  18  19
ATOM      5  O   UNL     1       4.596  -2.078  23.933  0.00  0.00    -0.453 OA
ATOM      6  O   UNL     1       6.121  -0.456  23.008  0.00  0.00    -0.453 OA
ATOM     19  C   UNL     1       2.189   0.645  23.426  0.00  0.00    +0.026 A 
ATOM     22  C   UNL     1       2.640  -0.623  23.802  0.00  0.00    +0.061 A 
ATOM     23  C   UNL     1       3.079   1.591  22.887  0.00  0.00    +0.015 A 
ATOM     26  C   UNL     1       3.979  -0.904  23.625  0.00  0.00    +0.167 A 
ATOM     28  C   UNL     1       4.850   0.021  23.097  0.00  0.00    +0.166 A 
ATOM     29  C   UNL     1       4.430   1.280  22.718  0.00  0.00    +0.050 A 
ATOM     30  C   UNL     1       5.953  -1.786  23.539  0.00  0.00    +0.466 C 
ENDBRANCH  18  19
ENDBRANCH  12  15
BRANCH  11   8
ATOM      8  N   UNL     1      -4.217   2.531  26.229  0.00  0.00    -0.186 NA
ATOM     31  H   UNL     1      -3.599   2.216  26.986  0.00  0.00    +0.148 HD
BRANCH   8   1
ATOM      1  S   UNL     1      -5.466   1.536  25.657  0.00  0.00    +0.059 S 
ATOM      3  O   UNL     1      -6.007   2.092  24.432  0.00  0.00    -0.153 OA
ATOM      4  O   UNL     1      -6.347   1.212  26.764  0.00  0.00    -0.153 OA
BRANCH   1  17
ATOM     17  C   UNL     1      -4.593   0.055  25.244  0.00  0.00    +0.105 A 
ATOM     20  C   UNL     1      -4.834  -0.581  24.026  0.00  0.00    +0.028 A 
ATOM     21  C   UNL     1      -3.662  -0.479  26.136  0.00  0.00    +0.028 A 
ATOM     24  C   UNL     1      -4.145  -1.749  23.700  0.00  0.00    +0.002 A 
ATOM     25  C   UNL     1      -2.973  -1.646  25.811  0.00  0.00    +0.002 A 
ATOM     27  C   UNL     1      -3.214  -2.282  24.592  0.00  0.00    +0.000 A 
ENDBRANCH   1  17
ENDBRANCH   8   1
ENDBRANCH  11   8
TORSDOF 5
ENDMDL
MODEL 4
REMARK VINA RESULT:       2.9      1.990      4.415
REMARK  Name = 28961045
REMARK  6 active torsions:
REMARK  status: ('A' for Active; 'I' for Inactive)
REMARK    1  A    between atoms: S_1  and  N_8
REMARK    2  A    between atoms: S_1  and  C_17
REMARK    3  A    between atoms: N_7  and  C_16
REMARK    4  A    between atoms: N_8  and  C_11
REMARK    5  A    between atoms: C_12  and  C_15
REMARK    6  A    between atoms: C_18  and  C_19
REMARK                            x       y       z     vdW  Elec       q    Type
REMARK                         _______ _______ _______ _____ _____    ______ ____
ROOT
ATOM      7  N   UNL     1      -4.411   4.197  24.584  0.00  0.00    -0.293 NA
ATOM     11  C   UNL     1      -5.244   3.332  26.584  0.00  0.00    +0.092 C 
ATOM     12  C   UNL     1      -3.321   4.424  25.552  0.00  0.00    +0.147 C 
ATOM     13  C   UNL     1      -3.779   3.688  26.825  0.00  0.00    +0.050 C 
ATOM     14  C   UNL     1      -5.645   4.160  25.374  0.00  0.00    +0.105 C 
ATOM     16  C   UNL     1      -4.468   5.209  23.535  0.00  0.00    +0.105 C 
ENDROOT
BRANCH  12  15
ATOM      2  O   UNL     1      -0.999   4.896  24.951  0.00  0.00    -0.336 OA
ATOM      9  N   UNL     1      -1.583   2.747  24.722  0.00  0.00    -0.190 NA
ATOM     10  N   UNL     1       0.141   4.230  24.486  0.00  0.00    -0.056 NA
ATOM     15  C   UNL     1      -1.969   3.950  25.062  0.00  0.00    +0.245 A 
ATOM     18  C   UNL     1      -0.283   2.968  24.376  0.00  0.00    +0.202 A 
BRANCH  18  19
ATOM      5  O   UNL     1       4.047   1.134  23.049  0.00  0.00    -0.453 OA
ATOM      6  O   UNL     1       3.112  -1.049  22.640  0.00  0.00    -0.453 OA
ATOM     19  C   UNL     1       0.569   1.904  23.925  0.00  0.00    +0.026 A 
ATOM     22  C   UNL     1       1.931   2.143  23.728  0.00  0.00    +0.061 A 
ATOM     23  C   UNL     1       0.023   0.631  23.686  0.00  0.00    +0.015 A 
ATOM     26  C   UNL     1       2.709   1.090  23.295  0.00  0.00    +0.167 A 
ATOM     28  C   UNL     1       2.176  -0.157  23.061  0.00  0.00    +0.166 A 
ATOM     29  C   UNL     1       0.834  -0.419  23.248  0.00  0.00    +0.050 A 
ATOM     30  C   UNL     1       4.295  -0.226  22.634  0.00  0.00    +0.466 C 
ENDBRANCH  18  19
ENDBRANCH  12  15
BRANCH  11   8
ATOM      8  N   UNL     1      -5.367   1.885  26.272  0.00  0.00    -0.186 NA
ATOM     31  H   UNL     1      -5.201   1.221  27.037  0.00  0.00    +0.148 HD
BRANCH   8   1
ATOM      1  S   UNL     1      -5.363   1.369  24.656  0.00  0.00    +0.059 S 
ATOM      3  O   UNL     1      -4.659   2.337  23.839  0.00  0.00    -0.153 OA
ATOM      4  O   UNL     1      -6.706   0.950  24.299  0.00  0.00    -0.153 OA
BRANCH   1  17
ATOM     17  C   UNL     1      -4.373  -0.094  24.743  0.00  0.00    +0.105 A 
ATOM     20  C   UNL     1      -3.312  -0.166  25.646  0.00  0.00    +0.028 A 
ATOM     21  C   UNL     1      -4.652  -1.176  23.908  0.00  0.00    +0.028 A 
ATOM     24  C   UNL     1      -2.531  -1.319  25.714  0.00  0.00    +0.002 A 
ATOM     25  C   UNL     1      -3.872  -2.330  23.976  0.00  0.00    +0.002 A 
ATOM     27  C   UNL     1      -2.811  -2.401  24.879  0.00  0.00    +0.000 A 
ENDBRANCH   1  17
ENDBRANCH   8   1
ENDBRANCH  11   8
TORSDOF 5
ENDMDL
