MODEL 1
REMARK VINA RESULT:      -3.6      0.000      0.000
REMARK  Name = 45783382
REMARK  8 active torsions:
REMARK  status: ('A' for Active; 'I' for Inactive)
REMARK    1  A    between atoms: O_2  and  C_30
REMARK    2  A    between atoms: O_2  and  C_31
REMARK    3  A    between atoms: N_3  and  C_13
REMARK    4  A    between atoms: N_7  and  C_28
REMARK    5  A    between atoms: C_9  and  C_14
REMARK    6  A    between atoms: C_13  and  C_15
REMARK    7  A    between atoms: C_19  and  C_22
REMARK    8  A    between atoms: C_28  and  C_30
REMARK                            x       y       z     vdW  Elec       q    Type
REMARK                         _______ _______ _______ _____ _____    ______ ____
ROOT
ATOM      1  O   UNL     1      -6.747  -8.280  10.934  0.00  0.00    -0.336 OA
ATOM      4  N   UNL     1      -6.099 -10.401  11.248  0.00  0.00    -0.190 NA
ATOM      6  N   UNL     1      -5.398  -8.224  11.306  0.00  0.00    -0.056 NA
ATOM     14  C   UNL     1      -7.080  -9.597  10.924  0.00  0.00    +0.245 A 
ATOM     19  C   UNL     1      -5.087  -9.513  11.475  0.00  0.00    +0.205 A 
ENDROOT
BRANCH  19  22
ATOM      7  N   UNL     1      -4.522 -10.367  14.123  0.00  0.00    -0.326 N 
ATOM      8  N   UNL     1      -2.261 -10.780  13.556  0.00  0.00    -0.240 NA
ATOM     22  C   UNL     1      -3.778  -9.947  11.869  0.00  0.00    +0.062 A 
ATOM     25  C   UNL     1      -3.484 -10.366  13.155  0.00  0.00    +0.130 A 
ATOM     26  C   UNL     1      -2.751  -9.952  10.931  0.00  0.00    +0.016 A 
ATOM     27  C   UNL     1      -1.479 -10.371  11.306  0.00  0.00    +0.020 A 
ATOM     29  C   UNL     1      -1.288 -10.771  12.617  0.00  0.00    +0.113 A 
ATOM     33  H   UNL     1      -5.296  -9.735  13.948  0.00  0.00    +0.148 HD
BRANCH   7  28
ATOM     28  C   UNL     1      -4.314 -10.781  15.472  0.00  0.00    +0.131 C 
BRANCH  28  30
ATOM     30  C   UNL     1      -5.054  -9.852  16.420  0.00  0.00    +0.178 C 
BRANCH  30   2
ATOM      2  O   UNL     1      -4.403  -9.848  17.684  0.00  0.00    -0.381 OA
ATOM     31  C   UNL     1      -5.012 -10.760  18.586  0.00  0.00    +0.194 C 
ENDBRANCH  30   2
ENDBRANCH  28  30
ENDBRANCH   7  28
ENDBRANCH  19  22
BRANCH  14   9
ATOM      3  N   UNL     1      -9.494  -9.352  11.481  0.00  0.00    -0.287 NA
ATOM      9  C   UNL     1      -8.508  -9.930  10.545  0.00  0.00    +0.146 C 
ATOM     10  C   UNL     1      -8.902  -9.368   9.166  0.00  0.00    +0.030 C 
ATOM     11  C   UNL     1     -10.710  -9.112  10.704  0.00  0.00    +0.085 C 
ATOM     12  C   UNL     1     -10.153  -8.538   9.417  0.00  0.00    +0.017 C 
BRANCH   3  13
ATOM     13  C   UNL     1      -9.742 -10.193  12.645  0.00  0.00    +0.122 C 
BRANCH  13  15
ATOM      5  N   UNL     1     -10.719  -7.751  15.218  0.00  0.00    -0.360 N 
ATOM     15  C   UNL     1     -10.014  -9.376  13.879  0.00  0.00    -0.008 A 
ATOM     16  C   UNL     1      -9.633  -9.699  15.211  0.00  0.00    +0.004 A 
ATOM     17  C   UNL     1     -10.680  -8.172  13.915  0.00  0.00    +0.088 A 
ATOM     18  C   UNL     1     -10.088  -8.665  16.031  0.00  0.00    +0.047 A 
ATOM     20  C   UNL     1      -8.942 -10.777  15.800  0.00  0.00    +0.010 A 
ATOM     21  C   UNL     1      -9.885  -8.654  17.415  0.00  0.00    +0.026 A 
ATOM     23  C   UNL     1      -8.733 -10.780  17.184  0.00  0.00    +0.001 A 
ATOM     24  C   UNL     1      -9.197  -9.734  17.977  0.00  0.00    +0.002 A 
ATOM     32  H   UNL     1     -11.151  -6.895  15.537  0.00  0.00    +0.165 HD
ENDBRANCH  13  15
ENDBRANCH   3  13
ENDBRANCH  14   9
TORSDOF 7
ENDMDL
MODEL 2
REMARK VINA RESULT:      -0.0     13.904     16.270
REMARK  Name = 45783382
REMARK  8 active torsions:
REMARK  status: ('A' for Active; 'I' for Inactive)
REMARK    1  A    between atoms: O_2  and  C_30
REMARK    2  A    between atoms: O_2  and  C_31
REMARK    3  A    between atoms: N_3  and  C_13
REMARK    4  A    between atoms: N_7  and  C_28
REMARK    5  A    between atoms: C_9  and  C_14
REMARK    6  A    between atoms: C_13  and  C_15
REMARK    7  A    between atoms: C_19  and  C_22
REMARK    8  A    between atoms: C_28  and  C_30
REMARK                            x       y       z     vdW  Elec       q    Type
REMARK                         _______ _______ _______ _____ _____    ______ ____
ROOT
ATOM      1  O   UNL     1      -0.682  -2.770  25.392  0.00  0.00    -0.336 OA
ATOM      4  N   UNL     1      -1.120  -1.017  24.069  0.00  0.00    -0.190 NA
ATOM      6  N   UNL     1       0.555  -2.172  25.115  0.00  0.00    -0.056 NA
ATOM     14  C   UNL     1      -1.613  -2.028  24.737  0.00  0.00    +0.245 A 
ATOM     19  C   UNL     1       0.214  -1.146  24.330  0.00  0.00    +0.205 A 
ENDROOT
BRANCH  19  22
ATOM      7  N   UNL     1       0.047   1.654  24.772  0.00  0.00    -0.326 N 
ATOM      8  N   UNL     1       2.008   2.019  23.499  0.00  0.00    -0.240 NA
ATOM     22  C   UNL     1       1.179  -0.233  23.789  0.00  0.00    +0.062 A 
ATOM     25  C   UNL     1       1.113   1.135  23.995  0.00  0.00    +0.130 A 
ATOM     26  C   UNL     1       2.231  -0.728  23.025  0.00  0.00    +0.016 A 
ATOM     27  C   UNL     1       3.171   0.151  22.498  0.00  0.00    +0.020 A 
ATOM     29  C   UNL     1       3.017   1.502  22.761  0.00  0.00    +0.113 A 
ATOM     33  H   UNL     1      -0.789   1.082  24.821  0.00  0.00    +0.148 HD
BRANCH   7  28
ATOM     28  C   UNL     1      -0.104   3.048  25.037  0.00  0.00    +0.131 C 
BRANCH  28  30
ATOM     30  C   UNL     1      -1.230   3.268  26.033  0.00  0.00    +0.178 C 
BRANCH  30   2
ATOM      2  O   UNL     1      -1.953   4.440  25.679  0.00  0.00    -0.381 OA
ATOM     31  C   UNL     1      -1.158   5.330  24.909  0.00  0.00    +0.194 C 
ENDBRANCH  30   2
ENDBRANCH  28  30
ENDBRANCH   7  28
ENDBRANCH  19  22
BRANCH  14   9
ATOM      3  N   UNL     1      -4.015  -1.395  24.579  0.00  0.00    -0.287 NA
ATOM      9  C   UNL     1      -3.053  -2.474  24.881  0.00  0.00    +0.146 C 
ATOM     10  C   UNL     1      -3.423  -3.610  23.910  0.00  0.00    +0.030 C 
ATOM     11  C   UNL     1      -5.220  -2.046  24.066  0.00  0.00    +0.085 C 
ATOM     12  C   UNL     1      -4.638  -3.102  23.147  0.00  0.00    +0.017 C 
BRANCH   3  13
ATOM     13  C   UNL     1      -4.299  -0.541  25.725  0.00  0.00    +0.122 C 
BRANCH  13  15
ATOM      5  N   UNL     1      -5.495   2.905  25.238  0.00  0.00    -0.360 N 
ATOM     15  C   UNL     1      -4.600   0.874  25.309  0.00  0.00    -0.008 A 
ATOM     16  C   UNL     1      -3.999   1.589  24.235  0.00  0.00    +0.004 A 
ATOM     17  C   UNL     1      -5.516   1.710  25.907  0.00  0.00    +0.088 A 
ATOM     18  C   UNL     1      -4.577   2.859  24.213  0.00  0.00    +0.047 A 
ATOM     20  C   UNL     1      -3.016   1.274  23.277  0.00  0.00    +0.010 A 
ATOM     21  C   UNL     1      -4.221   3.835  23.276  0.00  0.00    +0.026 A 
ATOM     23  C   UNL     1      -2.648   2.241  22.334  0.00  0.00    +0.001 A 
ATOM     24  C   UNL     1      -3.242   3.500  22.335  0.00  0.00    +0.002 A 
ATOM     32  H   UNL     1      -6.068   3.706  25.466  0.00  0.00    +0.165 HD
ENDBRANCH  13  15
ENDBRANCH   3  13
ENDBRANCH  14   9
TORSDOF 7
ENDMDL
