MODEL 1
REMARK VINA RESULT:      -4.1      0.000      0.000
REMARK  Name = 45784217
REMARK  4 active torsions:
REMARK  status: ('A' for Active; 'I' for Inactive)
REMARK    1  A    between atoms: N_1  and  C_10
REMARK    2  A    between atoms: C_5  and  C_9
REMARK    3  A    between atoms: C_10  and  C_13
REMARK    4  A    between atoms: C_17  and  C_20
REMARK                            x       y       z     vdW  Elec       q    Type
REMARK                         _______ _______ _______ _____ _____    ______ ____
ROOT
ATOM      1  N   UNL     1       0.739  -0.619  23.687  0.00  0.00    -0.296 NA
ATOM      5  C   UNL     1      -1.094  -0.143  25.069  0.00  0.00    +0.070 C 
ATOM      6  C   UNL     1      -1.263  -1.543  24.455  0.00  0.00    +0.028 C 
ATOM      7  C   UNL     1      -0.003   0.525  24.221  0.00  0.00    +0.096 C 
ATOM      8  C   UNL     1      -0.287  -1.581  23.285  0.00  0.00    +0.085 C 
ENDROOT
BRANCH   5   9
ATOM      2  N   UNL     1      -2.326   2.038  25.244  0.00  0.00    -0.342 N 
ATOM      3  N   UNL     1      -3.595   0.217  25.127  0.00  0.00    -0.232 NA
ATOM      9  C   UNL     1      -2.364   0.674  25.145  0.00  0.00    +0.113 A 
ATOM     11  C   UNL     1      -3.620   2.489  25.292  0.00  0.00    +0.066 A 
ATOM     12  C   UNL     1      -4.394   1.333  25.217  0.00  0.00    +0.089 A 
ATOM     14  C   UNL     1      -4.165   3.770  25.392  0.00  0.00    +0.031 A 
ATOM     15  C   UNL     1      -5.794   1.444  25.243  0.00  0.00    +0.030 A 
ATOM     17  C   UNL     1      -5.561   3.861  25.416  0.00  0.00    -0.048 A 
ATOM     18  C   UNL     1      -6.362   2.719  25.343  0.00  0.00    +0.005 A 
ATOM     20  C   UNL     1      -6.203   5.205  25.521  0.00  0.00    +0.044 C 
ATOM     23  H   UNL     1      -1.495   2.614  25.275  0.00  0.00    +0.167 HD
ENDBRANCH   5   9
BRANCH   1  10
ATOM     10  C   UNL     1       1.612  -0.248  22.583  0.00  0.00    +0.139 C 
BRANCH  10  13
ATOM      4  N   UNL     1       3.556  -1.351  23.546  0.00  0.00    -0.259 NA
ATOM     13  C   UNL     1       3.059  -0.218  22.998  0.00  0.00    +0.055 A 
ATOM     16  C   UNL     1       3.797   0.938  22.804  0.00  0.00    +0.024 A 
ATOM     19  C   UNL     1       5.131   0.932  23.197  0.00  0.00    +0.003 A 
ATOM     21  C   UNL     1       4.856  -1.318  23.917  0.00  0.00    +0.111 A 
ATOM     22  C   UNL     1       5.678  -0.213  23.765  0.00  0.00    +0.020 A 
ENDBRANCH  10  13
ENDBRANCH   1  10
TORSDOF 3
ENDMDL
MODEL 2
REMARK VINA RESULT:      -3.2     17.026     18.593
REMARK  Name = 45784217
REMARK  4 active torsions:
REMARK  status: ('A' for Active; 'I' for Inactive)
REMARK    1  A    between atoms: N_1  and  C_10
REMARK    2  A    between atoms: C_5  and  C_9
REMARK    3  A    between atoms: C_10  and  C_13
REMARK    4  A    between atoms: C_17  and  C_20
REMARK                            x       y       z     vdW  Elec       q    Type
REMARK                         _______ _______ _______ _____ _____    ______ ____
ROOT
ATOM      1  N   UNL     1      17.342  -4.914  26.832  0.00  0.00    -0.296 NA
ATOM      5  C   UNL     1      16.617  -6.815  27.996  0.00  0.00    +0.070 C 
ATOM      6  C   UNL     1      16.188  -6.919  26.523  0.00  0.00    +0.028 C 
ATOM      7  C   UNL     1      16.993  -5.339  28.189  0.00  0.00    +0.096 C 
ATOM      8  C   UNL     1      16.315  -5.503  25.974  0.00  0.00    +0.085 C 
ENDROOT
BRANCH   5   9
ATOM      2  N   UNL     1      14.380  -6.669  29.125  0.00  0.00    -0.342 N 
ATOM      3  N   UNL     1      15.704  -8.317  29.812  0.00  0.00    -0.232 NA
ATOM      9  C   UNL     1      15.587  -7.296  28.993  0.00  0.00    +0.113 A 
ATOM     11  C   UNL     1      13.670  -7.329  30.095  0.00  0.00    +0.066 A 
ATOM     12  C   UNL     1      14.518  -8.353  30.509  0.00  0.00    +0.089 A 
ATOM     14  C   UNL     1      12.398  -7.124  30.631  0.00  0.00    +0.031 A 
ATOM     15  C   UNL     1      14.087  -9.234  31.515  0.00  0.00    +0.030 A 
ATOM     17  C   UNL     1      11.986  -8.011  31.632  0.00  0.00    -0.048 A 
ATOM     18  C   UNL     1      12.815  -9.048  32.067  0.00  0.00    +0.005 A 
ATOM     20  C   UNL     1      10.634  -7.844  32.244  0.00  0.00    +0.044 C 
ATOM     23  H   UNL     1      14.063  -5.862  28.604  0.00  0.00    +0.167 HD
ENDBRANCH   5   9
BRANCH   1  10
ATOM     10  C   UNL     1      17.405  -3.465  26.705  0.00  0.00    +0.139 C 
BRANCH  10  13
ATOM      4  N   UNL     1      17.404  -3.981  24.326  0.00  0.00    -0.259 NA
ATOM     13  C   UNL     1      17.274  -3.022  25.271  0.00  0.00    +0.055 A 
ATOM     16  C   UNL     1      17.033  -1.687  24.993  0.00  0.00    +0.024 A 
ATOM     19  C   UNL     1      16.917  -1.310  23.659  0.00  0.00    +0.003 A 
ATOM     21  C   UNL     1      17.285  -3.578  23.042  0.00  0.00    +0.111 A 
ATOM     22  C   UNL     1      17.044  -2.268  22.659  0.00  0.00    +0.020 A 
ENDBRANCH  10  13
ENDBRANCH   1  10
TORSDOF 3
ENDMDL
MODEL 3
REMARK VINA RESULT:      -1.9      2.081      7.497
REMARK  Name = 45784217
REMARK  4 active torsions:
REMARK  status: ('A' for Active; 'I' for Inactive)
REMARK    1  A    between atoms: N_1  and  C_10
REMARK    2  A    between atoms: C_5  and  C_9
REMARK    3  A    between atoms: C_10  and  C_13
REMARK    4  A    between atoms: C_17  and  C_20
REMARK                            x       y       z     vdW  Elec       q    Type
REMARK                         _______ _______ _______ _____ _____    ______ ____
ROOT
ATOM      1  N   UNL     1      -3.679   1.863  25.022  0.00  0.00    -0.296 NA
ATOM      5  C   UNL     1      -1.432   2.291  24.511  0.00  0.00    +0.070 C 
ATOM      6  C   UNL     1      -2.336   2.995  23.485  0.00  0.00    +0.028 C 
ATOM      7  C   UNL     1      -2.350   1.279  25.208  0.00  0.00    +0.096 C 
ATOM      8  C   UNL     1      -3.697   2.328  23.635  0.00  0.00    +0.085 C 
ENDROOT
BRANCH   5   9
ATOM      2  N   UNL     1       1.058   1.994  24.386  0.00  0.00    -0.342 N 
ATOM      3  N   UNL     1      -0.136   0.756  22.977  0.00  0.00    -0.232 NA
ATOM      9  C   UNL     1      -0.187   1.658  23.932  0.00  0.00    +0.113 A 
ATOM     11  C   UNL     1       1.974   1.260  23.677  0.00  0.00    +0.066 A 
ATOM     12  C   UNL     1       1.204   0.495  22.804  0.00  0.00    +0.089 A 
ATOM     14  C   UNL     1       3.367   1.201  23.722  0.00  0.00    +0.031 A 
ATOM     15  C   UNL     1       1.846  -0.385  21.917  0.00  0.00    +0.030 A 
ATOM     17  C   UNL     1       3.989   0.319  22.832  0.00  0.00    -0.048 A 
ATOM     18  C   UNL     1       3.244  -0.460  21.945  0.00  0.00    +0.005 A 
ATOM     20  C   UNL     1       5.479   0.210  22.833  0.00  0.00    +0.044 C 
ATOM     23  H   UNL     1       1.269   2.663  25.115  0.00  0.00    +0.167 HD
ENDBRANCH   5   9
BRANCH   1  10
ATOM     10  C   UNL     1      -4.747   0.914  25.301  0.00  0.00    +0.139 C 
BRANCH  10  13
ATOM      4  N   UNL     1      -3.650  -1.125  26.050  0.00  0.00    -0.259 NA
ATOM     13  C   UNL     1      -4.316  -0.506  25.048  0.00  0.00    +0.055 A 
ATOM     16  C   UNL     1      -4.611  -1.099  23.832  0.00  0.00    +0.024 A 
ATOM     19  C   UNL     1      -4.200  -2.412  23.631  0.00  0.00    +0.003 A 
ATOM     21  C   UNL     1      -3.265  -2.400  25.818  0.00  0.00    +0.111 A 
ATOM     22  C   UNL     1      -3.513  -3.081  24.637  0.00  0.00    +0.020 A 
ENDBRANCH  10  13
ENDBRANCH   1  10
TORSDOF 3
ENDMDL
MODEL 4
REMARK VINA RESULT:      -1.6      1.462      7.577
REMARK  Name = 45784217
REMARK  4 active torsions:
REMARK  status: ('A' for Active; 'I' for Inactive)
REMARK    1  A    between atoms: N_1  and  C_10
REMARK    2  A    between atoms: C_5  and  C_9
REMARK    3  A    between atoms: C_10  and  C_13
REMARK    4  A    between atoms: C_17  and  C_20
REMARK                            x       y       z     vdW  Elec       q    Type
REMARK                         _______ _______ _______ _____ _____    ______ ____
ROOT
ATOM      1  N   UNL     1      -3.072  -0.116  24.533  0.00  0.00    -0.296 NA
ATOM      5  C   UNL     1      -1.039  -0.848  23.623  0.00  0.00    +0.070 C 
ATOM      6  C   UNL     1      -1.370  -1.677  24.876  0.00  0.00    +0.028 C 
ATOM      7  C   UNL     1      -1.965   0.372  23.708  0.00  0.00    +0.096 C 
ATOM      8  C   UNL     1      -2.435  -0.873  25.611  0.00  0.00    +0.085 C 
ENDROOT
BRANCH   5   9
ATOM      2  N   UNL     1       1.414  -1.345  23.824  0.00  0.00    -0.342 N 
ATOM      3  N   UNL     1       0.896   0.663  23.024  0.00  0.00    -0.232 NA
ATOM      9  C   UNL     1       0.418  -0.474  23.476  0.00  0.00    +0.113 A 
ATOM     11  C   UNL     1       2.613  -0.728  23.578  0.00  0.00    +0.066 A 
ATOM     12  C   UNL     1       2.263   0.525  23.080  0.00  0.00    +0.089 A 
ATOM     14  C   UNL     1       3.935  -1.144  23.745  0.00  0.00    +0.031 A 
ATOM     15  C   UNL     1       3.279   1.427  22.721  0.00  0.00    +0.030 A 
ATOM     17  C   UNL     1       4.933  -0.232  23.383  0.00  0.00    -0.048 A 
ATOM     18  C   UNL     1       4.612   1.031  22.880  0.00  0.00    +0.005 A 
ATOM     20  C   UNL     1       6.367  -0.620  23.538  0.00  0.00    +0.044 C 
ATOM     23  H   UNL     1       1.291  -2.278  24.195  0.00  0.00    +0.167 HD
ENDBRANCH   5   9
BRANCH   1  10
ATOM     10  C   UNL     1      -3.909   0.964  25.034  0.00  0.00    +0.139 C 
BRANCH  10  13
ATOM      4  N   UNL     1      -1.937   2.236  25.679  0.00  0.00    -0.259 NA
ATOM     13  C   UNL     1      -3.160   2.268  25.102  0.00  0.00    +0.055 A 
ATOM     16  C   UNL     1      -3.742   3.413  24.584  0.00  0.00    +0.024 A 
ATOM     19  C   UNL     1      -3.024   4.602  24.662  0.00  0.00    +0.003 A 
ATOM     21  C   UNL     1      -1.269   3.410  25.737  0.00  0.00    +0.111 A 
ATOM     22  C   UNL     1      -1.764   4.608  25.248  0.00  0.00    +0.020 A 
ENDBRANCH  10  13
ENDBRANCH   1  10
TORSDOF 3
ENDMDL
MODEL 5
REMARK VINA RESULT:      -1.5      0.983      1.851
REMARK  Name = 45784217
REMARK  4 active torsions:
REMARK  status: ('A' for Active; 'I' for Inactive)
REMARK    1  A    between atoms: N_1  and  C_10
REMARK    2  A    between atoms: C_5  and  C_9
REMARK    3  A    between atoms: C_10  and  C_13
REMARK    4  A    between atoms: C_17  and  C_20
REMARK                            x       y       z     vdW  Elec       q    Type
REMARK                         _______ _______ _______ _____ _____    ______ ____
ROOT
ATOM      1  N   UNL     1       0.874  -0.672  23.500  0.00  0.00    -0.296 NA
ATOM      5  C   UNL     1      -0.723   0.167  24.997  0.00  0.00    +0.070 C 
ATOM      6  C   UNL     1      -1.317  -1.022  24.225  0.00  0.00    +0.028 C 
ATOM      7  C   UNL     1       0.524   0.567  24.197  0.00  0.00    +0.096 C 
ATOM      8  C   UNL     1      -0.399  -1.211  23.023  0.00  0.00    +0.085 C 
ENDROOT
BRANCH   5   9
ATOM      2  N   UNL     1      -3.000   1.219  24.894  0.00  0.00    -0.342 N 
ATOM      3  N   UNL     1      -1.381   2.497  25.723  0.00  0.00    -0.232 NA
ATOM      9  C   UNL     1      -1.676   1.320  25.219  0.00  0.00    +0.113 A 
ATOM     11  C   UNL     1      -3.599   2.411  25.210  0.00  0.00    +0.066 A 
ATOM     12  C   UNL     1      -2.568   3.192  25.726  0.00  0.00    +0.089 A 
ATOM     14  C   UNL     1      -4.915   2.861  25.092  0.00  0.00    +0.031 A 
ATOM     15  C   UNL     1      -2.849   4.501  26.153  0.00  0.00    +0.030 A 
ATOM     17  C   UNL     1      -5.176   4.166  25.523  0.00  0.00    -0.048 A 
ATOM     18  C   UNL     1      -4.162   4.973  26.044  0.00  0.00    +0.005 A 
ATOM     20  C   UNL     1      -6.565   4.704  25.422  0.00  0.00    +0.044 C 
ATOM     23  H   UNL     1      -3.459   0.412  24.493  0.00  0.00    +0.167 HD
ENDBRANCH   5   9
BRANCH   1  10
ATOM     10  C   UNL     1       1.822  -0.452  22.418  0.00  0.00    +0.139 C 
BRANCH  10  13
ATOM      4  N   UNL     1       3.838   0.883  22.693  0.00  0.00    -0.259 NA
ATOM     13  C   UNL     1       3.231  -0.303  22.927  0.00  0.00    +0.055 A 
ATOM     16  C   UNL     1       3.827  -1.360  23.595  0.00  0.00    +0.024 A 
ATOM     19  C   UNL     1       5.129  -1.190  24.053  0.00  0.00    +0.003 A 
ATOM     21  C   UNL     1       5.103   1.012  23.152  0.00  0.00    +0.111 A 
ATOM     22  C   UNL     1       5.786   0.015  23.831  0.00  0.00    +0.020 A 
ENDBRANCH  10  13
ENDBRANCH   1  10
TORSDOF 3
ENDMDL
MODEL 6
REMARK VINA RESULT:      -0.3      2.849      6.773
REMARK  Name = 45784217
REMARK  4 active torsions:
REMARK  status: ('A' for Active; 'I' for Inactive)
REMARK    1  A    between atoms: N_1  and  C_10
REMARK    2  A    between atoms: C_5  and  C_9
REMARK    3  A    between atoms: C_10  and  C_13
REMARK    4  A    between atoms: C_17  and  C_20
REMARK                            x       y       z     vdW  Elec       q    Type
REMARK                         _______ _______ _______ _____ _____    ______ ____
ROOT
ATOM      1  N   UNL     1      -0.300   3.726  25.265  0.00  0.00    -0.296 NA
ATOM      5  C   UNL     1      -0.163   1.386  25.213  0.00  0.00    +0.070 C 
ATOM      6  C   UNL     1       0.594   1.972  24.010  0.00  0.00    +0.028 C 
ATOM      7  C   UNL     1      -1.028   2.543  25.730  0.00  0.00    +0.096 C 
ATOM      8  C   UNL     1       0.100   3.409  23.894  0.00  0.00    +0.085 C 
ENDROOT
BRANCH   5   9
ATOM      2  N   UNL     1      -2.267   0.214  24.503  0.00  0.00    -0.342 N 
ATOM      3  N   UNL     1      -0.546  -1.103  24.996  0.00  0.00    -0.232 NA
ATOM      9  C   UNL     1      -0.965   0.140  24.912  0.00  0.00    +0.113 A 
ATOM     11  C   UNL     1      -2.719  -1.066  24.310  0.00  0.00    +0.066 A 
ATOM     12  C   UNL     1      -1.626  -1.870  24.624  0.00  0.00    +0.089 A 
ATOM     14  C   UNL     1      -3.951  -1.575  23.900  0.00  0.00    +0.031 A 
ATOM     15  C   UNL     1      -1.754  -3.266  24.530  0.00  0.00    +0.030 A 
ATOM     17  C   UNL     1      -4.060  -2.967  23.812  0.00  0.00    -0.048 A 
ATOM     18  C   UNL     1      -2.982  -3.799  24.121  0.00  0.00    +0.005 A 
ATOM     20  C   UNL     1      -5.355  -3.572  23.378  0.00  0.00    +0.044 C 
ATOM     23  H   UNL     1      -2.805   1.060  24.366  0.00  0.00    +0.167 HD
ENDBRANCH   5   9
BRANCH   1  10
ATOM     10  C   UNL     1      -1.103   4.937  25.342  0.00  0.00    +0.139 C 
BRANCH  10  13
ATOM      4  N   UNL     1      -3.191   4.451  26.493  0.00  0.00    -0.259 NA
ATOM     13  C   UNL     1      -2.578   4.636  25.302  0.00  0.00    +0.055 A 
ATOM     16  C   UNL     1      -3.224   4.563  24.079  0.00  0.00    +0.024 A 
ATOM     19  C   UNL     1      -4.586   4.284  24.077  0.00  0.00    +0.003 A 
ATOM     21  C   UNL     1      -4.515   4.181  26.452  0.00  0.00    +0.111 A 
ATOM     22  C   UNL     1      -5.251   4.088  25.282  0.00  0.00    +0.020 A 
ENDBRANCH  10  13
ENDBRANCH   1  10
TORSDOF 3
ENDMDL
