MODEL 1
REMARK VINA RESULT:       5.9      0.000      0.000
REMARK  Name = 11911722
REMARK  7 active torsions:
REMARK  status: ('A' for Active; 'I' for Inactive)
REMARK    1  A    between atoms: N_5  and  C_12
REMARK    2  A    between atoms: N_6  and  C_13
REMARK    3  A    between atoms: N_9  and  C_28
REMARK    4  A    between atoms: N_9  and  C_31
REMARK    5  A    between atoms: N_9  and  C_32
REMARK    6  A    between atoms: C_17  and  C_18
REMARK    7  A    between atoms: C_19  and  C_23
REMARK                            x       y       z     vdW  Elec       q    Type
REMARK                         _______ _______ _______ _____ _____    ______ ____
ROOT
ATOM      5  N   UNL     1      -4.501   0.483  24.377  0.00  0.00    -0.306 N 
ATOM      7  N   UNL     1      -2.292  -0.289  24.202  0.00  0.00    -0.214 NA
ATOM      8  N   UNL     1      -4.074  -1.775  24.852  0.00  0.00    -0.223 NA
ATOM     16  C   UNL     1      -3.595  -0.558  24.480  0.00  0.00    +0.216 A 
ATOM     19  C   UNL     1      -1.437  -1.325  24.313  0.00  0.00    +0.076 A 
ATOM     21  C   UNL     1      -3.163  -2.766  24.943  0.00  0.00    +0.116 A 
ATOM     22  C   UNL     1      -1.818  -2.599  24.682  0.00  0.00    +0.048 A 
ATOM     33  H   UNL     1      -5.461   0.284  24.637  0.00  0.00    +0.149 HD
ENDROOT
BRANCH   5  12
ATOM      2  O   UNL     1      -4.932   3.228  25.741  0.00  0.00    -0.370 OA
ATOM      3  O   UNL     1      -2.262   3.357  24.130  0.00  0.00    -0.370 OA
ATOM     10  C   UNL     1      -2.951   2.294  24.811  0.00  0.00    +0.171 C 
ATOM     11  C   UNL     1      -3.572   2.888  26.059  0.00  0.00    +0.171 C 
ATOM     12  C   UNL     1      -4.134   1.829  23.995  0.00  0.00    +0.130 C 
ATOM     13  C   UNL     1      -2.763   4.139  26.314  0.00  0.00    +0.130 C 
ATOM     14  C   UNL     1      -5.223   2.805  24.400  0.00  0.00    +0.185 C 
ATOM     15  C   UNL     1      -2.362   4.557  24.910  0.00  0.00    +0.185 C 
BRANCH  13   6
ATOM      4  O   UNL     1      -0.524   2.493  25.593  0.00  0.00    -0.270 OA
ATOM      6  N   UNL     1      -1.605   3.857  27.126  0.00  0.00    -0.303 N 
ATOM     17  C   UNL     1      -0.567   3.045  26.689  0.00  0.00    +0.251 C 
ATOM     34  H   UNL     1      -1.574   4.230  28.070  0.00  0.00    +0.149 HD
BRANCH  17  18
ATOM      1  S   UNL     1       0.125   2.442  29.239  0.00  0.00    -0.092 S 
ATOM     18  C   UNL     1       0.542   2.832  27.654  0.00  0.00    +0.074 A 
ATOM     20  C   UNL     1       1.857   2.916  27.401  0.00  0.00    +0.021 A 
ATOM     24  C   UNL     1       2.601   2.643  28.586  0.00  0.00    +0.008 A 
ATOM     25  C   UNL     1       1.784   2.369  29.659  0.00  0.00    +0.046 A 
ENDBRANCH  17  18
ENDBRANCH  13   6
ENDBRANCH   5  12
BRANCH  19  23
ATOM     23  C   UNL     1      -0.058  -1.018  24.014  0.00  0.00    +0.001 A 
ATOM     26  C   UNL     1       0.260   0.099  23.239  0.00  0.00    +0.012 A 
ATOM     27  C   UNL     1       0.963  -1.839  24.498  0.00  0.00    +0.012 A 
ATOM     28  C   UNL     1       2.610  -0.427  23.435  0.00  0.00    +0.029 A 
ATOM     29  C   UNL     1       1.592   0.395  22.950  0.00  0.00    +0.024 A 
ATOM     30  C   UNL     1       2.295  -1.544  24.208  0.00  0.00    +0.024 A 
BRANCH  28   9
ATOM      9  N   UNL     1       3.957  -0.128  23.143  0.00  0.00    -0.336 N 
ATOM     31  C   UNL     1       4.287   0.932  22.211  0.00  0.00    +0.129 C 
ATOM     32  C   UNL     1       5.028  -0.884  23.760  0.00  0.00    +0.129 C 
ENDBRANCH  28   9
ENDBRANCH  19  23
TORSDOF 5
ENDMDL
MODEL 2
REMARK VINA RESULT:       7.0      2.516      5.635
REMARK  Name = 11911722
REMARK  7 active torsions:
REMARK  status: ('A' for Active; 'I' for Inactive)
REMARK    1  A    between atoms: N_5  and  C_12
REMARK    2  A    between atoms: N_6  and  C_13
REMARK    3  A    between atoms: N_9  and  C_28
REMARK    4  A    between atoms: N_9  and  C_31
REMARK    5  A    between atoms: N_9  and  C_32
REMARK    6  A    between atoms: C_17  and  C_18
REMARK    7  A    between atoms: C_19  and  C_23
REMARK                            x       y       z     vdW  Elec       q    Type
REMARK                         _______ _______ _______ _____ _____    ______ ____
ROOT
ATOM      5  N   UNL     1      -4.582   0.889  24.508  0.00  0.00    -0.306 N 
ATOM      7  N   UNL     1      -2.821   1.975  25.614  0.00  0.00    -0.214 NA
ATOM      8  N   UNL     1      -4.448   3.227  24.352  0.00  0.00    -0.223 NA
ATOM     16  C   UNL     1      -3.931   2.065  24.835  0.00  0.00    +0.216 A 
ATOM     19  C   UNL     1      -2.211   3.140  25.914  0.00  0.00    +0.076 A 
ATOM     21  C   UNL     1      -3.788   4.354  24.690  0.00  0.00    +0.116 A 
ATOM     22  C   UNL     1      -2.653   4.372  25.476  0.00  0.00    +0.048 A 
ATOM     33  H   UNL     1      -5.377   0.963  23.883  0.00  0.00    +0.149 HD
ENDROOT
BRANCH   5  12
ATOM      2  O   UNL     1      -3.383  -1.527  22.991  0.00  0.00    -0.370 OA
ATOM      3  O   UNL     1      -2.196  -1.512  25.877  0.00  0.00    -0.370 OA
ATOM     10  C   UNL     1      -2.635  -0.471  24.987  0.00  0.00    +0.171 C 
ATOM     11  C   UNL     1      -2.242  -0.884  23.583  0.00  0.00    +0.171 C 
ATOM     12  C   UNL     1      -4.144  -0.417  24.947  0.00  0.00    +0.130 C 
ATOM     13  C   UNL     1      -1.125  -1.882  23.791  0.00  0.00    +0.130 C 
ATOM     14  C   UNL     1      -4.488  -1.465  23.905  0.00  0.00    +0.185 C 
ATOM     15  C   UNL     1      -1.498  -2.513  25.121  0.00  0.00    +0.185 C 
BRANCH  13   6
ATOM      4  O   UNL     1       0.380  -0.806  21.596  0.00  0.00    -0.270 OA
ATOM      6  N   UNL     1       0.156  -1.224  23.866  0.00  0.00    -0.303 N 
ATOM     17  C   UNL     1       0.810  -0.734  22.745  0.00  0.00    +0.251 C 
ATOM     34  H   UNL     1       0.614  -1.161  24.771  0.00  0.00    +0.149 HD
BRANCH  17  18
ATOM      1  S   UNL     1       3.417  -1.126  23.376  0.00  0.00    -0.092 S 
ATOM     18  C   UNL     1       2.134  -0.105  22.987  0.00  0.00    +0.074 A 
ATOM     20  C   UNL     1       2.427   1.203  22.930  0.00  0.00    +0.021 A 
ATOM     24  C   UNL     1       3.806   1.409  23.225  0.00  0.00    +0.008 A 
ATOM     25  C   UNL     1       4.462   0.227  23.485  0.00  0.00    +0.046 A 
ENDBRANCH  17  18
ENDBRANCH  13   6
ENDBRANCH   5  12
BRANCH  19  23
ATOM     23  C   UNL     1      -1.035   3.022  26.742  0.00  0.00    +0.001 A 
ATOM     26  C   UNL     1      -1.148   3.070  28.133  0.00  0.00    +0.012 A 
ATOM     27  C   UNL     1       0.222   2.861  26.154  0.00  0.00    +0.012 A 
ATOM     28  C   UNL     1       1.244   2.796  28.342  0.00  0.00    +0.029 A 
ATOM     29  C   UNL     1      -0.011   2.957  28.932  0.00  0.00    +0.024 A 
ATOM     30  C   UNL     1       1.360   2.748  26.953  0.00  0.00    +0.024 A 
BRANCH  28   9
ATOM      9  N   UNL     1       2.393   2.681  29.151  0.00  0.00    -0.336 N 
ATOM     31  C   UNL     1       3.577   3.465  28.858  0.00  0.00    +0.129 C 
ATOM     32  C   UNL     1       2.411   1.769  30.277  0.00  0.00    +0.129 C 
ENDBRANCH  28   9
ENDBRANCH  19  23
TORSDOF 5
ENDMDL
MODEL 3
REMARK VINA RESULT:       9.6      1.031      1.221
REMARK  Name = 11911722
REMARK  7 active torsions:
REMARK  status: ('A' for Active; 'I' for Inactive)
REMARK    1  A    between atoms: N_5  and  C_12
REMARK    2  A    between atoms: N_6  and  C_13
REMARK    3  A    between atoms: N_9  and  C_28
REMARK    4  A    between atoms: N_9  and  C_31
REMARK    5  A    between atoms: N_9  and  C_32
REMARK    6  A    between atoms: C_17  and  C_18
REMARK    7  A    between atoms: C_19  and  C_23
REMARK                            x       y       z     vdW  Elec       q    Type
REMARK                         _______ _______ _______ _____ _____    ______ ____
ROOT
ATOM      5  N   UNL     1      -3.640   0.289  23.900  0.00  0.00    -0.306 N 
ATOM      7  N   UNL     1      -1.404  -0.418  23.863  0.00  0.00    -0.214 NA
ATOM      8  N   UNL     1      -3.193  -1.991  24.226  0.00  0.00    -0.223 NA
ATOM     16  C   UNL     1      -2.718  -0.737  23.999  0.00  0.00    +0.216 A 
ATOM     19  C   UNL     1      -0.532  -1.442  23.966  0.00  0.00    +0.076 A 
ATOM     21  C   UNL     1      -2.267  -2.967  24.318  0.00  0.00    +0.116 A 
ATOM     22  C   UNL     1      -0.909  -2.750  24.195  0.00  0.00    +0.048 A 
ATOM     33  H   UNL     1      -4.614   0.049  24.055  0.00  0.00    +0.149 HD
ENDROOT
BRANCH   5  12
ATOM      2  O   UNL     1      -4.381   2.917  25.358  0.00  0.00    -0.370 OA
ATOM      3  O   UNL     1      -1.514   3.245  24.171  0.00  0.00    -0.370 OA
ATOM     10  C   UNL     1      -2.248   2.115  24.672  0.00  0.00    +0.171 C 
ATOM     11  C   UNL     1      -3.069   2.601  25.851  0.00  0.00    +0.171 C 
ATOM     12  C   UNL     1      -3.279   1.670  23.663  0.00  0.00    +0.130 C 
ATOM     13  C   UNL     1      -2.359   3.857  26.302  0.00  0.00    +0.130 C 
ATOM     14  C   UNL     1      -4.456   2.580  23.964  0.00  0.00    +0.185 C 
ATOM     15  C   UNL     1      -1.777   4.385  25.003  0.00  0.00    +0.185 C 
BRANCH  13   6
ATOM      4  O   UNL     1       0.241   2.786  25.725  0.00  0.00    -0.270 OA
ATOM      6  N   UNL     1      -1.320   3.557  27.257  0.00  0.00    -0.303 N 
ATOM     17  C   UNL     1      -0.089   3.039  26.881  0.00  0.00    +0.251 C 
ATOM     34  H   UNL     1      -1.520   3.687  28.244  0.00  0.00    +0.149 HD
BRANCH  17  18
ATOM      1  S   UNL     1       2.479   3.168  27.738  0.00  0.00    -0.092 S 
ATOM     18  C   UNL     1       0.864   2.760  27.986  0.00  0.00    +0.074 A 
ATOM     20  C   UNL     1       0.578   2.212  29.177  0.00  0.00    +0.021 A 
ATOM     24  C   UNL     1       1.760   2.108  29.965  0.00  0.00    +0.008 A 
ATOM     25  C   UNL     1       2.867   2.592  29.303  0.00  0.00    +0.046 A 
ENDBRANCH  17  18
ENDBRANCH  13   6
ENDBRANCH   5  12
BRANCH  19  23
ATOM     23  C   UNL     1       0.858  -1.082  23.819  0.00  0.00    +0.001 A 
ATOM     26  C   UNL     1       1.209   0.153  23.270  0.00  0.00    +0.012 A 
ATOM     27  C   UNL     1       1.857  -1.970  24.225  0.00  0.00    +0.012 A 
ATOM     28  C   UNL     1       3.549  -0.389  23.533  0.00  0.00    +0.029 A 
ATOM     29  C   UNL     1       2.552   0.500  23.128  0.00  0.00    +0.024 A 
ATOM     30  C   UNL     1       3.201  -1.623  24.081  0.00  0.00    +0.024 A 
BRANCH  28   9
ATOM      9  N   UNL     1       4.907  -0.038  23.389  0.00  0.00    -0.336 N 
ATOM     31  C   UNL     1       5.812  -0.895  22.649  0.00  0.00    +0.129 C 
ATOM     32  C   UNL     1       5.419   1.177  23.991  0.00  0.00    +0.129 C 
ENDBRANCH  28   9
ENDBRANCH  19  23
TORSDOF 5
ENDMDL
