MODEL 1
REMARK VINA RESULT:       2.4      0.000      0.000
REMARK  Name = 11883089
REMARK  9 active torsions:
REMARK  status: ('A' for Active; 'I' for Inactive)
REMARK    1  A    between atoms: O_2  and  C_14
REMARK    2  A    between atoms: O_3  and  C_19
REMARK    3  A    between atoms: N_7  and  C_25
REMARK    4  A    between atoms: C_9  and  C_17
REMARK    5  A    between atoms: C_11  and  C_19
REMARK    6  A    between atoms: C_11  and  C_20
REMARK    7  A    between atoms: C_12  and  C_22
REMARK    8  A    between atoms: C_22  and  C_23
REMARK    9  A    between atoms: C_28  and  C_31
REMARK                            x       y       z     vdW  Elec       q    Type
REMARK                         _______ _______ _______ _____ _____    ______ ____
ROOT
ATOM      1  S   UNL     1       0.557   2.040  25.484  0.00  0.00    -0.057 S 
ATOM      5  O   UNL     1       1.829  -0.140  21.583  0.00  0.00    -0.275 OA
ATOM      6  N   UNL     1      -0.272   1.146  23.202  0.00  0.00    -0.229 NA
ATOM      8  N   UNL     1       2.061   0.824  23.714  0.00  0.00    -0.264 N 
ATOM      9  C   UNL     1      -3.854   2.078  24.285  0.00  0.00    -0.019 C 
ATOM     10  C   UNL     1      -3.352   3.300  25.173  0.00  0.00    +0.011 C 
ATOM     11  C   UNL     1      -4.440   4.061  26.026  0.00  0.00    +0.021 C 
ATOM     12  C   UNL     1      -2.720   1.755  23.205  0.00  0.00    +0.054 C 
ATOM     13  C   UNL     1      -5.146   2.487  23.528  0.00  0.00    +0.010 C 
ATOM     14  C   UNL     1      -5.679   4.350  25.132  0.00  0.00    +0.123 C 
ATOM     15  C   UNL     1      -2.072   2.930  25.978  0.00  0.00    +0.049 C 
ATOM     16  C   UNL     1      -6.210   3.111  24.420  0.00  0.00    +0.032 C 
ATOM     17  C   UNL     1      -4.148   0.808  25.120  0.00  0.00    +0.012 C 
ATOM     18  C   UNL     1      -1.358   1.708  23.849  0.00  0.00    +0.058 A 
ATOM     20  C   UNL     1      -3.864   5.433  26.475  0.00  0.00    +0.016 C 
ATOM     21  C   UNL     1      -1.085   2.257  25.085  0.00  0.00    +0.015 A 
ATOM     24  C   UNL     1       0.787   1.258  23.973  0.00  0.00    +0.165 A 
ATOM     31  C   UNL     1       2.518   0.162  22.562  0.00  0.00    +0.222 C 
ATOM     38  H   UNL     1       2.736   1.012  24.450  0.00  0.00    +0.157 HD
ENDROOT
BRANCH  31  28
ATOM     28  C   UNL     1       4.020  -0.185  22.616  0.00  0.00    +0.075 C 
ATOM     32  C   UNL     1       4.470  -1.227  23.661  0.00  0.00    +0.013 C 
ATOM     33  C   UNL     1       4.956   0.816  23.324  0.00  0.00    +0.013 C 
ATOM     34  C   UNL     1       5.766  -0.403  23.812  0.00  0.00    +0.001 C 
ENDBRANCH  31  28
BRANCH  14   2
ATOM      2  O   UNL     1      -6.734   4.923  25.905  0.00  0.00    -0.391 OA
ATOM     35  H   UNL     1      -7.523   4.969  25.339  0.00  0.00    +0.210 HD
ENDBRANCH  14   2
BRANCH  11  19
ATOM     19  C   UNL     1      -4.856   3.338  27.326  0.00  0.00    +0.165 C 
BRANCH  19   3
ATOM      3  O   UNL     1      -6.026   2.600  27.055  0.00  0.00    -0.394 OA
ATOM     36  H   UNL     1      -6.367   2.276  27.905  0.00  0.00    +0.209 HD
ENDBRANCH  19   3
ENDBRANCH  11  19
BRANCH  12  22
ATOM     22  C   UNL     1      -2.986   0.503  22.358  0.00  0.00    +0.106 C 
BRANCH  22  23
ATOM      4  O   UNL     1      -4.170  -1.335  23.394  0.00  0.00    -0.276 OA
ATOM      7  N   UNL     1      -1.884  -1.101  23.744  0.00  0.00    -0.312 N 
ATOM     23  C   UNL     1      -3.112  -0.739  23.209  0.00  0.00    +0.214 C 
ATOM     37  H   UNL     1      -1.061  -0.564  23.485  0.00  0.00    +0.149 HD
BRANCH   7  25
ATOM     25  C   UNL     1      -1.704  -2.247  24.600  0.00  0.00    +0.073 C 
ATOM     26  C   UNL     1      -0.617  -2.012  25.644  0.00  0.00    +0.022 C 
ATOM     27  C   UNL     1      -2.939  -2.510  25.453  0.00  0.00    +0.022 C 
ATOM     29  C   UNL     1      -1.312  -1.258  26.776  0.00  0.00    +0.002 C 
ATOM     30  C   UNL     1      -2.807  -1.545  26.628  0.00  0.00    +0.002 C 
ENDBRANCH   7  25
ENDBRANCH  22  23
ENDBRANCH  12  22
TORSDOF 7
ENDMDL
