MODEL 1
REMARK VINA RESULT:      11.3      0.000      0.000
REMARK  Name = 7142364
REMARK  7 active torsions:
REMARK  status: ('A' for Active; 'I' for Inactive)
REMARK    1  A    between atoms: C_14  and  C_15
REMARK    2  A    between atoms: C_14  and  C_20
REMARK    3  A    between atoms: C_14  and  C_21
REMARK    4  A    between atoms: C_14  and  C_22
REMARK    5  A    between atoms: C_15  and  C_16
REMARK    6  A    between atoms: C_26  and  C_28
REMARK    7  A    between atoms: C_31  and  C_34
REMARK                            x       y       z     vdW  Elec       q    Type
REMARK                         _______ _______ _______ _____ _____    ______ ____
ROOT
ATOM      4  O   UNL     1       2.626  -6.188  13.025  0.00  0.00    -0.276 OA
ATOM      5  O   UNL     1       0.328  -9.141  14.280  0.00  0.00    -0.273 OA
ATOM      6  O   UNL     1      -2.699 -10.255  10.093  0.00  0.00    -0.270 OA
ATOM      7  N   UNL     1       1.287  -7.682  11.850  0.00  0.00    -0.298 N 
ATOM      8  N   UNL     1      -1.261  -8.996  11.396  0.00  0.00    -0.283 N 
ATOM      9  N   UNL     1      -1.822  -9.878  14.164  0.00  0.00    -0.283 N 
ATOM     10  C   UNL     1      -1.062  -8.157  12.569  0.00  0.00    +0.180 C 
ATOM     11  C   UNL     1       0.041  -7.110  12.368  0.00  0.00    +0.139 C 
ATOM     12  C   UNL     1       1.162  -8.812  10.926  0.00  0.00    +0.127 C 
ATOM     13  C   UNL     1      -0.241  -8.937  10.348  0.00  0.00    +0.128 C 
ATOM     16  C   UNL     1       2.510  -7.140  12.249  0.00  0.00    +0.216 C 
ATOM     17  C   UNL     1      -0.768  -9.110  13.717  0.00  0.00    +0.239 C 
ATOM     18  C   UNL     1      -2.440  -9.697  11.160  0.00  0.00    +0.249 C 
ATOM     19  C   UNL     1      -3.439  -9.814  12.256  0.00  0.00    +0.059 A 
ATOM     23  C   UNL     1      -3.113  -9.995  13.609  0.00  0.00    +0.046 A 
ATOM     24  C   UNL     1      -4.783  -9.925  11.850  0.00  0.00    +0.023 A 
ATOM     25  C   UNL     1      -4.130 -10.352  14.512  0.00  0.00    +0.024 A 
ATOM     26  C   UNL     1      -5.786 -10.231  12.769  0.00  0.00    -0.017 A 
ATOM     27  C   UNL     1      -5.457 -10.458  14.098  0.00  0.00    +0.010 A 
ATOM     35  H   UNL     1      -1.677 -10.338  15.060  0.00  0.00    +0.155 HD
ENDROOT
BRANCH  26  28
ATOM     28  C   UNL     1      -7.162 -10.335  12.333  0.00  0.00    -0.017 A 
ATOM     29  C   UNL     1      -7.493 -10.088  11.001  0.00  0.00    +0.021 A 
ATOM     30  C   UNL     1      -8.158 -10.681  13.246  0.00  0.00    +0.008 A 
ATOM     31  C   UNL     1      -8.819 -10.188  10.581  0.00  0.00    +0.055 A 
ATOM     32  C   UNL     1      -9.484 -10.781  12.827  0.00  0.00    +0.001 A 
ATOM     33  C   UNL     1      -9.814 -10.534  11.495  0.00  0.00    +0.012 A 
BRANCH  31  34
ATOM      1  F   UNL     1      -8.413 -10.627   8.265  0.00  0.00    -0.166 F 
ATOM      2  F   UNL     1     -10.466 -10.242   8.848  0.00  0.00    -0.166 F 
ATOM      3  F   UNL     1      -9.025  -8.613   8.811  0.00  0.00    -0.166 F 
ATOM     34  C   UNL     1      -9.173  -9.925   9.157  0.00  0.00    +0.417 C 
ENDBRANCH  31  34
ENDBRANCH  26  28
BRANCH  16  15
ATOM     15  C   UNL     1       3.744  -7.784  11.667  0.00  0.00    +0.102 C 
BRANCH  15  14
ATOM     14  C   UNL     1       5.039  -7.326  12.361  0.00  0.00    -0.029 C 
ATOM     20  C   UNL     1       5.239  -8.054  13.700  0.00  0.00    +0.011 C 
ATOM     21  C   UNL     1       5.034  -5.806  12.601  0.00  0.00    +0.011 C 
ATOM     22  C   UNL     1       6.218  -7.671  11.432  0.00  0.00    +0.011 C 
ENDBRANCH  15  14
ENDBRANCH  16  15
TORSDOF 4
ENDMDL
