MODEL 1
REMARK VINA RESULT:      -3.7      0.000      0.000
REMARK  Name = 45783897
REMARK  12 active torsions:
REMARK  status: ('A' for Active; 'I' for Inactive)
REMARK    1  A    between atoms: N_3  and  C_11
REMARK    2  A    between atoms: N_4  and  C_23
REMARK    3  A    between atoms: C_6  and  C_10
REMARK    4  A    between atoms: C_7  and  C_11
REMARK    5  A    between atoms: C_9  and  C_17
REMARK    6  A    between atoms: C_10  and  C_18
REMARK    7  A    between atoms: C_10  and  C_19
REMARK    8  A    between atoms: C_12  and  C_21
REMARK    9  A    between atoms: C_13  and  C_20
REMARK   10  A    between atoms: C_17  and  C_22
REMARK   11  A    between atoms: C_23  and  C_24
REMARK   12  A    between atoms: C_29  and  C_30
REMARK                            x       y       z     vdW  Elec       q    Type
REMARK                         _______ _______ _______ _____ _____    ______ ____
ROOT
ATOM      6  C   UNL     1      -1.387   0.497  24.727  0.00  0.00    +0.000 C 
ATOM      7  C   UNL     1      -0.181  -0.387  24.322  0.00  0.00    +0.032 C 
ATOM      8  C   UNL     1      -2.254  -0.224  25.770  0.00  0.00    +0.012 C 
ATOM      9  C   UNL     1      -2.789  -1.573  25.253  0.00  0.00    +0.023 C 
ATOM     12  C   UNL     1      -1.700  -2.394  24.593  0.00  0.00    -0.073 C 
ATOM     14  C   UNL     1      -0.536  -1.850  24.196  0.00  0.00    -0.022 C 
ATOM     21  C   UNL     1      -1.962  -3.867  24.441  0.00  0.00    +0.039 C 
ENDROOT
BRANCH   6  10
ATOM     10  C   UNL     1      -0.939   1.855  25.274  0.00  0.00    -0.013 C 
ATOM     18  C   UNL     1      -0.089   2.591  24.242  0.00  0.00    +0.007 C 
ATOM     19  C   UNL     1      -0.168   1.675  26.579  0.00  0.00    +0.007 C 
ENDBRANCH   6  10
BRANCH   7  11
ATOM     11  C   UNL     1       0.448   0.100  23.012  0.00  0.00    +0.112 C 
BRANCH  11   3
ATOM      1  O   UNL     1       2.871   1.705  23.124  0.00  0.00    -0.276 OA
ATOM      3  N   UNL     1       1.800  -0.352  22.899  0.00  0.00    -0.315 N 
ATOM     20  C   UNL     1       2.903   0.491  22.964  0.00  0.00    +0.216 C 
ATOM     31  H   UNL     1       1.965  -1.351  22.809  0.00  0.00    +0.149 HD
BRANCH  20  13
ATOM     13  C   UNL     1       4.220  -0.198  22.824  0.00  0.00    +0.075 C 
ATOM     15  C   UNL     1       5.396   0.314  23.602  0.00  0.00    +0.013 C 
ATOM     16  C   UNL     1       4.757  -0.990  23.980  0.00  0.00    +0.013 C 
ENDBRANCH  20  13
ENDBRANCH  11   3
ENDBRANCH   7  11
BRANCH   9  17
ATOM     17  C   UNL     1      -3.973  -1.368  24.302  0.00  0.00    +0.103 C 
BRANCH  17  22
ATOM      2  O   UNL     1      -3.744   0.810  23.272  0.00  0.00    -0.276 OA
ATOM      4  N   UNL     1      -5.289   0.509  24.983  0.00  0.00    -0.311 N 
ATOM     22  C   UNL     1      -4.297   0.096  24.104  0.00  0.00    +0.214 C 
ATOM     32  H   UNL     1      -5.687  -0.157  25.638  0.00  0.00    +0.149 HD
BRANCH   4  23
ATOM     23  C   UNL     1      -5.797   1.861  25.020  0.00  0.00    +0.139 C 
BRANCH  23  24
ATOM     24  C   UNL     1      -4.692   2.877  25.013  0.00  0.00    -0.030 A 
ATOM     25  C   UNL     1      -4.079   3.249  26.209  0.00  0.00    +0.006 A 
ATOM     26  C   UNL     1      -4.278   3.449  23.809  0.00  0.00    +0.006 A 
ATOM     27  C   UNL     1      -3.053   4.193  26.203  0.00  0.00    +0.019 A 
ATOM     28  C   UNL     1      -3.251   4.393  23.803  0.00  0.00    +0.019 A 
ATOM     29  C   UNL     1      -2.638   4.764  25.000  0.00  0.00    +0.052 A 
BRANCH  29  30
ATOM      5  N   UNL     1      -0.732   6.516  24.988  0.00  0.00    -0.191 NA
ATOM     30  C   UNL     1      -1.586   5.731  24.993  0.00  0.00    +0.099 C 
ENDBRANCH  29  30
ENDBRANCH  23  24
ENDBRANCH   4  23
ENDBRANCH  17  22
ENDBRANCH   9  17
TORSDOF 9
ENDMDL
MODEL 2
REMARK VINA RESULT:      -2.7      1.917      7.097
REMARK  Name = 45783897
REMARK  12 active torsions:
REMARK  status: ('A' for Active; 'I' for Inactive)
REMARK    1  A    between atoms: N_3  and  C_11
REMARK    2  A    between atoms: N_4  and  C_23
REMARK    3  A    between atoms: C_6  and  C_10
REMARK    4  A    between atoms: C_7  and  C_11
REMARK    5  A    between atoms: C_9  and  C_17
REMARK    6  A    between atoms: C_10  and  C_18
REMARK    7  A    between atoms: C_10  and  C_19
REMARK    8  A    between atoms: C_12  and  C_21
REMARK    9  A    between atoms: C_13  and  C_20
REMARK   10  A    between atoms: C_17  and  C_22
REMARK   11  A    between atoms: C_23  and  C_24
REMARK   12  A    between atoms: C_29  and  C_30
REMARK                            x       y       z     vdW  Elec       q    Type
REMARK                         _______ _______ _______ _____ _____    ______ ____
ROOT
ATOM      6  C   UNL     1      -3.653   2.880  25.492  0.00  0.00    +0.000 C 
ATOM      7  C   UNL     1      -3.650   3.006  23.948  0.00  0.00    +0.032 C 
ATOM      8  C   UNL     1      -2.759   3.959  26.120  0.00  0.00    +0.012 C 
ATOM      9  C   UNL     1      -1.303   3.870  25.625  0.00  0.00    +0.023 C 
ATOM     12  C   UNL     1      -1.227   3.721  24.119  0.00  0.00    -0.073 C 
ATOM     14  C   UNL     1      -2.290   3.347  23.384  0.00  0.00    -0.022 C 
ATOM     21  C   UNL     1       0.087   4.056  23.471  0.00  0.00    +0.039 C 
ENDROOT
BRANCH   6  10
ATOM     10  C   UNL     1      -5.068   2.980  26.068  0.00  0.00    -0.013 C 
ATOM     18  C   UNL     1      -5.836   1.684  25.824  0.00  0.00    +0.007 C 
ATOM     19  C   UNL     1      -5.808   4.168  25.461  0.00  0.00    +0.007 C 
ENDBRANCH   6  10
BRANCH   7  11
ATOM     11  C   UNL     1      -4.170   1.725  23.286  0.00  0.00    +0.112 C 
BRANCH  11   3
ATOM      1  O   UNL     1      -5.154  -0.918  23.998  0.00  0.00    -0.276 OA
ATOM      3  N   UNL     1      -3.404   0.592  23.703  0.00  0.00    -0.315 N 
ATOM     20  C   UNL     1      -3.961  -0.640  24.025  0.00  0.00    +0.216 C 
ATOM     31  H   UNL     1      -2.391   0.679  23.723  0.00  0.00    +0.149 HD
BRANCH  20  13
ATOM     13  C   UNL     1      -2.972  -1.681  24.432  0.00  0.00    +0.075 C 
ATOM     15  C   UNL     1      -3.226  -2.480  25.677  0.00  0.00    +0.013 C 
ATOM     16  C   UNL     1      -3.351  -3.129  24.329  0.00  0.00    +0.013 C 
ENDBRANCH  20  13
ENDBRANCH  11   3
ENDBRANCH   7  11
BRANCH   9  17
ATOM     17  C   UNL     1      -0.550   2.734  26.327  0.00  0.00    +0.103 C 
BRANCH  17  22
ATOM      2  O   UNL     1      -1.259   0.528  25.629  0.00  0.00    -0.276 OA
ATOM      4  N   UNL     1       0.515   1.560  24.536  0.00  0.00    -0.311 N 
ATOM     22  C   UNL     1      -0.498   1.481  25.482  0.00  0.00    +0.214 C 
ATOM     32  H   UNL     1       1.095   2.392  24.492  0.00  0.00    +0.149 HD
BRANCH   4  23
ATOM     23  C   UNL     1       0.796   0.503  23.592  0.00  0.00    +0.139 C 
BRANCH  23  24
ATOM     24  C   UNL     1       2.271   0.280  23.421  0.00  0.00    -0.030 A 
ATOM     25  C   UNL     1       2.833  -0.953  23.754  0.00  0.00    +0.006 A 
ATOM     26  C   UNL     1       3.079   1.306  22.930  0.00  0.00    +0.006 A 
ATOM     27  C   UNL     1       4.203  -1.160  23.595  0.00  0.00    +0.019 A 
ATOM     28  C   UNL     1       4.450   1.098  22.772  0.00  0.00    +0.019 A 
ATOM     29  C   UNL     1       5.011  -0.136  23.104  0.00  0.00    +0.052 A 
BRANCH  29  30
ATOM      5  N   UNL     1       7.555  -0.521  22.809  0.00  0.00    -0.191 NA
ATOM     30  C   UNL     1       6.415  -0.348  22.941  0.00  0.00    +0.099 C 
ENDBRANCH  29  30
ENDBRANCH  23  24
ENDBRANCH   4  23
ENDBRANCH  17  22
ENDBRANCH   9  17
TORSDOF 9
ENDMDL
MODEL 3
REMARK VINA RESULT:      -2.3      1.955      5.769
REMARK  Name = 45783897
REMARK  12 active torsions:
REMARK  status: ('A' for Active; 'I' for Inactive)
REMARK    1  A    between atoms: N_3  and  C_11
REMARK    2  A    between atoms: N_4  and  C_23
REMARK    3  A    between atoms: C_6  and  C_10
REMARK    4  A    between atoms: C_7  and  C_11
REMARK    5  A    between atoms: C_9  and  C_17
REMARK    6  A    between atoms: C_10  and  C_18
REMARK    7  A    between atoms: C_10  and  C_19
REMARK    8  A    between atoms: C_12  and  C_21
REMARK    9  A    between atoms: C_13  and  C_20
REMARK   10  A    between atoms: C_17  and  C_22
REMARK   11  A    between atoms: C_23  and  C_24
REMARK   12  A    between atoms: C_29  and  C_30
REMARK                            x       y       z     vdW  Elec       q    Type
REMARK                         _______ _______ _______ _____ _____    ______ ____
ROOT
ATOM      6  C   UNL     1      -3.727   2.501  24.228  0.00  0.00    +0.000 C 
ATOM      7  C   UNL     1      -4.413   3.651  25.007  0.00  0.00    +0.032 C 
ATOM      8  C   UNL     1      -4.743   1.396  23.898  0.00  0.00    +0.012 C 
ATOM      9  C   UNL     1      -5.397   0.809  25.162  0.00  0.00    +0.023 C 
ATOM     12  C   UNL     1      -5.861   1.893  26.113  0.00  0.00    -0.073 C 
ATOM     14  C   UNL     1      -5.422   3.161  26.020  0.00  0.00    -0.022 C 
ATOM     21  C   UNL     1      -6.880   1.498  27.146  0.00  0.00    +0.039 C 
ENDROOT
BRANCH   6  10
ATOM     10  C   UNL     1      -3.068   3.001  22.940  0.00  0.00    -0.013 C 
ATOM     18  C   UNL     1      -4.091   3.711  22.058  0.00  0.00    +0.007 C 
ATOM     19  C   UNL     1      -2.419   1.842  22.189  0.00  0.00    +0.007 C 
ENDBRANCH   6  10
BRANCH   7  11
ATOM     11  C   UNL     1      -3.379   4.541  25.706  0.00  0.00    +0.112 C 
BRANCH  11   3
ATOM      1  O   UNL     1      -0.764   5.288  24.675  0.00  0.00    -0.276 OA
ATOM      3  N   UNL     1      -2.142   3.843  25.876  0.00  0.00    -0.315 N 
ATOM     20  C   UNL     1      -0.933   4.277  25.345  0.00  0.00    +0.216 C 
ATOM     31  H   UNL     1      -2.140   3.007  26.455  0.00  0.00    +0.149 HD
BRANCH  20  13
ATOM     13  C   UNL     1       0.231   3.393  25.651  0.00  0.00    +0.075 C 
ATOM     15  C   UNL     1       0.087   2.340  26.710  0.00  0.00    +0.013 C 
ATOM     16  C   UNL     1       0.171   1.945  25.264  0.00  0.00    +0.013 C 
ENDBRANCH  20  13
ENDBRANCH  11   3
ENDBRANCH   7  11
BRANCH   9  17
ATOM     17  C   UNL     1      -4.451  -0.170  25.868  0.00  0.00    +0.103 C 
BRANCH  17  22
ATOM      2  O   UNL     1      -4.462  -1.741  24.028  0.00  0.00    -0.276 OA
ATOM      4  N   UNL     1      -2.472  -1.302  25.147  0.00  0.00    -0.311 N 
ATOM     22  C   UNL     1      -3.831  -1.156  24.904  0.00  0.00    +0.214 C 
ATOM     32  H   UNL     1      -2.038  -0.773  25.898  0.00  0.00    +0.149 HD
BRANCH   4  23
ATOM     23  C   UNL     1      -1.623  -2.183  24.378  0.00  0.00    +0.139 C 
BRANCH  23  24
ATOM     24  C   UNL     1      -0.368  -1.497  23.922  0.00  0.00    -0.030 A 
ATOM     25  C   UNL     1      -0.401  -0.642  22.820  0.00  0.00    +0.006 A 
ATOM     26  C   UNL     1       0.831  -1.715  24.601  0.00  0.00    +0.006 A 
ATOM     27  C   UNL     1       0.765  -0.005  22.397  0.00  0.00    +0.019 A 
ATOM     28  C   UNL     1       1.998  -1.077  24.178  0.00  0.00    +0.019 A 
ATOM     29  C   UNL     1       1.964  -0.221  23.075  0.00  0.00    +0.052 A 
BRANCH  29  30
ATOM      5  N   UNL     1       4.129   0.961  22.290  0.00  0.00    -0.191 NA
ATOM     30  C   UNL     1       3.159   0.432  22.642  0.00  0.00    +0.099 C 
ENDBRANCH  29  30
ENDBRANCH  23  24
ENDBRANCH   4  23
ENDBRANCH  17  22
ENDBRANCH   9  17
TORSDOF 9
ENDMDL
MODEL 4
REMARK VINA RESULT:      -1.1      2.084      6.843
REMARK  Name = 45783897
REMARK  12 active torsions:
REMARK  status: ('A' for Active; 'I' for Inactive)
REMARK    1  A    between atoms: N_3  and  C_11
REMARK    2  A    between atoms: N_4  and  C_23
REMARK    3  A    between atoms: C_6  and  C_10
REMARK    4  A    between atoms: C_7  and  C_11
REMARK    5  A    between atoms: C_9  and  C_17
REMARK    6  A    between atoms: C_10  and  C_18
REMARK    7  A    between atoms: C_10  and  C_19
REMARK    8  A    between atoms: C_12  and  C_21
REMARK    9  A    between atoms: C_13  and  C_20
REMARK   10  A    between atoms: C_17  and  C_22
REMARK   11  A    between atoms: C_23  and  C_24
REMARK   12  A    between atoms: C_29  and  C_30
REMARK                            x       y       z     vdW  Elec       q    Type
REMARK                         _______ _______ _______ _____ _____    ______ ____
ROOT
ATOM      6  C   UNL     1      -2.985   0.751  23.691  0.00  0.00    +0.000 C 
ATOM      7  C   UNL     1      -4.438   0.316  24.003  0.00  0.00    +0.032 C 
ATOM      8  C   UNL     1      -2.190  -0.422  23.096  0.00  0.00    +0.012 C 
ATOM      9  C   UNL     1      -2.144  -1.634  24.045  0.00  0.00    +0.023 C 
ATOM     12  C   UNL     1      -3.512  -1.960  24.610  0.00  0.00    -0.073 C 
ATOM     14  C   UNL     1      -4.529  -1.081  24.570  0.00  0.00    -0.022 C 
ATOM     21  C   UNL     1      -3.697  -3.338  25.181  0.00  0.00    +0.039 C 
ENDROOT
BRANCH   6  10
ATOM     10  C   UNL     1      -2.942   1.945  22.732  0.00  0.00    -0.013 C 
ATOM     18  C   UNL     1      -2.687   1.472  21.304  0.00  0.00    +0.007 C 
ATOM     19  C   UNL     1      -1.874   2.942  23.170  0.00  0.00    +0.007 C 
ENDBRANCH   6  10
BRANCH   7  11
ATOM     11  C   UNL     1      -5.116   1.301  24.963  0.00  0.00    +0.112 C 
BRANCH  11   3
ATOM      1  O   UNL     1      -5.398   4.152  25.466  0.00  0.00    -0.276 OA
ATOM      3  N   UNL     1      -4.155   2.182  25.549  0.00  0.00    -0.315 N 
ATOM     20  C   UNL     1      -4.376   3.539  25.752  0.00  0.00    +0.216 C 
ATOM     31  H   UNL     1      -3.277   1.786  25.874  0.00  0.00    +0.149 HD
BRANCH  20  13
ATOM     13  C   UNL     1      -3.234   4.266  26.382  0.00  0.00    +0.075 C 
ATOM     15  C   UNL     1      -1.848   3.711  26.236  0.00  0.00    +0.013 C 
ATOM     16  C   UNL     1      -2.237   4.963  25.504  0.00  0.00    +0.013 C 
ENDBRANCH  20  13
ENDBRANCH  11   3
ENDBRANCH   7  11
BRANCH   9  17
ATOM     17  C   UNL     1      -1.125  -1.417  25.169  0.00  0.00    +0.103 C 
BRANCH  17  22
ATOM      2  O   UNL     1      -0.331   0.773  25.823  0.00  0.00    -0.276 OA
ATOM      4  N   UNL     1       0.323  -0.118  23.778  0.00  0.00    -0.311 N 
ATOM     22  C   UNL     1      -0.349  -0.130  24.992  0.00  0.00    +0.214 C 
ATOM     32  H   UNL     1       0.246  -0.915  23.154  0.00  0.00    +0.149 HD
BRANCH   4  23
ATOM     23  C   UNL     1       1.143   0.989  23.342  0.00  0.00    +0.139 C 
BRANCH  23  24
ATOM     24  C   UNL     1       2.593   0.612  23.249  0.00  0.00    -0.030 A 
ATOM     25  C   UNL     1       2.989  -0.702  23.498  0.00  0.00    +0.006 A 
ATOM     26  C   UNL     1       3.545   1.576  22.913  0.00  0.00    +0.006 A 
ATOM     27  C   UNL     1       4.336  -1.053  23.412  0.00  0.00    +0.019 A 
ATOM     28  C   UNL     1       4.892   1.224  22.827  0.00  0.00    +0.019 A 
ATOM     29  C   UNL     1       5.288  -0.091  23.076  0.00  0.00    +0.052 A 
BRANCH  29  30
ATOM      5  N   UNL     1       7.788  -0.742  22.915  0.00  0.00    -0.191 NA
ATOM     30  C   UNL     1       6.668  -0.450  22.987  0.00  0.00    +0.099 C 
ENDBRANCH  29  30
ENDBRANCH  23  24
ENDBRANCH   4  23
ENDBRANCH  17  22
ENDBRANCH   9  17
TORSDOF 9
ENDMDL
MODEL 5
REMARK VINA RESULT:      -0.0      2.172      5.606
REMARK  Name = 45783897
REMARK  12 active torsions:
REMARK  status: ('A' for Active; 'I' for Inactive)
REMARK    1  A    between atoms: N_3  and  C_11
REMARK    2  A    between atoms: N_4  and  C_23
REMARK    3  A    between atoms: C_6  and  C_10
REMARK    4  A    between atoms: C_7  and  C_11
REMARK    5  A    between atoms: C_9  and  C_17
REMARK    6  A    between atoms: C_10  and  C_18
REMARK    7  A    between atoms: C_10  and  C_19
REMARK    8  A    between atoms: C_12  and  C_21
REMARK    9  A    between atoms: C_13  and  C_20
REMARK   10  A    between atoms: C_17  and  C_22
REMARK   11  A    between atoms: C_23  and  C_24
REMARK   12  A    between atoms: C_29  and  C_30
REMARK                            x       y       z     vdW  Elec       q    Type
REMARK                         _______ _______ _______ _____ _____    ______ ____
ROOT
ATOM      6  C   UNL     1      -2.827   2.003  24.725  0.00  0.00    +0.000 C 
ATOM      7  C   UNL     1      -2.179   2.390  23.372  0.00  0.00    +0.032 C 
ATOM      8  C   UNL     1      -3.221   3.262  25.512  0.00  0.00    +0.012 C 
ATOM      9  C   UNL     1      -2.013   4.175  25.793  0.00  0.00    +0.023 C 
ATOM     12  C   UNL     1      -1.167   4.388  24.553  0.00  0.00    -0.073 C 
ATOM     14  C   UNL     1      -1.265   3.589  23.476  0.00  0.00    -0.022 C 
ATOM     21  C   UNL     1      -0.238   5.570  24.563  0.00  0.00    +0.039 C 
ENDROOT
BRANCH   6  10
ATOM     10  C   UNL     1      -4.054   1.108  24.532  0.00  0.00    -0.013 C 
ATOM     18  C   UNL     1      -4.006   0.424  23.168  0.00  0.00    +0.007 C 
ATOM     19  C   UNL     1      -5.336   1.921  24.683  0.00  0.00    +0.007 C 
ENDBRANCH   6  10
BRANCH   7  11
ATOM     11  C   UNL     1      -1.409   1.211  22.769  0.00  0.00    +0.112 C 
BRANCH  11   3
ATOM      1  O   UNL     1       0.769  -0.485  21.853  0.00  0.00    -0.276 OA
ATOM      3  N   UNL     1      -0.062   1.187  23.248  0.00  0.00    -0.315 N 
ATOM     20  C   UNL     1       0.919   0.338  22.748  0.00  0.00    +0.216 C 
ATOM     31  H   UNL     1       0.205   1.858  23.963  0.00  0.00    +0.149 HD
BRANCH  20  13
ATOM     13  C   UNL     1       2.257   0.486  23.395  0.00  0.00    +0.075 C 
ATOM     15  C   UNL     1       3.330  -0.514  23.084  0.00  0.00    +0.013 C 
ATOM     16  C   UNL     1       3.434   0.887  22.556  0.00  0.00    +0.013 C 
ENDBRANCH  20  13
ENDBRANCH  11   3
ENDBRANCH   7  11
BRANCH   9  17
ATOM     17  C   UNL     1      -1.165   3.629  26.947  0.00  0.00    +0.103 C 
BRANCH  17  22
ATOM      2  O   UNL     1       0.720   2.507  25.925  0.00  0.00    -0.276 OA
ATOM      4  N   UNL     1      -0.959   1.247  26.925  0.00  0.00    -0.311 N 
ATOM     22  C   UNL     1      -0.345   2.428  26.532  0.00  0.00    +0.214 C 
ATOM     32  H   UNL     1      -1.843   1.283  27.423  0.00  0.00    +0.149 HD
BRANCH   4  23
ATOM     23  C   UNL     1      -0.400  -0.059  26.659  0.00  0.00    +0.139 C 
BRANCH  23  24
ATOM     24  C   UNL     1      -1.360  -0.940  25.916  0.00  0.00    -0.030 A 
ATOM     25  C   UNL     1      -2.684  -1.048  26.345  0.00  0.00    +0.006 A 
ATOM     26  C   UNL     1      -0.930  -1.652  24.795  0.00  0.00    +0.006 A 
ATOM     27  C   UNL     1      -3.576  -1.867  25.654  0.00  0.00    +0.019 A 
ATOM     28  C   UNL     1      -1.824  -2.471  24.104  0.00  0.00    +0.019 A 
ATOM     29  C   UNL     1      -3.147  -2.578  24.534  0.00  0.00    +0.052 A 
BRANCH  29  30
ATOM      5  N   UNL     1      -4.805  -4.099  23.251  0.00  0.00    -0.191 NA
ATOM     30  C   UNL     1      -4.062  -3.418  23.826  0.00  0.00    +0.099 C 
ENDBRANCH  29  30
ENDBRANCH  23  24
ENDBRANCH   4  23
ENDBRANCH  17  22
ENDBRANCH   9  17
TORSDOF 9
ENDMDL
MODEL 6
REMARK VINA RESULT:       0.1      1.777      6.989
REMARK  Name = 45783897
REMARK  12 active torsions:
REMARK  status: ('A' for Active; 'I' for Inactive)
REMARK    1  A    between atoms: N_3  and  C_11
REMARK    2  A    between atoms: N_4  and  C_23
REMARK    3  A    between atoms: C_6  and  C_10
REMARK    4  A    between atoms: C_7  and  C_11
REMARK    5  A    between atoms: C_9  and  C_17
REMARK    6  A    between atoms: C_10  and  C_18
REMARK    7  A    between atoms: C_10  and  C_19
REMARK    8  A    between atoms: C_12  and  C_21
REMARK    9  A    between atoms: C_13  and  C_20
REMARK   10  A    between atoms: C_17  and  C_22
REMARK   11  A    between atoms: C_23  and  C_24
REMARK   12  A    between atoms: C_29  and  C_30
REMARK                            x       y       z     vdW  Elec       q    Type
REMARK                         _______ _______ _______ _____ _____    ______ ____
ROOT
ATOM      6  C   UNL     1      -3.525   2.782  25.490  0.00  0.00    +0.000 C 
ATOM      7  C   UNL     1      -4.368   2.165  24.345  0.00  0.00    +0.032 C 
ATOM      8  C   UNL     1      -2.424   3.687  24.917  0.00  0.00    +0.012 C 
ATOM      9  C   UNL     1      -1.478   2.926  23.969  0.00  0.00    +0.023 C 
ATOM     12  C   UNL     1      -2.242   2.076  22.974  0.00  0.00    -0.073 C 
ATOM     14  C   UNL     1      -3.537   1.758  23.151  0.00  0.00    -0.022 C 
ATOM     21  C   UNL     1      -1.495   1.639  21.744  0.00  0.00    +0.039 C 
ENDROOT
BRANCH   6  10
ATOM     10  C   UNL     1      -4.393   3.577  26.469  0.00  0.00    -0.013 C 
ATOM     18  C   UNL     1      -5.565   4.226  25.738  0.00  0.00    +0.007 C 
ATOM     19  C   UNL     1      -3.555   4.630  27.190  0.00  0.00    +0.007 C 
ENDBRANCH   6  10
BRANCH   7  11
ATOM     11  C   UNL     1      -5.176   0.960  24.840  0.00  0.00    +0.112 C 
BRANCH  11   3
ATOM      1  O   UNL     1      -4.454  -1.501  23.468  0.00  0.00    -0.276 OA
ATOM      3  N   UNL     1      -4.307  -0.076  25.306  0.00  0.00    -0.315 N 
ATOM     20  C   UNL     1      -4.018  -1.225  24.578  0.00  0.00    +0.216 C 
ATOM     31  H   UNL     1      -3.841   0.055  26.200  0.00  0.00    +0.149 HD
BRANCH  20  13
ATOM     13  C   UNL     1      -3.083  -2.171  25.258  0.00  0.00    +0.075 C 
ATOM     15  C   UNL     1      -1.851  -2.624  24.532  0.00  0.00    +0.013 C 
ATOM     16  C   UNL     1      -1.734  -1.680  25.692  0.00  0.00    +0.013 C 
ENDBRANCH  20  13
ENDBRANCH  11   3
ENDBRANCH   7  11
BRANCH   9  17
ATOM     17  C   UNL     1      -0.474   2.078  24.756  0.00  0.00    +0.103 C 
BRANCH  17  22
ATOM      2  O   UNL     1       1.582   2.034  23.480  0.00  0.00    -0.276 OA
ATOM      4  N   UNL     1       0.221   0.150  23.524  0.00  0.00    -0.311 N 
ATOM     22  C   UNL     1       0.569   1.452  23.857  0.00  0.00    +0.214 C 
ATOM     32  H   UNL     1      -0.641  -0.247  23.885  0.00  0.00    +0.149 HD
BRANCH   4  23
ATOM     23  C   UNL     1       1.034  -0.690  22.674  0.00  0.00    +0.139 C 
BRANCH  23  24
ATOM     24  C   UNL     1       2.500  -0.485  22.918  0.00  0.00    -0.030 A 
ATOM     25  C   UNL     1       3.155   0.611  22.354  0.00  0.00    +0.006 A 
ATOM     26  C   UNL     1       3.209  -1.390  23.708  0.00  0.00    +0.006 A 
ATOM     27  C   UNL     1       4.517   0.801  22.580  0.00  0.00    +0.019 A 
ATOM     28  C   UNL     1       4.573  -1.199  23.935  0.00  0.00    +0.019 A 
ATOM     29  C   UNL     1       5.227  -0.103  23.371  0.00  0.00    +0.052 A 
BRANCH  29  30
ATOM      5  N   UNL     1       7.757   0.251  23.792  0.00  0.00    -0.191 NA
ATOM     30  C   UNL     1       6.623   0.093  23.603  0.00  0.00    +0.099 C 
ENDBRANCH  29  30
ENDBRANCH  23  24
ENDBRANCH   4  23
ENDBRANCH  17  22
ENDBRANCH   9  17
TORSDOF 9
ENDMDL
