MODEL 1
REMARK VINA RESULT:      -2.6      0.000      0.000
REMARK  Name = 45783394
REMARK  9 active torsions:
REMARK  status: ('A' for Active; 'I' for Inactive)
REMARK    1  A    between atoms: O_2  and  C_28
REMARK    2  A    between atoms: O_2  and  C_29
REMARK    3  A    between atoms: N_3  and  C_12
REMARK    4  A    between atoms: N_6  and  C_26
REMARK    5  A    between atoms: C_8  and  C_13
REMARK    6  A    between atoms: C_12  and  C_14
REMARK    7  A    between atoms: C_17  and  C_20
REMARK    8  A    between atoms: C_21  and  C_23
REMARK    9  A    between atoms: C_26  and  C_28
REMARK                            x       y       z     vdW  Elec       q    Type
REMARK                         _______ _______ _______ _____ _____    ______ ____
ROOT
ATOM      1  O   UNL     1      14.287  -6.856  29.592  0.00  0.00    -0.336 OA
ATOM      4  N   UNL     1      15.770  -8.453  29.075  0.00  0.00    -0.190 NA
ATOM      5  N   UNL     1      14.582  -6.689  28.233  0.00  0.00    -0.056 NA
ATOM     13  C   UNL     1      15.028  -7.916  30.009  0.00  0.00    +0.245 A 
ATOM     17  C   UNL     1      15.463  -7.667  28.003  0.00  0.00    +0.205 A 
ENDROOT
BRANCH  17  20
ATOM      6  N   UNL     1      16.758  -5.582  26.571  0.00  0.00    -0.326 N 
ATOM      7  N   UNL     1      17.256  -7.054  24.787  0.00  0.00    -0.240 NA
ATOM     20  C   UNL     1      16.055  -7.885  26.714  0.00  0.00    +0.062 A 
ATOM     22  C   UNL     1      16.690  -6.880  26.002  0.00  0.00    +0.130 A 
ATOM     24  C   UNL     1      15.997  -9.151  26.142  0.00  0.00    +0.016 A 
ATOM     25  C   UNL     1      16.568  -9.371  24.894  0.00  0.00    +0.020 A 
ATOM     27  C   UNL     1      17.180  -8.299  24.263  0.00  0.00    +0.113 A 
ATOM     30  H   UNL     1      16.674  -5.533  27.581  0.00  0.00    +0.148 HD
BRANCH   6  26
ATOM     26  C   UNL     1      17.390  -4.487  25.914  0.00  0.00    +0.131 C 
BRANCH  26  28
ATOM     28  C   UNL     1      16.404  -3.796  24.989  0.00  0.00    +0.178 C 
BRANCH  28   2
ATOM      2  O   UNL     1      17.074  -2.771  24.264  0.00  0.00    -0.381 OA
ATOM     29  C   UNL     1      16.248  -2.230  23.242  0.00  0.00    +0.194 C 
ENDBRANCH  28   2
ENDBRANCH  26  28
ENDBRANCH   6  26
ENDBRANCH  17  20
BRANCH  13   8
ATOM      3  N   UNL     1      13.613  -9.005  31.744  0.00  0.00    -0.287 NA
ATOM      8  C   UNL     1      14.885  -8.308  31.466  0.00  0.00    +0.146 C 
ATOM      9  C   UNL     1      15.979  -9.287  31.928  0.00  0.00    +0.030 C 
ATOM     10  C   UNL     1      15.227 -10.478  32.506  0.00  0.00    +0.017 C 
ATOM     11  C   UNL     1      13.873  -9.902  32.870  0.00  0.00    +0.085 C 
BRANCH   3  12
ATOM     12  C   UNL     1      12.506  -8.097  32.011  0.00  0.00    +0.120 C 
BRANCH  12  14
ATOM     14  C   UNL     1      11.175  -8.794  31.920  0.00  0.00    -0.033 A 
ATOM     15  C   UNL     1      10.010  -8.126  32.298  0.00  0.00    +0.005 A 
ATOM     16  C   UNL     1      11.107 -10.110  31.461  0.00  0.00    +0.005 A 
ATOM     18  C   UNL     1       8.778  -8.773  32.216  0.00  0.00    +0.003 A 
ATOM     19  C   UNL     1       9.874 -10.757  31.379  0.00  0.00    +0.003 A 
ATOM     21  C   UNL     1       8.709 -10.089  31.756  0.00  0.00    -0.050 A 
ATOM     23  C   UNL     1       7.390 -10.781  31.670  0.00  0.00    +0.044 C 
ENDBRANCH  12  14
ENDBRANCH   3  12
ENDBRANCH  13   8
TORSDOF 7
ENDMDL
MODEL 2
REMARK VINA RESULT:      -0.9     16.954     19.184
REMARK  Name = 45783394
REMARK  9 active torsions:
REMARK  status: ('A' for Active; 'I' for Inactive)
REMARK    1  A    between atoms: O_2  and  C_28
REMARK    2  A    between atoms: O_2  and  C_29
REMARK    3  A    between atoms: N_3  and  C_12
REMARK    4  A    between atoms: N_6  and  C_26
REMARK    5  A    between atoms: C_8  and  C_13
REMARK    6  A    between atoms: C_12  and  C_14
REMARK    7  A    between atoms: C_17  and  C_20
REMARK    8  A    between atoms: C_21  and  C_23
REMARK    9  A    between atoms: C_26  and  C_28
REMARK                            x       y       z     vdW  Elec       q    Type
REMARK                         _______ _______ _______ _____ _____    ______ ____
ROOT
ATOM      1  O   UNL     1      -0.768  -2.703  25.336  0.00  0.00    -0.336 OA
ATOM      4  N   UNL     1      -1.147  -0.884  24.085  0.00  0.00    -0.190 NA
ATOM      5  N   UNL     1       0.491  -2.161  25.045  0.00  0.00    -0.056 NA
ATOM     13  C   UNL     1      -1.675  -1.891  24.733  0.00  0.00    +0.245 A 
ATOM     17  C   UNL     1       0.184  -1.091  24.305  0.00  0.00    +0.205 A 
ENDROOT
BRANCH  17  20
ATOM      6  N   UNL     1       0.121   1.712  24.768  0.00  0.00    -0.326 N 
ATOM      7  N   UNL     1       2.093   2.012  23.495  0.00  0.00    -0.240 NA
ATOM     20  C   UNL     1       1.183  -0.211  23.770  0.00  0.00    +0.062 A 
ATOM     22  C   UNL     1       1.167   1.158  23.986  0.00  0.00    +0.130 A 
ATOM     24  C   UNL     1       2.215  -0.737  23.001  0.00  0.00    +0.016 A 
ATOM     25  C   UNL     1       3.187   0.109  22.479  0.00  0.00    +0.020 A 
ATOM     27  C   UNL     1       3.081   1.464  22.752  0.00  0.00    +0.113 A 
ATOM     30  H   UNL     1      -0.338   1.077  25.413  0.00  0.00    +0.148 HD
BRANCH   6  26
ATOM     26  C   UNL     1       0.022   3.106  25.043  0.00  0.00    +0.131 C 
BRANCH  26  28
ATOM     28  C   UNL     1      -1.124   3.366  26.006  0.00  0.00    +0.178 C 
BRANCH  28   2
ATOM      2  O   UNL     1      -1.693   4.641  25.730  0.00  0.00    -0.381 OA
ATOM     29  C   UNL     1      -0.900   5.378  24.810  0.00  0.00    +0.194 C 
ENDBRANCH  28   2
ENDBRANCH  26  28
ENDBRANCH   6  26
ENDBRANCH  17  20
BRANCH  13   8
ATOM      3  N   UNL     1      -4.049  -1.199  24.449  0.00  0.00    -0.287 NA
ATOM      8  C   UNL     1      -3.133  -2.266  24.899  0.00  0.00    +0.146 C 
ATOM      9  C   UNL     1      -3.528  -3.499  24.066  0.00  0.00    +0.030 C 
ATOM     10  C   UNL     1      -4.712  -3.047  23.223  0.00  0.00    +0.017 C 
ATOM     11  C   UNL     1      -5.269  -1.867  23.995  0.00  0.00    +0.085 C 
BRANCH   3  12
ATOM     12  C   UNL     1      -4.320  -0.203  25.477  0.00  0.00    +0.120 C 
BRANCH  12  14
ATOM     14  C   UNL     1      -4.271   1.198  24.927  0.00  0.00    -0.033 A 
ATOM     15  C   UNL     1      -4.997   2.216  25.544  0.00  0.00    +0.005 A 
ATOM     16  C   UNL     1      -3.501   1.477  23.797  0.00  0.00    +0.005 A 
ATOM     18  C   UNL     1      -4.954   3.513  25.033  0.00  0.00    +0.003 A 
ATOM     19  C   UNL     1      -3.457   2.773  23.285  0.00  0.00    +0.003 A 
ATOM     21  C   UNL     1      -4.183   3.792  23.903  0.00  0.00    -0.050 A 
ATOM     23  C   UNL     1      -4.138   5.179  23.356  0.00  0.00    +0.044 C 
ENDBRANCH  12  14
ENDBRANCH   3  12
ENDBRANCH  13   8
TORSDOF 7
ENDMDL
MODEL 3
REMARK VINA RESULT:      -0.6     16.799     19.186
REMARK  Name = 45783394
REMARK  9 active torsions:
REMARK  status: ('A' for Active; 'I' for Inactive)
REMARK    1  A    between atoms: O_2  and  C_28
REMARK    2  A    between atoms: O_2  and  C_29
REMARK    3  A    between atoms: N_3  and  C_12
REMARK    4  A    between atoms: N_6  and  C_26
REMARK    5  A    between atoms: C_8  and  C_13
REMARK    6  A    between atoms: C_12  and  C_14
REMARK    7  A    between atoms: C_17  and  C_20
REMARK    8  A    between atoms: C_21  and  C_23
REMARK    9  A    between atoms: C_26  and  C_28
REMARK                            x       y       z     vdW  Elec       q    Type
REMARK                         _______ _______ _______ _____ _____    ______ ____
ROOT
ATOM      1  O   UNL     1      -0.466   3.241  25.943  0.00  0.00    -0.336 OA
ATOM      4  N   UNL     1      -0.561   2.719  23.767  0.00  0.00    -0.190 NA
ATOM      5  N   UNL     1       0.643   2.423  25.689  0.00  0.00    -0.056 NA
ATOM     13  C   UNL     1      -1.120   3.364  24.758  0.00  0.00    +0.245 A 
ATOM     17  C   UNL     1       0.517   2.156  24.386  0.00  0.00    +0.205 A 
ENDROOT
BRANCH  17  20
ATOM      6  N   UNL     1      -0.020  -0.574  23.812  0.00  0.00    -0.326 N 
ATOM      7  N   UNL     1       2.064  -0.801  22.717  0.00  0.00    -0.240 NA
ATOM     20  C   UNL     1       1.450   1.333  23.673  0.00  0.00    +0.062 A 
ATOM     22  C   UNL     1       1.205  -0.000  23.385  0.00  0.00    +0.130 A 
ATOM     24  C   UNL     1       2.656   1.879  23.248  0.00  0.00    +0.016 A 
ATOM     25  C   UNL     1       3.566   1.087  22.556  0.00  0.00    +0.020 A 
ATOM     27  C   UNL     1       3.226  -0.235  22.319  0.00  0.00    +0.113 A 
ATOM     30  H   UNL     1      -0.784   0.074  23.974  0.00  0.00    +0.148 HD
BRANCH   6  26
ATOM     26  C   UNL     1      -0.361  -1.935  23.563  0.00  0.00    +0.131 C 
BRANCH  26  28
ATOM     28  C   UNL     1      -0.746  -2.622  24.861  0.00  0.00    +0.178 C 
BRANCH  28   2
ATOM      2  O   UNL     1      -0.345  -1.814  25.961  0.00  0.00    -0.381 OA
ATOM     29  C   UNL     1      -1.312  -0.816  26.256  0.00  0.00    +0.194 C 
ENDBRANCH  28   2
ENDBRANCH  26  28
ENDBRANCH   6  26
ENDBRANCH  17  20
BRANCH  13   8
ATOM      3  N   UNL     1      -3.586   3.437  25.093  0.00  0.00    -0.287 NA
ATOM      8  C   UNL     1      -2.374   4.215  24.765  0.00  0.00    +0.146 C 
ATOM      9  C   UNL     1      -2.328   5.333  25.823  0.00  0.00    +0.030 C 
ATOM     10  C   UNL     1      -3.584   5.140  26.661  0.00  0.00    +0.017 C 
ATOM     11  C   UNL     1      -4.510   4.368  25.742  0.00  0.00    +0.085 C 
BRANCH   3  12
ATOM     12  C   UNL     1      -4.184   2.790  23.934  0.00  0.00    +0.120 C 
BRANCH  12  14
ATOM     14  C   UNL     1      -4.130   1.289  24.038  0.00  0.00    -0.033 A 
ATOM     15  C   UNL     1      -3.525   0.541  23.029  0.00  0.00    +0.005 A 
ATOM     16  C   UNL     1      -4.688   0.647  25.144  0.00  0.00    +0.005 A 
ATOM     18  C   UNL     1      -3.477  -0.850  23.125  0.00  0.00    +0.003 A 
ATOM     19  C   UNL     1      -4.640  -0.744  25.241  0.00  0.00    +0.003 A 
ATOM     21  C   UNL     1      -4.034  -1.493  24.232  0.00  0.00    -0.050 A 
ATOM     23  C   UNL     1      -3.984  -2.980  24.333  0.00  0.00    +0.044 C 
ENDBRANCH  12  14
ENDBRANCH   3  12
ENDBRANCH  13   8
TORSDOF 7
ENDMDL
MODEL 4
REMARK VINA RESULT:      -0.3     16.420     18.750
REMARK  Name = 45783394
REMARK  9 active torsions:
REMARK  status: ('A' for Active; 'I' for Inactive)
REMARK    1  A    between atoms: O_2  and  C_28
REMARK    2  A    between atoms: O_2  and  C_29
REMARK    3  A    between atoms: N_3  and  C_12
REMARK    4  A    between atoms: N_6  and  C_26
REMARK    5  A    between atoms: C_8  and  C_13
REMARK    6  A    between atoms: C_12  and  C_14
REMARK    7  A    between atoms: C_17  and  C_20
REMARK    8  A    between atoms: C_21  and  C_23
REMARK    9  A    between atoms: C_26  and  C_28
REMARK                            x       y       z     vdW  Elec       q    Type
REMARK                         _______ _______ _______ _____ _____    ______ ____
ROOT
ATOM      1  O   UNL     1      -0.743   3.393  24.156  0.00  0.00    -0.336 OA
ATOM      4  N   UNL     1      -1.808   1.479  24.627  0.00  0.00    -0.190 NA
ATOM      5  N   UNL     1       0.233   2.387  24.135  0.00  0.00    -0.056 NA
ATOM     13  C   UNL     1      -1.915   2.772  24.452  0.00  0.00    +0.245 A 
ATOM     17  C   UNL     1      -0.473   1.289  24.422  0.00  0.00    +0.205 A 
ENDROOT
BRANCH  17  20
ATOM      6  N   UNL     1       1.886   0.618  22.988  0.00  0.00    -0.326 N 
ATOM      7  N   UNL     1       1.863  -1.572  23.884  0.00  0.00    -0.240 NA
ATOM     20  C   UNL     1       0.127  -0.011  24.512  0.00  0.00    +0.062 A 
ATOM     22  C   UNL     1       1.276  -0.355  23.820  0.00  0.00    +0.130 A 
ATOM     24  C   UNL     1      -0.459  -0.977  25.323  0.00  0.00    +0.016 A 
ATOM     25  C   UNL     1       0.115  -2.240  25.416  0.00  0.00    +0.020 A 
ATOM     27  C   UNL     1       1.265  -2.485  24.682  0.00  0.00    +0.113 A 
ATOM     30  H   UNL     1       1.682   1.587  23.210  0.00  0.00    +0.148 HD
BRANCH   6  26
ATOM     26  C   UNL     1       3.069   0.357  22.237  0.00  0.00    +0.131 C 
BRANCH  26  28
ATOM     28  C   UNL     1       4.269   0.988  22.921  0.00  0.00    +0.178 C 
BRANCH  28   2
ATOM      2  O   UNL     1       5.343   0.055  22.949  0.00  0.00    -0.381 OA
ATOM     29  C   UNL     1       5.410  -0.625  24.195  0.00  0.00    +0.194 C 
ENDBRANCH  28   2
ENDBRANCH  26  28
ENDBRANCH   6  26
ENDBRANCH  17  20
BRANCH  13   8
ATOM      3  N   UNL     1      -4.230   3.041  25.326  0.00  0.00    -0.287 NA
ATOM      8  C   UNL     1      -3.144   3.654  24.534  0.00  0.00    +0.146 C 
ATOM      9  C   UNL     1      -2.864   5.000  25.227  0.00  0.00    +0.030 C 
ATOM     10  C   UNL     1      -3.881   5.084  26.357  0.00  0.00    +0.017 C 
ATOM     11  C   UNL     1      -4.987   4.148  25.912  0.00  0.00    +0.085 C 
BRANCH   3  12
ATOM     12  C   UNL     1      -5.078   2.150  24.545  0.00  0.00    +0.120 C 
BRANCH  12  14
ATOM     14  C   UNL     1      -4.609   0.721  24.622  0.00  0.00    -0.033 A 
ATOM     15  C   UNL     1      -4.347   0.139  25.861  0.00  0.00    +0.005 A 
ATOM     16  C   UNL     1      -4.435  -0.019  23.451  0.00  0.00    +0.005 A 
ATOM     18  C   UNL     1      -3.910  -1.184  25.931  0.00  0.00    +0.003 A 
ATOM     19  C   UNL     1      -3.999  -1.341  23.521  0.00  0.00    +0.003 A 
ATOM     21  C   UNL     1      -3.736  -1.925  24.761  0.00  0.00    -0.050 A 
ATOM     23  C   UNL     1      -3.268  -3.339  24.837  0.00  0.00    +0.044 C 
ENDBRANCH  12  14
ENDBRANCH   3  12
ENDBRANCH  13   8
TORSDOF 7
ENDMDL
MODEL 5
REMARK VINA RESULT:      -0.2     16.686     19.490
REMARK  Name = 45783394
REMARK  9 active torsions:
REMARK  status: ('A' for Active; 'I' for Inactive)
REMARK    1  A    between atoms: O_2  and  C_28
REMARK    2  A    between atoms: O_2  and  C_29
REMARK    3  A    between atoms: N_3  and  C_12
REMARK    4  A    between atoms: N_6  and  C_26
REMARK    5  A    between atoms: C_8  and  C_13
REMARK    6  A    between atoms: C_12  and  C_14
REMARK    7  A    between atoms: C_17  and  C_20
REMARK    8  A    between atoms: C_21  and  C_23
REMARK    9  A    between atoms: C_26  and  C_28
REMARK                            x       y       z     vdW  Elec       q    Type
REMARK                         _______ _______ _______ _____ _____    ______ ____
ROOT
ATOM      1  O   UNL     1      -3.739  -1.316  23.801  0.00  0.00    -0.336 OA
ATOM      4  N   UNL     1      -2.659   0.442  24.675  0.00  0.00    -0.190 NA
ATOM      5  N   UNL     1      -4.713  -0.336  24.033  0.00  0.00    -0.056 NA
ATOM     13  C   UNL     1      -2.559  -0.776  24.207  0.00  0.00    +0.245 A 
ATOM     17  C   UNL     1      -3.998   0.670  24.549  0.00  0.00    +0.205 A 
ENDROOT
BRANCH  17  20
ATOM      6  N   UNL     1      -2.523   3.097  24.586  0.00  0.00    -0.326 N 
ATOM      7  N   UNL     1      -4.420   4.292  25.343  0.00  0.00    -0.240 NA
ATOM     20  C   UNL     1      -4.593   1.913  24.947  0.00  0.00    +0.062 A 
ATOM     22  C   UNL     1      -3.888   3.106  24.971  0.00  0.00    +0.130 A 
ATOM     24  C   UNL     1      -5.929   1.939  25.329  0.00  0.00    +0.016 A 
ATOM     25  C   UNL     1      -6.513   3.140  25.717  0.00  0.00    +0.020 A 
ATOM     27  C   UNL     1      -5.722   4.278  25.707  0.00  0.00    +0.113 A 
ATOM     30  H   UNL     1      -2.234   2.333  23.984  0.00  0.00    +0.148 HD
BRANCH   6  26
ATOM     26  C   UNL     1      -1.718   4.273  24.579  0.00  0.00    +0.131 C 
BRANCH  26  28
ATOM     28  C   UNL     1      -0.248   3.899  24.644  0.00  0.00    +0.178 C 
BRANCH  28   2
ATOM      2  O   UNL     1      -0.124   2.535  25.031  0.00  0.00    -0.381 OA
ATOM     29  C   UNL     1       0.156   2.411  26.419  0.00  0.00    +0.194 C 
ENDBRANCH  28   2
ENDBRANCH  26  28
ENDBRANCH   6  26
ENDBRANCH  17  20
BRANCH  13   8
ATOM      3  N   UNL     1      -0.078  -0.920  24.339  0.00  0.00    -0.287 NA
ATOM      8  C   UNL     1      -1.330  -1.650  24.057  0.00  0.00    +0.146 C 
ATOM      9  C   UNL     1      -1.322  -2.836  25.038  0.00  0.00    +0.030 C 
ATOM     10  C   UNL     1      -0.001  -2.726  25.785  0.00  0.00    +0.017 C 
ATOM     11  C   UNL     1       0.870  -1.911  24.849  0.00  0.00    +0.085 C 
BRANCH   3  12
ATOM     12  C   UNL     1       0.445  -0.207  23.181  0.00  0.00    +0.120 C 
BRANCH  12  14
ATOM     14  C   UNL     1       1.948  -0.126  23.205  0.00  0.00    -0.033 A 
ATOM     15  C   UNL     1       2.587   1.068  22.870  0.00  0.00    +0.005 A 
ATOM     16  C   UNL     1       2.702  -1.245  23.560  0.00  0.00    +0.005 A 
ATOM     18  C   UNL     1       3.980   1.142  22.889  0.00  0.00    +0.003 A 
ATOM     19  C   UNL     1       4.094  -1.171  23.580  0.00  0.00    +0.003 A 
ATOM     21  C   UNL     1       4.734   0.023  23.245  0.00  0.00    -0.050 A 
ATOM     23  C   UNL     1       6.223   0.103  23.264  0.00  0.00    +0.044 C 
ENDBRANCH  12  14
ENDBRANCH   3  12
ENDBRANCH  13   8
TORSDOF 7
ENDMDL
MODEL 6
REMARK VINA RESULT:      -0.0     17.016     19.393
REMARK  Name = 45783394
REMARK  9 active torsions:
REMARK  status: ('A' for Active; 'I' for Inactive)
REMARK    1  A    between atoms: O_2  and  C_28
REMARK    2  A    between atoms: O_2  and  C_29
REMARK    3  A    between atoms: N_3  and  C_12
REMARK    4  A    between atoms: N_6  and  C_26
REMARK    5  A    between atoms: C_8  and  C_13
REMARK    6  A    between atoms: C_12  and  C_14
REMARK    7  A    between atoms: C_17  and  C_20
REMARK    8  A    between atoms: C_21  and  C_23
REMARK    9  A    between atoms: C_26  and  C_28
REMARK                            x       y       z     vdW  Elec       q    Type
REMARK                         _______ _______ _______ _____ _____    ______ ____
ROOT
ATOM      1  O   UNL     1      -1.353  -0.618  26.547  0.00  0.00    -0.336 OA
ATOM      4  N   UNL     1      -2.139   0.545  24.801  0.00  0.00    -0.190 NA
ATOM      5  N   UNL     1      -0.659   0.599  26.545  0.00  0.00    -0.056 NA
ATOM     13  C   UNL     1      -2.204  -0.567  25.489  0.00  0.00    +0.245 A 
ATOM     17  C   UNL     1      -1.178   1.229  25.486  0.00  0.00    +0.205 A 
ENDROOT
BRANCH  17  20
ATOM      6  N   UNL     1       1.123   1.644  23.871  0.00  0.00    -0.326 N 
ATOM      7  N   UNL     1       0.783   3.985  23.909  0.00  0.00    -0.240 NA
ATOM     20  C   UNL     1      -0.757   2.541  25.087  0.00  0.00    +0.062 A 
ATOM     22  C   UNL     1       0.362   2.762  24.300  0.00  0.00    +0.130 A 
ATOM     24  C   UNL     1      -1.491   3.648  25.499  0.00  0.00    +0.016 A 
ATOM     25  C   UNL     1      -1.091   4.923  25.117  0.00  0.00    +0.020 A 
ATOM     27  C   UNL     1       0.044   5.037  24.329  0.00  0.00    +0.113 A 
ATOM     30  H   UNL     1       0.635   0.755  23.846  0.00  0.00    +0.148 HD
BRANCH   6  26
ATOM     26  C   UNL     1       2.288   1.772  23.060  0.00  0.00    +0.131 C 
BRANCH  26  28
ATOM     28  C   UNL     1       2.866   0.400  22.760  0.00  0.00    +0.178 C 
BRANCH  28   2
ATOM      2  O   UNL     1       4.230   0.535  22.377  0.00  0.00    -0.381 OA
ATOM     29  C   UNL     1       5.104   0.306  23.473  0.00  0.00    +0.194 C 
ENDBRANCH  28   2
ENDBRANCH  26  28
ENDBRANCH   6  26
ENDBRANCH  17  20
BRANCH  13   8
ATOM      3  N   UNL     1      -4.067  -1.582  24.187  0.00  0.00    -0.287 NA
ATOM      8  C   UNL     1      -3.083  -1.781  25.270  0.00  0.00    +0.146 C 
ATOM      9  C   UNL     1      -2.281  -3.026  24.848  0.00  0.00    +0.030 C 
ATOM     10  C   UNL     1      -2.926  -3.492  23.550  0.00  0.00    +0.017 C 
ATOM     11  C   UNL     1      -4.321  -2.904  23.613  0.00  0.00    +0.085 C 
BRANCH   3  12
ATOM     12  C   UNL     1      -5.292  -0.935  24.636  0.00  0.00    +0.120 C 
BRANCH  12  14
ATOM     14  C   UNL     1      -5.135   0.560  24.728  0.00  0.00    -0.033 A 
ATOM     15  C   UNL     1      -5.643   1.248  25.830  0.00  0.00    +0.005 A 
ATOM     16  C   UNL     1      -4.484   1.257  23.709  0.00  0.00    +0.005 A 
ATOM     18  C   UNL     1      -5.500   2.633  25.914  0.00  0.00    +0.003 A 
ATOM     19  C   UNL     1      -4.341   2.642  23.793  0.00  0.00    +0.003 A 
ATOM     21  C   UNL     1      -4.849   3.330  24.895  0.00  0.00    -0.050 A 
ATOM     23  C   UNL     1      -4.697   4.811  24.985  0.00  0.00    +0.044 C 
ENDBRANCH  12  14
ENDBRANCH   3  12
ENDBRANCH  13   8
TORSDOF 7
ENDMDL
MODEL 7
REMARK VINA RESULT:       0.1     17.214     19.601
REMARK  Name = 45783394
REMARK  9 active torsions:
REMARK  status: ('A' for Active; 'I' for Inactive)
REMARK    1  A    between atoms: O_2  and  C_28
REMARK    2  A    between atoms: O_2  and  C_29
REMARK    3  A    between atoms: N_3  and  C_12
REMARK    4  A    between atoms: N_6  and  C_26
REMARK    5  A    between atoms: C_8  and  C_13
REMARK    6  A    between atoms: C_12  and  C_14
REMARK    7  A    between atoms: C_17  and  C_20
REMARK    8  A    between atoms: C_21  and  C_23
REMARK    9  A    between atoms: C_26  and  C_28
REMARK                            x       y       z     vdW  Elec       q    Type
REMARK                         _______ _______ _______ _____ _____    ______ ____
ROOT
ATOM      1  O   UNL     1      -3.500   2.326  22.245  0.00  0.00    -0.336 OA
ATOM      4  N   UNL     1      -2.449   1.739  24.134  0.00  0.00    -0.190 NA
ATOM      5  N   UNL     1      -2.203   1.953  21.870  0.00  0.00    -0.056 NA
ATOM     13  C   UNL     1      -3.560   2.170  23.594  0.00  0.00    +0.245 A 
ATOM     17  C   UNL     1      -1.645   1.621  23.038  0.00  0.00    +0.205 A 
ENDROOT
BRANCH  17  20
ATOM      6  N   UNL     1       0.119   2.609  25.035  0.00  0.00    -0.326 N 
ATOM      7  N   UNL     1       1.869   1.232  24.235  0.00  0.00    -0.240 NA
ATOM     20  C   UNL     1      -0.288   1.168  23.144  0.00  0.00    +0.062 A 
ATOM     22  C   UNL     1       0.585   1.639  24.111  0.00  0.00    +0.130 A 
ATOM     24  C   UNL     1       0.186   0.218  22.246  0.00  0.00    +0.016 A 
ATOM     25  C   UNL     1       1.500  -0.227  22.342  0.00  0.00    +0.020 A 
ATOM     27  C   UNL     1       2.294   0.307  23.345  0.00  0.00    +0.113 A 
ATOM     30  H   UNL     1      -0.885   2.642  25.178  0.00  0.00    +0.148 HD
BRANCH   6  26
ATOM     26  C   UNL     1       0.943   3.152  26.063  0.00  0.00    +0.131 C 
BRANCH  26  28
ATOM     28  C   UNL     1       0.658   2.455  27.381  0.00  0.00    +0.178 C 
BRANCH  28   2
ATOM      2  O   UNL     1       1.726   2.702  28.288  0.00  0.00    -0.381 OA
ATOM     29  C   UNL     1       1.377   2.335  29.616  0.00  0.00    +0.194 C 
ENDBRANCH  28   2
ENDBRANCH  26  28
ENDBRANCH   6  26
ENDBRANCH  17  20
BRANCH  13   8
ATOM      3  N   UNL     1      -5.010   1.921  25.602  0.00  0.00    -0.287 NA
ATOM      8  C   UNL     1      -4.880   2.511  24.255  0.00  0.00    +0.146 C 
ATOM      9  C   UNL     1      -5.063   4.025  24.471  0.00  0.00    +0.030 C 
ATOM     10  C   UNL     1      -5.351   4.182  25.957  0.00  0.00    +0.017 C 
ATOM     11  C   UNL     1      -5.876   2.820  26.364  0.00  0.00    +0.085 C 
BRANCH   3  12
ATOM     12  C   UNL     1      -5.517   0.555  25.584  0.00  0.00    +0.120 C 
BRANCH  12  14
ATOM     14  C   UNL     1      -4.446  -0.436  25.215  0.00  0.00    -0.033 A 
ATOM     15  C   UNL     1      -4.580  -1.211  24.063  0.00  0.00    +0.005 A 
ATOM     16  C   UNL     1      -3.322  -0.582  26.028  0.00  0.00    +0.005 A 
ATOM     18  C   UNL     1      -3.589  -2.132  23.723  0.00  0.00    +0.003 A 
ATOM     19  C   UNL     1      -2.331  -1.503  25.688  0.00  0.00    +0.003 A 
ATOM     21  C   UNL     1      -2.463  -2.278  24.535  0.00  0.00    -0.050 A 
ATOM     23  C   UNL     1      -1.404  -3.263  24.172  0.00  0.00    +0.044 C 
ENDBRANCH  12  14
ENDBRANCH   3  12
ENDBRANCH  13   8
TORSDOF 7
ENDMDL
MODEL 8
REMARK VINA RESULT:       0.8     17.667     20.329
REMARK  Name = 45783394
REMARK  9 active torsions:
REMARK  status: ('A' for Active; 'I' for Inactive)
REMARK    1  A    between atoms: O_2  and  C_28
REMARK    2  A    between atoms: O_2  and  C_29
REMARK    3  A    between atoms: N_3  and  C_12
REMARK    4  A    between atoms: N_6  and  C_26
REMARK    5  A    between atoms: C_8  and  C_13
REMARK    6  A    between atoms: C_12  and  C_14
REMARK    7  A    between atoms: C_17  and  C_20
REMARK    8  A    between atoms: C_21  and  C_23
REMARK    9  A    between atoms: C_26  and  C_28
REMARK                            x       y       z     vdW  Elec       q    Type
REMARK                         _______ _______ _______ _____ _____    ______ ____
ROOT
ATOM      1  O   UNL     1      -3.953   2.270  23.855  0.00  0.00    -0.336 OA
ATOM      4  N   UNL     1      -4.225   0.669  25.399  0.00  0.00    -0.190 NA
ATOM      5  N   UNL     1      -3.446   1.092  23.290  0.00  0.00    -0.056 NA
ATOM     13  C   UNL     1      -4.391   1.932  25.097  0.00  0.00    +0.245 A 
ATOM     17  C   UNL     1      -3.642   0.194  24.260  0.00  0.00    +0.205 A 
ENDROOT
BRANCH  17  20
ATOM      6  N   UNL     1      -0.922  -0.621  24.173  0.00  0.00    -0.326 N 
ATOM      7  N   UNL     1      -1.561  -2.888  23.951  0.00  0.00    -0.240 NA
ATOM     20  C   UNL     1      -3.267  -1.184  24.124  0.00  0.00    +0.062 A 
ATOM     22  C   UNL     1      -1.946  -1.599  24.080  0.00  0.00    +0.130 A 
ATOM     24  C   UNL     1      -4.258  -2.154  24.030  0.00  0.00    +0.016 A 
ATOM     25  C   UNL     1      -3.902  -3.492  23.898  0.00  0.00    +0.020 A 
ATOM     27  C   UNL     1      -2.553  -3.804  23.863  0.00  0.00    +0.113 A 
ATOM     30  H   UNL     1      -1.179   0.253  24.620  0.00  0.00    +0.148 HD
BRANCH   6  26
ATOM     26  C   UNL     1       0.464  -0.952  24.137  0.00  0.00    +0.131 C 
BRANCH  26  28
ATOM     28  C   UNL     1       1.100  -0.394  22.876  0.00  0.00    +0.178 C 
BRANCH  28   2
ATOM      2  O   UNL     1       2.505  -0.612  22.918  0.00  0.00    -0.381 OA
ATOM     29  C   UNL     1       3.185   0.182  21.956  0.00  0.00    +0.194 C 
ENDBRANCH  28   2
ENDBRANCH  26  28
ENDBRANCH   6  26
ENDBRANCH  17  20
BRANCH  13   8
ATOM      3  N   UNL     1      -4.367   4.356  25.658  0.00  0.00    -0.287 NA
ATOM      8  C   UNL     1      -4.994   3.047  25.926  0.00  0.00    +0.146 C 
ATOM      9  C   UNL     1      -6.491   3.261  25.635  0.00  0.00    +0.030 C 
ATOM     10  C   UNL     1      -6.617   4.734  25.270  0.00  0.00    +0.017 C 
ATOM     11  C   UNL     1      -5.396   5.365  25.909  0.00  0.00    +0.085 C 
BRANCH   3  12
ATOM     12  C   UNL     1      -3.166   4.591  26.448  0.00  0.00    +0.120 C 
BRANCH  12  14
ATOM     14  C   UNL     1      -1.943   4.002  25.797  0.00  0.00    -0.033 A 
ATOM     15  C   UNL     1      -1.414   4.589  24.647  0.00  0.00    +0.005 A 
ATOM     16  C   UNL     1      -1.340   2.868  26.342  0.00  0.00    +0.005 A 
ATOM     18  C   UNL     1      -0.283   4.042  24.042  0.00  0.00    +0.003 A 
ATOM     19  C   UNL     1      -0.209   2.320  25.737  0.00  0.00    +0.003 A 
ATOM     21  C   UNL     1       0.321   2.907  24.587  0.00  0.00    -0.050 A 
ATOM     23  C   UNL     1       1.531   2.322  23.939  0.00  0.00    +0.044 C 
ENDBRANCH  12  14
ENDBRANCH   3  12
ENDBRANCH  13   8
TORSDOF 7
ENDMDL
