MODEL 1
REMARK VINA RESULT:       1.0      0.000      0.000
REMARK  Name = 28960058
REMARK  7 active torsions:
REMARK  status: ('A' for Active; 'I' for Inactive)
REMARK    1  A    between atoms: O_3  and  C_22
REMARK    2  A    between atoms: N_6  and  C_15
REMARK    3  A    between atoms: C_9  and  C_13
REMARK    4  A    between atoms: C_10  and  C_16
REMARK    5  A    between atoms: C_13  and  C_15
REMARK    6  A    between atoms: C_16  and  C_22
REMARK    7  A    between atoms: C_19  and  C_23
REMARK                            x       y       z     vdW  Elec       q    Type
REMARK                         _______ _______ _______ _____ _____    ______ ____
ROOT
ATOM      2  O   UNL     1      -5.591   0.697  26.850  0.00  0.00    -0.270 OA
ATOM      5  N   UNL     1      -5.034   1.896  24.920  0.00  0.00    -0.297 N 
ATOM      9  C   UNL     1      -3.329   3.028  23.510  0.00  0.00    +0.011 C 
ATOM     10  C   UNL     1      -3.872   4.388  24.014  0.00  0.00    +0.006 C 
ATOM     11  C   UNL     1      -4.440   1.963  23.577  0.00  0.00    +0.112 C 
ATOM     12  C   UNL     1      -4.526   4.259  25.400  0.00  0.00    +0.023 C 
ATOM     14  C   UNL     1      -5.584   3.158  25.411  0.00  0.00    +0.108 C 
ATOM     19  C   UNL     1      -5.099   0.756  25.724  0.00  0.00    +0.247 C 
ENDROOT
BRANCH  19  23
ATOM      1  F   UNL     1      -2.955  -4.008  23.719  0.00  0.00    -0.205 F 
ATOM     23  C   UNL     1      -4.537  -0.493  25.198  0.00  0.00    +0.037 A 
ATOM     25  C   UNL     1      -3.608  -1.210  25.952  0.00  0.00    +0.016 A 
ATOM     26  C   UNL     1      -4.932  -0.963  23.946  0.00  0.00    +0.016 A 
ATOM     28  C   UNL     1      -3.072  -2.397  25.452  0.00  0.00    +0.039 A 
ATOM     29  C   UNL     1      -4.397  -2.151  23.446  0.00  0.00    +0.039 A 
ATOM     31  C   UNL     1      -3.467  -2.867  24.199  0.00  0.00    +0.123 A 
ENDBRANCH  19  23
BRANCH   9  13
ATOM     13  C   UNL     1      -2.078   2.542  24.254  0.00  0.00    +0.020 C 
BRANCH  13  15
ATOM     15  C   UNL     1      -1.771   1.092  23.908  0.00  0.00    +0.085 C 
BRANCH  15   6
ATOM      6  N   UNL     1      -0.397   0.979  23.419  0.00  0.00    -0.299 NA
ATOM      7  N   UNL     1       2.355   0.226  23.528  0.00  0.00    -0.313 N 
ATOM      8  N   UNL     1       4.579   0.881  23.051  0.00  0.00    -0.240 NA
ATOM     17  C   UNL     1      -0.008  -0.432  23.299  0.00  0.00    +0.103 C 
ATOM     18  C   UNL     1       0.528   1.679  24.317  0.00  0.00    +0.103 C 
ATOM     20  C   UNL     1       1.410  -0.564  22.734  0.00  0.00    +0.122 C 
ATOM     21  C   UNL     1       1.962   1.616  23.786  0.00  0.00    +0.122 C 
ATOM     24  C   UNL     1       3.722  -0.073  23.478  0.00  0.00    +0.121 A 
ATOM     27  C   UNL     1       4.108  -1.343  23.874  0.00  0.00    +0.043 A 
ATOM     30  C   UNL     1       5.464  -1.654  23.829  0.00  0.00    +0.005 A 
ATOM     32  C   UNL     1       5.888   0.542  23.021  0.00  0.00    +0.113 A 
ATOM     33  C   UNL     1       6.377  -0.699  23.396  0.00  0.00    +0.020 A 
ENDBRANCH  15   6
ENDBRANCH  13  15
ENDBRANCH   9  13
BRANCH  10  16
ATOM     16  C   UNL     1      -2.816   5.493  24.019  0.00  0.00    +0.124 C 
BRANCH  16  22
ATOM      4  O   UNL     1      -2.013   4.857  26.231  0.00  0.00    -0.251 OA
ATOM     22  C   UNL     1      -1.799   5.284  25.107  0.00  0.00    +0.305 C 
BRANCH  22   3
ATOM      3  O   UNL     1      -0.568   5.642  24.658  0.00  0.00    -0.481 OA
ATOM     34  H   UNL     1      -0.591   5.933  23.721  0.00  0.00    +0.295 HD
ENDBRANCH  22   3
ENDBRANCH  16  22
ENDBRANCH  10  16
TORSDOF 7
ENDMDL
MODEL 2
REMARK VINA RESULT:       1.6      2.557      4.998
REMARK  Name = 28960058
REMARK  7 active torsions:
REMARK  status: ('A' for Active; 'I' for Inactive)
REMARK    1  A    between atoms: O_3  and  C_22
REMARK    2  A    between atoms: N_6  and  C_15
REMARK    3  A    between atoms: C_9  and  C_13
REMARK    4  A    between atoms: C_10  and  C_16
REMARK    5  A    between atoms: C_13  and  C_15
REMARK    6  A    between atoms: C_16  and  C_22
REMARK    7  A    between atoms: C_19  and  C_23
REMARK                            x       y       z     vdW  Elec       q    Type
REMARK                         _______ _______ _______ _____ _____    ______ ____
ROOT
ATOM      2  O   UNL     1      -5.812   3.698  24.977  0.00  0.00    -0.270 OA
ATOM      5  N   UNL     1      -4.619   1.742  25.449  0.00  0.00    -0.297 N 
ATOM      9  C   UNL     1      -3.191  -0.142  24.682  0.00  0.00    +0.011 C 
ATOM     10  C   UNL     1      -4.434  -1.064  24.759  0.00  0.00    +0.006 C 
ATOM     11  C   UNL     1      -3.349   1.034  25.665  0.00  0.00    +0.112 C 
ATOM     12  C   UNL     1      -5.739  -0.271  24.575  0.00  0.00    +0.023 C 
ATOM     14  C   UNL     1      -5.813   0.905  25.546  0.00  0.00    +0.108 C 
ATOM     19  C   UNL     1      -4.752   3.103  25.164  0.00  0.00    +0.247 C 
ENDROOT
BRANCH  19  23
ATOM      1  F   UNL     1      -0.097   6.190  24.821  0.00  0.00    -0.205 F 
ATOM     23  C   UNL     1      -3.531   3.912  25.074  0.00  0.00    +0.037 A 
ATOM     25  C   UNL     1      -3.384   4.838  24.041  0.00  0.00    +0.016 A 
ATOM     26  C   UNL     1      -2.520   3.757  26.021  0.00  0.00    +0.016 A 
ATOM     28  C   UNL     1      -2.223   5.607  23.955  0.00  0.00    +0.039 A 
ATOM     29  C   UNL     1      -1.359   4.526  25.936  0.00  0.00    +0.039 A 
ATOM     31  C   UNL     1      -1.211   5.451  24.902  0.00  0.00    +0.123 A 
ENDBRANCH  19  23
BRANCH   9  13
ATOM     13  C   UNL     1      -2.887   0.379  23.272  0.00  0.00    +0.020 C 
BRANCH  13  15
ATOM     15  C   UNL     1      -2.130   1.698  23.332  0.00  0.00    +0.085 C 
BRANCH  15   6
ATOM      6  N   UNL     1      -0.726   1.480  22.985  0.00  0.00    -0.299 NA
ATOM      7  N   UNL     1       1.920   0.464  23.338  0.00  0.00    -0.313 N 
ATOM      8  N   UNL     1       4.232   0.929  23.140  0.00  0.00    -0.240 NA
ATOM     17  C   UNL     1      -0.452   0.047  22.821  0.00  0.00    +0.103 C 
ATOM     18  C   UNL     1       0.153   2.041  24.018  0.00  0.00    +0.103 C 
ATOM     20  C   UNL     1       1.002  -0.191  22.402  0.00  0.00    +0.122 C 
ATOM     21  C   UNL     1       1.626   1.870  23.638  0.00  0.00    +0.122 C 
ATOM     24  C   UNL     1       3.252   0.040  23.415  0.00  0.00    +0.121 A 
ATOM     27  C   UNL     1       3.477  -1.280  23.771  0.00  0.00    +0.043 A 
ATOM     30  C   UNL     1       4.796  -1.715  23.850  0.00  0.00    +0.005 A 
ATOM     32  C   UNL     1       5.501   0.469  23.228  0.00  0.00    +0.113 A 
ATOM     33  C   UNL     1       5.833  -0.831  23.575  0.00  0.00    +0.020 A 
ENDBRANCH  15   6
ENDBRANCH  13  15
ENDBRANCH   9  13
BRANCH  10  16
ATOM     16  C   UNL     1      -4.374  -2.236  23.780  0.00  0.00    +0.124 C 
BRANCH  16  22
ATOM      4  O   UNL     1      -2.483  -3.716  23.358  0.00  0.00    -0.251 OA
ATOM     22  C   UNL     1      -3.273  -3.198  24.133  0.00  0.00    +0.305 C 
BRANCH  22   3
ATOM      3  O   UNL     1      -3.273  -3.422  25.473  0.00  0.00    -0.481 OA
ATOM     34  H   UNL     1      -3.197  -4.377  25.684  0.00  0.00    +0.295 HD
ENDBRANCH  22   3
ENDBRANCH  16  22
ENDBRANCH  10  16
TORSDOF 7
ENDMDL
MODEL 3
REMARK VINA RESULT:       1.6      2.580      5.089
REMARK  Name = 28960058
REMARK  7 active torsions:
REMARK  status: ('A' for Active; 'I' for Inactive)
REMARK    1  A    between atoms: O_3  and  C_22
REMARK    2  A    between atoms: N_6  and  C_15
REMARK    3  A    between atoms: C_9  and  C_13
REMARK    4  A    between atoms: C_10  and  C_16
REMARK    5  A    between atoms: C_13  and  C_15
REMARK    6  A    between atoms: C_16  and  C_22
REMARK    7  A    between atoms: C_19  and  C_23
REMARK                            x       y       z     vdW  Elec       q    Type
REMARK                         _______ _______ _______ _____ _____    ______ ____
ROOT
ATOM      2  O   UNL     1      -5.728   4.044  25.348  0.00  0.00    -0.270 OA
ATOM      5  N   UNL     1      -4.563   2.029  25.584  0.00  0.00    -0.297 N 
ATOM      9  C   UNL     1      -3.320   0.133  24.565  0.00  0.00    +0.011 C 
ATOM     10  C   UNL     1      -4.579  -0.748  24.763  0.00  0.00    +0.006 C 
ATOM     11  C   UNL     1      -3.305   1.268  25.606  0.00  0.00    +0.112 C 
ATOM     12  C   UNL     1      -5.864   0.097  24.781  0.00  0.00    +0.023 C 
ATOM     14  C   UNL     1      -5.767   1.229  25.799  0.00  0.00    +0.108 C 
ATOM     19  C   UNL     1      -4.677   3.405  25.373  0.00  0.00    +0.247 C 
ENDROOT
BRANCH  19  23
ATOM      1  F   UNL     1       0.017   6.340  24.559  0.00  0.00    -0.205 F 
ATOM     23  C   UNL     1      -3.446   4.175  25.159  0.00  0.00    +0.037 A 
ATOM     25  C   UNL     1      -2.306   3.889  25.910  0.00  0.00    +0.016 A 
ATOM     26  C   UNL     1      -3.416   5.191  24.205  0.00  0.00    +0.016 A 
ATOM     28  C   UNL     1      -1.137   4.620  25.709  0.00  0.00    +0.039 A 
ATOM     29  C   UNL     1      -2.246   5.923  24.003  0.00  0.00    +0.039 A 
ATOM     31  C   UNL     1      -1.106   5.638  24.755  0.00  0.00    +0.123 A 
ENDBRANCH  19  23
BRANCH   9  13
ATOM     13  C   UNL     1      -3.177   0.706  23.149  0.00  0.00    +0.020 C 
BRANCH  13  15
ATOM     15  C   UNL     1      -2.068   1.747  23.094  0.00  0.00    +0.085 C 
BRANCH  15   6
ATOM      6  N   UNL     1      -0.810   1.155  23.551  0.00  0.00    -0.299 NA
ATOM      7  N   UNL     1       1.956   0.463  23.388  0.00  0.00    -0.313 N 
ATOM      8  N   UNL     1       3.576  -1.214  23.794  0.00  0.00    -0.240 NA
ATOM     17  C   UNL     1       0.224   2.189  23.690  0.00  0.00    +0.103 C 
ATOM     18  C   UNL     1      -0.359   0.120  22.615  0.00  0.00    +0.103 C 
ATOM     20  C   UNL     1       1.530   1.591  24.222  0.00  0.00    +0.122 C 
ATOM     21  C   UNL     1       0.927  -0.546  23.110  0.00  0.00    +0.122 C 
ATOM     24  C   UNL     1       3.293   0.051  23.409  0.00  0.00    +0.121 A 
ATOM     27  C   UNL     1       4.249   0.979  23.030  0.00  0.00    +0.043 A 
ATOM     30  C   UNL     1       5.583   0.583  23.048  0.00  0.00    +0.005 A 
ATOM     32  C   UNL     1       4.883  -1.562  23.798  0.00  0.00    +0.113 A 
ATOM     33  C   UNL     1       5.914  -0.709  23.437  0.00  0.00    +0.020 A 
ENDBRANCH  15   6
ENDBRANCH  13  15
ENDBRANCH   9  13
BRANCH  10  16
ATOM     16  C   UNL     1      -4.690  -1.876  23.739  0.00  0.00    +0.124 C 
BRANCH  16  22
ATOM      4  O   UNL     1      -3.165  -3.701  23.203  0.00  0.00    -0.251 OA
ATOM     22  C   UNL     1      -3.715  -2.985  24.025  0.00  0.00    +0.305 C 
BRANCH  22   3
ATOM      3  O   UNL     1      -3.520  -3.087  25.366  0.00  0.00    -0.481 OA
ATOM     34  H   UNL     1      -3.213  -2.241  25.755  0.00  0.00    +0.295 HD
ENDBRANCH  22   3
ENDBRANCH  16  22
ENDBRANCH  10  16
TORSDOF 7
ENDMDL
