MODEL 1
REMARK VINA RESULT:      -6.5      0.000      0.000
REMARK  Name = 71694084
REMARK  7 active torsions:
REMARK  status: ('A' for Active; 'I' for Inactive)
REMARK    1  A    between atoms: O_3  and  C_18
REMARK    2  A    between atoms: N_4  and  C_7
REMARK    3  A    between atoms: N_4  and  C_12
REMARK    4  A    between atoms: C_7  and  C_10
REMARK    5  A    between atoms: C_10  and  C_11
REMARK    6  A    between atoms: C_12  and  C_13
REMARK    7  A    between atoms: C_15  and  C_18
REMARK                            x       y       z     vdW  Elec       q    Type
REMARK                         _______ _______ _______ _____ _____    ______ ____
ROOT
ATOM      1  O   UNL     1      -2.953  -3.087  25.220  0.00  0.00    -0.376 OA
ATOM      7  C   UNL     1      -2.255  -1.082  24.973  0.00  0.00    +0.072 C 
ATOM      8  C   UNL     1      -1.961  -2.460  24.365  0.00  0.00    +0.184 C 
ATOM      9  C   UNL     1      -3.461  -1.783  25.611  0.00  0.00    +0.184 C 
ENDROOT
BRANCH   7   4
ATOM      4  N   UNL     1      -2.738  -0.200  23.906  0.00  0.00    -0.302 NA
ATOM     21  H   UNL     1      -2.239   0.683  23.815  0.00  0.00    +0.123 HD
BRANCH   4  12
ATOM     12  C   UNL     1      -4.164   0.041  24.085  0.00  0.00    +0.117 C 
BRANCH  12  13
ATOM      6  N   UNL     1      -4.970   4.116  25.203  0.00  0.00    -0.263 NA
ATOM     13  C   UNL     1      -4.446   1.468  24.476  0.00  0.00    -0.031 A 
ATOM     16  C   UNL     1      -3.862   2.513  23.771  0.00  0.00    +0.024 A 
ATOM     17  C   UNL     1      -5.292   1.744  25.544  0.00  0.00    +0.024 A 
ATOM     19  C   UNL     1      -4.154   3.808  24.171  0.00  0.00    +0.111 A 
ATOM     20  C   UNL     1      -5.520   3.072  25.865  0.00  0.00    +0.111 A 
ENDBRANCH  12  13
ENDBRANCH   4  12
ENDBRANCH   7   4
BRANCH   7  10
ATOM     10  C   UNL     1      -1.221  -0.435  25.858  0.00  0.00    +0.085 C 
BRANCH  10  11
ATOM      2  O   UNL     1       0.047   2.378  23.983  0.00  0.00    -0.357 OA
ATOM      5  N   UNL     1      -0.125   1.014  24.191  0.00  0.00    -0.083 NA
ATOM     11  C   UNL     1      -0.837   0.924  25.317  0.00  0.00    +0.086 A 
ATOM     14  C   UNL     1      -1.140   2.184  25.861  0.00  0.00    +0.073 A 
ATOM     15  C   UNL     1      -0.561   3.063  24.984  0.00  0.00    +0.163 A 
BRANCH  15  18
ATOM     18  C   UNL     1      -0.476   4.527  24.922  0.00  0.00    +0.232 C 
BRANCH  18   3
ATOM      3  O   UNL     1      -1.686   5.117  25.405  0.00  0.00    -0.387 OA
ATOM     22  H   UNL     1      -1.992   5.737  24.722  0.00  0.00    +0.210 HD
ENDBRANCH  18   3
ENDBRANCH  15  18
ENDBRANCH  10  11
ENDBRANCH   7  10
TORSDOF 7
ENDMDL
MODEL 2
REMARK VINA RESULT:      -6.3      2.122      4.688
REMARK  Name = 71694084
REMARK  7 active torsions:
REMARK  status: ('A' for Active; 'I' for Inactive)
REMARK    1  A    between atoms: O_3  and  C_18
REMARK    2  A    between atoms: N_4  and  C_7
REMARK    3  A    between atoms: N_4  and  C_12
REMARK    4  A    between atoms: C_7  and  C_10
REMARK    5  A    between atoms: C_10  and  C_11
REMARK    6  A    between atoms: C_12  and  C_13
REMARK    7  A    between atoms: C_15  and  C_18
REMARK                            x       y       z     vdW  Elec       q    Type
REMARK                         _______ _______ _______ _____ _____    ______ ____
ROOT
ATOM      1  O   UNL     1      -2.161   4.920  25.512  0.00  0.00    -0.376 OA
ATOM      7  C   UNL     1      -1.953   2.817  25.195  0.00  0.00    +0.072 C 
ATOM      8  C   UNL     1      -2.817   3.746  26.058  0.00  0.00    +0.184 C 
ATOM      9  C   UNL     1      -1.535   4.109  24.482  0.00  0.00    +0.184 C 
ENDROOT
BRANCH   7   4
ATOM      4  N   UNL     1      -2.838   2.058  24.305  0.00  0.00    -0.302 NA
ATOM     21  H   UNL     1      -3.268   2.599  23.557  0.00  0.00    +0.123 HD
BRANCH   4  12
ATOM     12  C   UNL     1      -3.863   1.389  25.097  0.00  0.00    +0.117 C 
BRANCH  12  13
ATOM      6  N   UNL     1      -3.697  -2.886  24.646  0.00  0.00    -0.263 NA
ATOM     13  C   UNL     1      -3.804  -0.108  24.939  0.00  0.00    -0.031 A 
ATOM     16  C   UNL     1      -4.208  -0.700  23.747  0.00  0.00    +0.024 A 
ATOM     17  C   UNL     1      -3.347  -0.902  25.984  0.00  0.00    +0.024 A 
ATOM     19  C   UNL     1      -4.135  -2.081  23.653  0.00  0.00    +0.111 A 
ATOM     20  C   UNL     1      -3.314  -2.274  25.789  0.00  0.00    +0.111 A 
ENDBRANCH  12  13
ENDBRANCH   4  12
ENDBRANCH   7   4
BRANCH   7  10
ATOM     10  C   UNL     1      -0.904   1.965  25.860  0.00  0.00    +0.085 C 
BRANCH  10  11
ATOM      2  O   UNL     1       0.279  -0.642  23.659  0.00  0.00    -0.357 OA
ATOM      5  N   UNL     1      -0.567  -0.158  24.651  0.00  0.00    -0.083 NA
ATOM     11  C   UNL     1      -0.190   1.110  24.837  0.00  0.00    +0.086 A 
ATOM     14  C   UNL     1       0.878   1.478  24.000  0.00  0.00    +0.073 A 
ATOM     15  C   UNL     1       1.134   0.342  23.281  0.00  0.00    +0.163 A 
BRANCH  15  18
ATOM     18  C   UNL     1       2.105  -0.001  22.234  0.00  0.00    +0.232 C 
BRANCH  18   3
ATOM      3  O   UNL     1       3.265   0.827  22.343  0.00  0.00    -0.387 OA
ATOM     22  H   UNL     1       3.010   1.606  22.865  0.00  0.00    +0.210 HD
ENDBRANCH  18   3
ENDBRANCH  15  18
ENDBRANCH  10  11
ENDBRANCH   7  10
TORSDOF 7
ENDMDL
MODEL 3
REMARK VINA RESULT:      -6.1      2.272      4.726
REMARK  Name = 71694084
REMARK  7 active torsions:
REMARK  status: ('A' for Active; 'I' for Inactive)
REMARK    1  A    between atoms: O_3  and  C_18
REMARK    2  A    between atoms: N_4  and  C_7
REMARK    3  A    between atoms: N_4  and  C_12
REMARK    4  A    between atoms: C_7  and  C_10
REMARK    5  A    between atoms: C_10  and  C_11
REMARK    6  A    between atoms: C_12  and  C_13
REMARK    7  A    between atoms: C_15  and  C_18
REMARK                            x       y       z     vdW  Elec       q    Type
REMARK                         _______ _______ _______ _____ _____    ______ ____
ROOT
ATOM      1  O   UNL     1      -5.904   3.958  25.726  0.00  0.00    -0.376 OA
ATOM      7  C   UNL     1      -4.342   2.704  24.983  0.00  0.00    +0.072 C 
ATOM      8  C   UNL     1      -4.488   3.826  26.020  0.00  0.00    +0.184 C 
ATOM      9  C   UNL     1      -5.875   2.726  24.958  0.00  0.00    +0.184 C 
ENDROOT
BRANCH   7   4
ATOM      4  N   UNL     1      -3.903   1.489  25.677  0.00  0.00    -0.302 NA
ATOM     21  H   UNL     1      -2.899   1.317  25.655  0.00  0.00    +0.123 HD
BRANCH   4  12
ATOM     12  C   UNL     1      -4.624   0.340  25.143  0.00  0.00    +0.117 C 
BRANCH  12  13
ATOM      6  N   UNL     1      -2.011  -3.002  24.433  0.00  0.00    -0.263 NA
ATOM     13  C   UNL     1      -3.709  -0.831  24.895  0.00  0.00    -0.031 A 
ATOM     16  C   UNL     1      -2.431  -0.845  25.441  0.00  0.00    +0.024 A 
ATOM     17  C   UNL     1      -4.140  -1.900  24.119  0.00  0.00    +0.024 A 
ATOM     19  C   UNL     1      -1.629  -1.945  25.183  0.00  0.00    +0.111 A 
ATOM     20  C   UNL     1      -3.261  -2.952  23.919  0.00  0.00    +0.111 A 
ENDBRANCH  12  13
ENDBRANCH   4  12
ENDBRANCH   7   4
BRANCH   7  10
ATOM     10  C   UNL     1      -3.577   2.974  23.713  0.00  0.00    +0.085 C 
BRANCH  10  11
ATOM      2  O   UNL     1      -0.143   2.258  24.569  0.00  0.00    -0.357 OA
ATOM      5  N   UNL     1      -1.332   2.957  24.736  0.00  0.00    -0.083 NA
ATOM     11  C   UNL     1      -2.164   2.446  23.824  0.00  0.00    +0.086 A 
ATOM     14  C   UNL     1      -1.561   1.433  23.059  0.00  0.00    +0.073 A 
ATOM     15  C   UNL     1      -0.292   1.354  23.567  0.00  0.00    +0.163 A 
BRANCH  15  18
ATOM     18  C   UNL     1       0.877   0.523  23.255  0.00  0.00    +0.232 C 
BRANCH  18   3
ATOM      3  O   UNL     1       2.084   1.253  23.493  0.00  0.00    -0.387 OA
ATOM     22  H   UNL     1       2.416   1.542  22.626  0.00  0.00    +0.210 HD
ENDBRANCH  18   3
ENDBRANCH  15  18
ENDBRANCH  10  11
ENDBRANCH   7  10
TORSDOF 7
ENDMDL
MODEL 4
REMARK VINA RESULT:      -5.8      2.153      4.549
REMARK  Name = 71694084
REMARK  7 active torsions:
REMARK  status: ('A' for Active; 'I' for Inactive)
REMARK    1  A    between atoms: O_3  and  C_18
REMARK    2  A    between atoms: N_4  and  C_7
REMARK    3  A    between atoms: N_4  and  C_12
REMARK    4  A    between atoms: C_7  and  C_10
REMARK    5  A    between atoms: C_10  and  C_11
REMARK    6  A    between atoms: C_12  and  C_13
REMARK    7  A    between atoms: C_15  and  C_18
REMARK                            x       y       z     vdW  Elec       q    Type
REMARK                         _______ _______ _______ _____ _____    ______ ____
ROOT
ATOM      1  O   UNL     1       1.438   0.830  23.427  0.00  0.00    -0.376 OA
ATOM      7  C   UNL     1      -0.545   1.282  24.082  0.00  0.00    +0.072 C 
ATOM      8  C   UNL     1       0.191   0.087  23.463  0.00  0.00    +0.184 C 
ATOM      9  C   UNL     1       0.861   1.867  24.264  0.00  0.00    +0.184 C 
ENDROOT
BRANCH   7   4
ATOM      4  N   UNL     1      -1.058   0.880  25.395  0.00  0.00    -0.302 NA
ATOM     21  H   UNL     1      -0.606   1.325  26.192  0.00  0.00    +0.123 HD
BRANCH   4  12
ATOM     12  C   UNL     1      -0.986  -0.571  25.519  0.00  0.00    +0.117 C 
BRANCH  12  13
ATOM      6  N   UNL     1      -4.463  -2.494  23.869  0.00  0.00    -0.263 NA
ATOM     13  C   UNL     1      -2.204  -1.244  24.941  0.00  0.00    -0.031 A 
ATOM     16  C   UNL     1      -3.410  -0.557  24.863  0.00  0.00    +0.024 A 
ATOM     17  C   UNL     1      -2.125  -2.554  24.484  0.00  0.00    +0.024 A 
ATOM     19  C   UNL     1      -4.500  -1.222  24.323  0.00  0.00    +0.111 A 
ATOM     20  C   UNL     1      -3.272  -3.129  23.962  0.00  0.00    +0.111 A 
ENDBRANCH  12  13
ENDBRANCH   4  12
ENDBRANCH   7   4
BRANCH   7  10
ATOM     10  C   UNL     1      -1.556   2.031  23.252  0.00  0.00    +0.085 C 
BRANCH  10  11
ATOM      2  O   UNL     1      -3.320   4.002  25.709  0.00  0.00    -0.357 OA
ATOM      5  N   UNL     1      -2.156   3.557  25.093  0.00  0.00    -0.083 NA
ATOM     11  C   UNL     1      -2.569   2.716  24.141  0.00  0.00    +0.086 A 
ATOM     14  C   UNL     1      -3.968   2.590  24.110  0.00  0.00    +0.073 A 
ATOM     15  C   UNL     1      -4.392   3.419  25.115  0.00  0.00    +0.163 A 
BRANCH  15  18
ATOM     18  C   UNL     1      -5.712   3.778  25.646  0.00  0.00    +0.232 C 
BRANCH  18   3
ATOM      3  O   UNL     1      -6.224   2.722  26.463  0.00  0.00    -0.387 OA
ATOM     22  H   UNL     1      -6.379   3.097  27.347  0.00  0.00    +0.210 HD
ENDBRANCH  18   3
ENDBRANCH  15  18
ENDBRANCH  10  11
ENDBRANCH   7  10
TORSDOF 7
ENDMDL
MODEL 5
REMARK VINA RESULT:      -5.7      2.164      3.788
REMARK  Name = 71694084
REMARK  7 active torsions:
REMARK  status: ('A' for Active; 'I' for Inactive)
REMARK    1  A    between atoms: O_3  and  C_18
REMARK    2  A    between atoms: N_4  and  C_7
REMARK    3  A    between atoms: N_4  and  C_12
REMARK    4  A    between atoms: C_7  and  C_10
REMARK    5  A    between atoms: C_10  and  C_11
REMARK    6  A    between atoms: C_12  and  C_13
REMARK    7  A    between atoms: C_15  and  C_18
REMARK                            x       y       z     vdW  Elec       q    Type
REMARK                         _______ _______ _______ _____ _____    ______ ____
ROOT
ATOM      1  O   UNL     1      -2.550  -3.336  24.301  0.00  0.00    -0.376 OA
ATOM      7  C   UNL     1      -2.860  -1.248  24.630  0.00  0.00    +0.072 C 
ATOM      8  C   UNL     1      -3.535  -2.564  25.037  0.00  0.00    +0.184 C 
ATOM      9  C   UNL     1      -1.725  -2.152  24.136  0.00  0.00    +0.184 C 
ENDROOT
BRANCH   7   4
ATOM      4  N   UNL     1      -2.415  -0.562  25.847  0.00  0.00    -0.302 NA
ATOM     21  H   UNL     1      -2.956   0.263  26.102  0.00  0.00    +0.123 HD
BRANCH   4  12
ATOM     12  C   UNL     1      -1.003  -0.221  25.721  0.00  0.00    +0.117 C 
BRANCH  12  13
ATOM      6  N   UNL     1      -0.442   3.881  24.555  0.00  0.00    -0.263 NA
ATOM     13  C   UNL     1      -0.807   1.215  25.312  0.00  0.00    -0.031 A 
ATOM     16  C   UNL     1      -0.333   1.520  24.042  0.00  0.00    +0.024 A 
ATOM     17  C   UNL     1      -1.099   2.240  26.205  0.00  0.00    +0.024 A 
ATOM     19  C   UNL     1      -0.170   2.857  23.715  0.00  0.00    +0.111 A 
ATOM     20  C   UNL     1      -0.901   3.544  25.781  0.00  0.00    +0.111 A 
ENDBRANCH  12  13
ENDBRANCH   4  12
ENDBRANCH   7   4
BRANCH   7  10
ATOM     10  C   UNL     1      -3.559  -0.336  23.655  0.00  0.00    +0.085 C 
BRANCH  10  11
ATOM      2  O   UNL     1      -5.400   1.886  25.825  0.00  0.00    -0.357 OA
ATOM      5  N   UNL     1      -5.020   0.619  25.396  0.00  0.00    -0.083 NA
ATOM     11  C   UNL     1      -4.183   0.836  24.378  0.00  0.00    +0.086 A 
ATOM     14  C   UNL     1      -3.999   2.205  24.120  0.00  0.00    +0.073 A 
ATOM     15  C   UNL     1      -4.785   2.821  25.057  0.00  0.00    +0.163 A 
BRANCH  15  18
ATOM     18  C   UNL     1      -5.077   4.224  25.374  0.00  0.00    +0.232 C 
BRANCH  18   3
ATOM      3  O   UNL     1      -6.435   4.366  25.800  0.00  0.00    -0.387 OA
ATOM     22  H   UNL     1      -6.946   4.654  25.024  0.00  0.00    +0.210 HD
ENDBRANCH  18   3
ENDBRANCH  15  18
ENDBRANCH  10  11
ENDBRANCH   7  10
TORSDOF 7
ENDMDL
MODEL 6
REMARK VINA RESULT:      -5.6      1.809      2.698
REMARK  Name = 71694084
REMARK  7 active torsions:
REMARK  status: ('A' for Active; 'I' for Inactive)
REMARK    1  A    between atoms: O_3  and  C_18
REMARK    2  A    between atoms: N_4  and  C_7
REMARK    3  A    between atoms: N_4  and  C_12
REMARK    4  A    between atoms: C_7  and  C_10
REMARK    5  A    between atoms: C_10  and  C_11
REMARK    6  A    between atoms: C_12  and  C_13
REMARK    7  A    between atoms: C_15  and  C_18
REMARK                            x       y       z     vdW  Elec       q    Type
REMARK                         _______ _______ _______ _____ _____    ______ ____
ROOT
ATOM      1  O   UNL     1      -2.882  -2.695  25.476  0.00  0.00    -0.376 OA
ATOM      7  C   UNL     1      -2.521  -0.698  24.807  0.00  0.00    +0.072 C 
ATOM      8  C   UNL     1      -2.027  -2.108  24.460  0.00  0.00    +0.184 C 
ATOM      9  C   UNL     1      -3.582  -1.432  25.637  0.00  0.00    +0.184 C 
ENDROOT
BRANCH   7   4
ATOM      4  N   UNL     1      -3.168  -0.130  23.620  0.00  0.00    -0.302 NA
ATOM     21  H   UNL     1      -2.893  -0.550  22.734  0.00  0.00    +0.123 HD
BRANCH   4  12
ATOM     12  C   UNL     1      -2.944   1.310  23.588  0.00  0.00    +0.117 C 
BRANCH  12  13
ATOM      6  N   UNL     1      -5.893   3.442  25.882  0.00  0.00    -0.263 NA
ATOM     13  C   UNL     1      -3.977   2.056  24.392  0.00  0.00    -0.031 A 
ATOM     16  C   UNL     1      -5.185   1.448  24.710  0.00  0.00    +0.024 A 
ATOM     17  C   UNL     1      -3.724   3.355  24.817  0.00  0.00    +0.024 A 
ATOM     19  C   UNL     1      -6.101   2.178  25.452  0.00  0.00    +0.111 A 
ATOM     20  C   UNL     1      -4.705   3.999  25.553  0.00  0.00    +0.111 A 
ENDBRANCH  12  13
ENDBRANCH   4  12
ENDBRANCH   7   4
BRANCH   7  10
ATOM     10  C   UNL     1      -1.581   0.262  25.489  0.00  0.00    +0.085 C 
BRANCH  10  11
ATOM      2  O   UNL     1       1.315   1.575  23.780  0.00  0.00    -0.357 OA
ATOM      5  N   UNL     1       0.251   1.693  24.666  0.00  0.00    -0.083 NA
ATOM     11  C   UNL     1      -0.359   0.505  24.632  0.00  0.00    +0.086 A 
ATOM     14  C   UNL     1       0.267  -0.393  23.750  0.00  0.00    +0.073 A 
ATOM     15  C   UNL     1       1.314   0.329  23.241  0.00  0.00    +0.163 A 
BRANCH  15  18
ATOM     18  C   UNL     1       2.378   0.032  22.275  0.00  0.00    +0.232 C 
BRANCH  18   3
ATOM      3  O   UNL     1       3.456   0.960  22.421  0.00  0.00    -0.387 OA
ATOM     22  H   UNL     1       3.537   1.435  21.577  0.00  0.00    +0.210 HD
ENDBRANCH  18   3
ENDBRANCH  15  18
ENDBRANCH  10  11
ENDBRANCH   7  10
TORSDOF 7
ENDMDL
MODEL 7
REMARK VINA RESULT:      -5.4      2.118      3.738
REMARK  Name = 71694084
REMARK  7 active torsions:
REMARK  status: ('A' for Active; 'I' for Inactive)
REMARK    1  A    between atoms: O_3  and  C_18
REMARK    2  A    between atoms: N_4  and  C_7
REMARK    3  A    between atoms: N_4  and  C_12
REMARK    4  A    between atoms: C_7  and  C_10
REMARK    5  A    between atoms: C_10  and  C_11
REMARK    6  A    between atoms: C_12  and  C_13
REMARK    7  A    between atoms: C_15  and  C_18
REMARK                            x       y       z     vdW  Elec       q    Type
REMARK                         _______ _______ _______ _____ _____    ______ ____
ROOT
ATOM      1  O   UNL     1      -0.264  -1.863  25.700  0.00  0.00    -0.376 OA
ATOM      7  C   UNL     1      -1.309  -0.466  24.466  0.00  0.00    +0.072 C 
ATOM      8  C   UNL     1      -1.111  -0.714  25.967  0.00  0.00    +0.184 C 
ATOM      9  C   UNL     1      -0.188  -1.498  24.296  0.00  0.00    +0.184 C 
ENDROOT
BRANCH   7   4
ATOM      4  N   UNL     1      -0.776   0.861  24.144  0.00  0.00    -0.302 NA
ATOM     21  H   UNL     1       0.032   0.865  23.523  0.00  0.00    +0.123 HD
BRANCH   4  12
ATOM     12  C   UNL     1      -0.467   1.572  25.378  0.00  0.00    +0.117 C 
BRANCH  12  13
ATOM      6  N   UNL     1      -1.945   5.611  25.314  0.00  0.00    -0.263 NA
ATOM     13  C   UNL     1      -0.984   2.987  25.355  0.00  0.00    -0.031 A 
ATOM     16  C   UNL     1      -0.307   3.966  24.639  0.00  0.00    +0.024 A 
ATOM     17  C   UNL     1      -2.141   3.317  26.051  0.00  0.00    +0.024 A 
ATOM     19  C   UNL     1      -0.824   5.252  24.650  0.00  0.00    +0.111 A 
ATOM     20  C   UNL     1      -2.576   4.631  25.999  0.00  0.00    +0.111 A 
ENDBRANCH  12  13
ENDBRANCH   4  12
ENDBRANCH   7   4
BRANCH   7  10
ATOM     10  C   UNL     1      -2.659  -0.730  23.851  0.00  0.00    +0.085 C 
BRANCH  10  11
ATOM      2  O   UNL     1      -4.595   2.312  24.025  0.00  0.00    -0.357 OA
ATOM      5  N   UNL     1      -3.603   1.515  23.466  0.00  0.00    -0.083 NA
ATOM     11  C   UNL     1      -3.621   0.388  24.182  0.00  0.00    +0.086 A 
ATOM     14  C   UNL     1      -4.593   0.416  25.198  0.00  0.00    +0.073 A 
ATOM     15  C   UNL     1      -5.176   1.646  25.055  0.00  0.00    +0.163 A 
BRANCH  15  18
ATOM     18  C   UNL     1      -6.253   2.348  25.764  0.00  0.00    +0.232 C 
BRANCH  18   3
ATOM      3  O   UNL     1      -6.002   3.755  25.782  0.00  0.00    -0.387 OA
ATOM     22  H   UNL     1      -5.037   3.870  25.828  0.00  0.00    +0.210 HD
ENDBRANCH  18   3
ENDBRANCH  15  18
ENDBRANCH  10  11
ENDBRANCH   7  10
TORSDOF 7
ENDMDL
MODEL 8
REMARK VINA RESULT:      -5.3      1.950      5.181
REMARK  Name = 71694084
REMARK  7 active torsions:
REMARK  status: ('A' for Active; 'I' for Inactive)
REMARK    1  A    between atoms: O_3  and  C_18
REMARK    2  A    between atoms: N_4  and  C_7
REMARK    3  A    between atoms: N_4  and  C_12
REMARK    4  A    between atoms: C_7  and  C_10
REMARK    5  A    between atoms: C_10  and  C_11
REMARK    6  A    between atoms: C_12  and  C_13
REMARK    7  A    between atoms: C_15  and  C_18
REMARK                            x       y       z     vdW  Elec       q    Type
REMARK                         _______ _______ _______ _____ _____    ______ ____
ROOT
ATOM      1  O   UNL     1      -0.417   4.196  25.247  0.00  0.00    -0.376 OA
ATOM      7  C   UNL     1      -0.910   2.331  24.330  0.00  0.00    +0.072 C 
ATOM      8  C   UNL     1       0.109   3.457  24.114  0.00  0.00    +0.184 C 
ATOM      9  C   UNL     1      -1.193   3.040  25.660  0.00  0.00    +0.184 C 
ENDROOT
BRANCH   7   4
ATOM      4  N   UNL     1      -0.177   1.092  24.608  0.00  0.00    -0.302 NA
ATOM     21  H   UNL     1      -0.109   0.443  23.826  0.00  0.00    +0.123 HD
BRANCH   4  12
ATOM     12  C   UNL     1      -0.767   0.429  25.765  0.00  0.00    +0.117 C 
BRANCH  12  13
ATOM      6  N   UNL     1      -3.155  -2.960  24.620  0.00  0.00    -0.263 NA
ATOM     13  C   UNL     1      -1.603  -0.758  25.364  0.00  0.00    -0.031 A 
ATOM     16  C   UNL     1      -1.129  -1.657  24.416  0.00  0.00    +0.024 A 
ATOM     17  C   UNL     1      -2.852  -0.958  25.941  0.00  0.00    +0.024 A 
ATOM     19  C   UNL     1      -1.937  -2.733  24.082  0.00  0.00    +0.111 A 
ATOM     20  C   UNL     1      -3.582  -2.064  25.538  0.00  0.00    +0.111 A 
ENDBRANCH  12  13
ENDBRANCH   4  12
ENDBRANCH   7   4
BRANCH   7  10
ATOM     10  C   UNL     1      -2.026   2.151  23.335  0.00  0.00    +0.085 C 
BRANCH  10  11
ATOM      2  O   UNL     1      -5.016   3.533  24.814  0.00  0.00    -0.357 OA
ATOM      5  N   UNL     1      -3.767   3.659  24.216  0.00  0.00    -0.083 NA
ATOM     11  C   UNL     1      -3.366   2.406  23.989  0.00  0.00    +0.086 A 
ATOM     14  C   UNL     1      -4.309   1.456  24.419  0.00  0.00    +0.073 A 
ATOM     15  C   UNL     1      -5.326   2.217  24.930  0.00  0.00    +0.163 A 
BRANCH  15  18
ATOM     18  C   UNL     1      -6.621   1.901  25.546  0.00  0.00    +0.232 C 
BRANCH  18   3
ATOM      3  O   UNL     1      -6.567   2.124  26.958  0.00  0.00    -0.387 OA
ATOM     22  H   UNL     1      -5.930   1.485  27.321  0.00  0.00    +0.210 HD
ENDBRANCH  18   3
ENDBRANCH  15  18
ENDBRANCH  10  11
ENDBRANCH   7  10
TORSDOF 7
ENDMDL
MODEL 9
REMARK VINA RESULT:      -5.3     15.868     18.519
REMARK  Name = 71694084
REMARK  7 active torsions:
REMARK  status: ('A' for Active; 'I' for Inactive)
REMARK    1  A    between atoms: O_3  and  C_18
REMARK    2  A    between atoms: N_4  and  C_7
REMARK    3  A    between atoms: N_4  and  C_12
REMARK    4  A    between atoms: C_7  and  C_10
REMARK    5  A    between atoms: C_10  and  C_11
REMARK    6  A    between atoms: C_12  and  C_13
REMARK    7  A    between atoms: C_15  and  C_18
REMARK                            x       y       z     vdW  Elec       q    Type
REMARK                         _______ _______ _______ _____ _____    ______ ____
ROOT
ATOM      1  O   UNL     1      10.871   6.494  21.867  0.00  0.00    -0.376 OA
ATOM      7  C   UNL     1      12.363   7.922  21.318  0.00  0.00    +0.072 C 
ATOM      8  C   UNL     1      11.882   6.550  20.827  0.00  0.00    +0.184 C 
ATOM      9  C   UNL     1      11.094   7.894  22.181  0.00  0.00    +0.184 C 
ENDROOT
BRANCH   7   4
ATOM      4  N   UNL     1      12.171   8.893  20.237  0.00  0.00    -0.302 NA
ATOM     21  H   UNL     1      11.863   9.818  20.534  0.00  0.00    +0.123 HD
BRANCH   4  12
ATOM     12  C   UNL     1      11.247   8.345  19.252  0.00  0.00    +0.117 C 
BRANCH  12  13
ATOM      6  N   UNL     1      12.567   9.093  15.227  0.00  0.00    -0.263 NA
ATOM     13  C   UNL     1      11.709   8.607  17.842  0.00  0.00    -0.031 A 
ATOM     16  C   UNL     1      10.778   8.793  16.827  0.00  0.00    +0.024 A 
ATOM     17  C   UNL     1      13.067   8.664  17.554  0.00  0.00    +0.024 A 
ATOM     19  C   UNL     1      11.255   9.031  15.547  0.00  0.00    +0.111 A 
ATOM     20  C   UNL     1      13.441   8.907  16.242  0.00  0.00    +0.111 A 
ENDBRANCH  12  13
ENDBRANCH   4  12
ENDBRANCH   7   4
BRANCH   7  10
ATOM     10  C   UNL     1      13.709   8.032  21.985  0.00  0.00    +0.085 C 
BRANCH  10  11
ATOM      2  O   UNL     1      16.237   7.918  19.410  0.00  0.00    -0.357 OA
ATOM      5  N   UNL     1      15.238   8.567  20.126  0.00  0.00    -0.083 NA
ATOM     11  C   UNL     1      14.812   7.668  21.016  0.00  0.00    +0.086 A 
ATOM     14  C   UNL     1      15.496   6.445  20.910  0.00  0.00    +0.073 A 
ATOM     15  C   UNL     1      16.381   6.655  19.886  0.00  0.00    +0.163 A 
BRANCH  15  18
ATOM     18  C   UNL     1      17.400   5.822  19.237  0.00  0.00    +0.232 C 
BRANCH  18   3
ATOM      3  O   UNL     1      16.925   5.347  17.975  0.00  0.00    -0.387 OA
ATOM     22  H   UNL     1      16.227   4.697  18.162  0.00  0.00    +0.210 HD
ENDBRANCH  18   3
ENDBRANCH  15  18
ENDBRANCH  10  11
ENDBRANCH   7  10
TORSDOF 7
ENDMDL
MODEL 10
REMARK VINA RESULT:      -5.1      1.748      4.426
REMARK  Name = 71694084
REMARK  7 active torsions:
REMARK  status: ('A' for Active; 'I' for Inactive)
REMARK    1  A    between atoms: O_3  and  C_18
REMARK    2  A    between atoms: N_4  and  C_7
REMARK    3  A    between atoms: N_4  and  C_12
REMARK    4  A    between atoms: C_7  and  C_10
REMARK    5  A    between atoms: C_10  and  C_11
REMARK    6  A    between atoms: C_12  and  C_13
REMARK    7  A    between atoms: C_15  and  C_18
REMARK                            x       y       z     vdW  Elec       q    Type
REMARK                         _______ _______ _______ _____ _____    ______ ____
ROOT
ATOM      1  O   UNL     1       1.579   1.841  23.805  0.00  0.00    -0.376 OA
ATOM      7  C   UNL     1      -0.463   1.514  24.339  0.00  0.00    +0.072 C 
ATOM      8  C   UNL     1       0.554   2.659  24.427  0.00  0.00    +0.184 C 
ATOM      9  C   UNL     1       0.586   0.845  23.442  0.00  0.00    +0.184 C 
ENDROOT
BRANCH   7   4
ATOM      4  N   UNL     1      -1.583   1.954  23.500  0.00  0.00    -0.302 NA
ATOM     21  H   UNL     1      -1.356   2.103  22.518  0.00  0.00    +0.123 HD
BRANCH   4  12
ATOM     12  C   UNL     1      -2.172   3.158  24.072  0.00  0.00    +0.117 C 
BRANCH  12  13
ATOM      6  N   UNL     1      -6.104   2.423  25.652  0.00  0.00    -0.263 NA
ATOM     13  C   UNL     1      -3.549   2.900  24.625  0.00  0.00    -0.031 A 
ATOM     16  C   UNL     1      -4.273   1.791  24.205  0.00  0.00    +0.024 A 
ATOM     17  C   UNL     1      -4.099   3.772  25.558  0.00  0.00    +0.024 A 
ATOM     19  C   UNL     1      -5.535   1.599  24.745  0.00  0.00    +0.111 A 
ATOM     20  C   UNL     1      -5.369   3.491  26.036  0.00  0.00    +0.111 A 
ENDBRANCH  12  13
ENDBRANCH   4  12
ENDBRANCH   7   4
BRANCH   7  10
ATOM     10  C   UNL     1      -0.903   0.825  25.605  0.00  0.00    +0.085 C 
BRANCH  10  11
ATOM      2  O   UNL     1      -1.430  -2.702  25.038  0.00  0.00    -0.357 OA
ATOM      5  N   UNL     1      -0.630  -1.615  25.374  0.00  0.00    -0.083 NA
ATOM     11  C   UNL     1      -1.439  -0.555  25.298  0.00  0.00    +0.086 A 
ATOM     14  C   UNL     1      -2.747  -0.907  24.921  0.00  0.00    +0.073 A 
ATOM     15  C   UNL     1      -2.687  -2.267  24.771  0.00  0.00    +0.163 A 
BRANCH  15  18
ATOM     18  C   UNL     1      -3.669  -3.291  24.395  0.00  0.00    +0.232 C 
BRANCH  18   3
ATOM      3  O   UNL     1      -4.726  -2.709  23.627  0.00  0.00    -0.387 OA
ATOM     22  H   UNL     1      -4.360  -2.506  22.750  0.00  0.00    +0.210 HD
ENDBRANCH  18   3
ENDBRANCH  15  18
ENDBRANCH  10  11
ENDBRANCH   7  10
TORSDOF 7
ENDMDL
