MODEL 1
REMARK VINA RESULT:      -2.2      0.000      0.000
REMARK  Name = 71694021
REMARK  8 active torsions:
REMARK  status: ('A' for Active; 'I' for Inactive)
REMARK    1  A    between atoms: S_1  and  N_9
REMARK    2  A    between atoms: S_1  and  C_18
REMARK    3  A    between atoms: O_5  and  C_12
REMARK    4  A    between atoms: O_6  and  C_14
REMARK    5  A    between atoms: N_9  and  C_11
REMARK    6  A    between atoms: C_10  and  C_15
REMARK    7  A    between atoms: C_16  and  C_20
REMARK    8  A    between atoms: C_27  and  C_28
REMARK                            x       y       z     vdW  Elec       q    Type
REMARK                         _______ _______ _______ _____ _____    ______ ____
ROOT
ATOM     10  C   UNL     1      -2.863  -0.224  24.159  0.00  0.00    +0.043 C 
ATOM     11  C   UNL     1      -3.912  -0.179  25.303  0.00  0.00    +0.115 C 
ATOM     12  C   UNL     1      -4.044  -1.621  25.810  0.00  0.00    +0.162 C 
ATOM     13  C   UNL     1      -2.338  -1.670  24.143  0.00  0.00    +0.043 C 
ATOM     14  C   UNL     1      -3.524  -2.472  24.655  0.00  0.00    +0.145 C 
ENDROOT
BRANCH  10  15
ATOM     15  C   UNL     1      -1.762   0.804  24.292  0.00  0.00    -0.040 A 
ATOM     16  C   UNL     1      -1.467   1.680  23.248  0.00  0.00    -0.047 A 
ATOM     17  C   UNL     1      -1.037   0.870  25.483  0.00  0.00    +0.004 A 
ATOM     19  C   UNL     1      -0.448   2.621  23.393  0.00  0.00    +0.003 A 
ATOM     20  C   UNL     1      -2.229   1.630  21.965  0.00  0.00    +0.044 C 
ATOM     21  C   UNL     1      -0.017   1.810  25.627  0.00  0.00    +0.000 A 
ATOM     22  C   UNL     1       0.278   2.686  24.582  0.00  0.00    +0.000 A 
ENDBRANCH  10  15
BRANCH  12   5
ATOM      5  O   UNL     1      -3.207  -1.763  26.957  0.00  0.00    -0.388 OA
ATOM     30  H   UNL     1      -2.775  -0.906  27.110  0.00  0.00    +0.210 HD
ENDBRANCH  12   5
BRANCH  14   6
ATOM      6  O   UNL     1      -3.136  -3.768  25.064  0.00  0.00    -0.389 OA
ATOM     31  H   UNL     1      -2.995  -4.299  24.261  0.00  0.00    +0.210 HD
ENDBRANCH  14   6
BRANCH  11   9
ATOM      9  N   UNL     1      -5.219   0.271  24.753  0.00  0.00    -0.184 NA
ATOM     29  H   UNL     1      -5.540  -0.152  23.873  0.00  0.00    +0.148 HD
BRANCH   9   1
ATOM      1  S   UNL     1      -5.960   1.670  25.368  0.00  0.00    +0.059 S 
ATOM      7  O   UNL     1      -6.244   1.486  26.777  0.00  0.00    -0.153 OA
ATOM      8  O   UNL     1      -7.012   2.080  24.458  0.00  0.00    -0.153 OA
BRANCH   1  18
ATOM     18  C   UNL     1      -4.661   2.862  25.226  0.00  0.00    +0.105 A 
ATOM     23  C   UNL     1      -4.426   3.494  24.005  0.00  0.00    +0.029 A 
ATOM     24  C   UNL     1      -3.870   3.168  26.334  0.00  0.00    +0.029 A 
ATOM     25  C   UNL     1      -3.401   4.434  23.892  0.00  0.00    +0.014 A 
ATOM     26  C   UNL     1      -2.845   4.107  26.221  0.00  0.00    +0.014 A 
ATOM     27  C   UNL     1      -2.610   4.740  25.000  0.00  0.00    +0.055 A 
BRANCH  27  28
ATOM      2  F   UNL     1      -1.808   6.919  25.508  0.00  0.00    -0.166 F 
ATOM      3  F   UNL     1      -0.329   5.329  25.412  0.00  0.00    -0.166 F 
ATOM      4  F   UNL     1      -1.226   6.084  23.587  0.00  0.00    -0.166 F 
ATOM     28  C   UNL     1      -1.515   5.745  24.879  0.00  0.00    +0.417 C 
ENDBRANCH  27  28
ENDBRANCH   1  18
ENDBRANCH   9   1
ENDBRANCH  11   9
TORSDOF 7
ENDMDL
MODEL 2
REMARK VINA RESULT:      -1.5      2.848      5.236
REMARK  Name = 71694021
REMARK  8 active torsions:
REMARK  status: ('A' for Active; 'I' for Inactive)
REMARK    1  A    between atoms: S_1  and  N_9
REMARK    2  A    between atoms: S_1  and  C_18
REMARK    3  A    between atoms: O_5  and  C_12
REMARK    4  A    between atoms: O_6  and  C_14
REMARK    5  A    between atoms: N_9  and  C_11
REMARK    6  A    between atoms: C_10  and  C_15
REMARK    7  A    between atoms: C_16  and  C_20
REMARK    8  A    between atoms: C_27  and  C_28
REMARK                            x       y       z     vdW  Elec       q    Type
REMARK                         _______ _______ _______ _____ _____    ______ ____
ROOT
ATOM     10  C   UNL     1      -3.319   2.709  26.026  0.00  0.00    +0.043 C 
ATOM     11  C   UNL     1      -3.892   1.630  25.066  0.00  0.00    +0.115 C 
ATOM     12  C   UNL     1      -5.375   1.980  24.880  0.00  0.00    +0.162 C 
ATOM     13  C   UNL     1      -4.465   3.710  26.248  0.00  0.00    +0.043 C 
ATOM     14  C   UNL     1      -5.709   2.849  26.088  0.00  0.00    +0.145 C 
ENDROOT
BRANCH  10  15
ATOM     15  C   UNL     1      -2.049   3.362  25.527  0.00  0.00    -0.040 A 
ATOM     16  C   UNL     1      -0.805   2.765  25.733  0.00  0.00    -0.047 A 
ATOM     17  C   UNL     1      -2.134   4.582  24.853  0.00  0.00    +0.004 A 
ATOM     19  C   UNL     1       0.353   3.386  25.265  0.00  0.00    +0.003 A 
ATOM     20  C   UNL     1      -0.689   1.461  26.451  0.00  0.00    +0.044 C 
ATOM     21  C   UNL     1      -0.975   5.202  24.386  0.00  0.00    +0.000 A 
ATOM     22  C   UNL     1       0.268   4.604  24.592  0.00  0.00    +0.000 A 
ENDBRANCH  10  15
BRANCH  12   5
ATOM      5  O   UNL     1      -5.503   2.727  23.671  0.00  0.00    -0.388 OA
ATOM     30  H   UNL     1      -4.622   3.069  23.446  0.00  0.00    +0.210 HD
ENDBRANCH  12   5
BRANCH  14   6
ATOM      6  O   UNL     1      -6.864   3.639  25.890  0.00  0.00    -0.389 OA
ATOM     31  H   UNL     1      -6.569   4.539  25.669  0.00  0.00    +0.210 HD
ENDBRANCH  14   6
BRANCH  11   9
ATOM      9  N   UNL     1      -3.778   0.293  25.707  0.00  0.00    -0.184 NA
ATOM     29  H   UNL     1      -3.690   0.257  26.729  0.00  0.00    +0.148 HD
BRANCH   9   1
ATOM      1  S   UNL     1      -3.452  -1.076  24.756  0.00  0.00    +0.059 S 
ATOM      7  O   UNL     1      -4.336  -1.089  23.607  0.00  0.00    -0.153 OA
ATOM      8  O   UNL     1      -3.363  -2.236  25.622  0.00  0.00    -0.153 OA
BRANCH   1  18
ATOM     18  C   UNL     1      -1.815  -0.736  24.179  0.00  0.00    +0.105 A 
ATOM     23  C   UNL     1      -1.593   0.321  23.298  0.00  0.00    +0.029 A 
ATOM     24  C   UNL     1      -0.747  -1.527  24.604  0.00  0.00    +0.029 A 
ATOM     25  C   UNL     1      -0.302   0.590  22.842  0.00  0.00    +0.014 A 
ATOM     26  C   UNL     1       0.544  -1.259  24.148  0.00  0.00    +0.014 A 
ATOM     27  C   UNL     1       0.767  -0.201  23.267  0.00  0.00    +0.055 A 
BRANCH  27  28
ATOM      2  F   UNL     1       2.244   0.036  21.420  0.00  0.00    -0.166 F 
ATOM      3  F   UNL     1       2.606   1.322  23.135  0.00  0.00    -0.166 F 
ATOM      4  F   UNL     1       3.084  -0.790  23.247  0.00  0.00    -0.166 F 
ATOM     28  C   UNL     1       2.146   0.086  22.780  0.00  0.00    +0.417 C 
ENDBRANCH  27  28
ENDBRANCH   1  18
ENDBRANCH   9   1
ENDBRANCH  11   9
TORSDOF 7
ENDMDL
MODEL 3
REMARK VINA RESULT:      -1.5      3.354      4.973
REMARK  Name = 71694021
REMARK  8 active torsions:
REMARK  status: ('A' for Active; 'I' for Inactive)
REMARK    1  A    between atoms: S_1  and  N_9
REMARK    2  A    between atoms: S_1  and  C_18
REMARK    3  A    between atoms: O_5  and  C_12
REMARK    4  A    between atoms: O_6  and  C_14
REMARK    5  A    between atoms: N_9  and  C_11
REMARK    6  A    between atoms: C_10  and  C_15
REMARK    7  A    between atoms: C_16  and  C_20
REMARK    8  A    between atoms: C_27  and  C_28
REMARK                            x       y       z     vdW  Elec       q    Type
REMARK                         _______ _______ _______ _____ _____    ______ ____
ROOT
ATOM     10  C   UNL     1      -4.144   1.103  24.467  0.00  0.00    +0.043 C 
ATOM     11  C   UNL     1      -4.198   2.299  25.457  0.00  0.00    +0.115 C 
ATOM     12  C   UNL     1      -5.688   2.575  25.701  0.00  0.00    +0.162 C 
ATOM     13  C   UNL     1      -5.605   0.657  24.284  0.00  0.00    +0.043 C 
ATOM     14  C   UNL     1      -6.387   1.944  24.500  0.00  0.00    +0.145 C 
ENDROOT
BRANCH  10  15
ATOM     15  C   UNL     1      -3.232  -0.020  24.908  0.00  0.00    -0.040 A 
ATOM     16  C   UNL     1      -3.416  -1.321  24.439  0.00  0.00    -0.047 A 
ATOM     17  C   UNL     1      -2.195   0.260  25.798  0.00  0.00    +0.004 A 
ATOM     19  C   UNL     1      -2.563  -2.341  24.860  0.00  0.00    +0.003 A 
ATOM     20  C   UNL     1      -4.520  -1.645  23.486  0.00  0.00    +0.044 C 
ATOM     21  C   UNL     1      -1.342  -0.761  26.219  0.00  0.00    +0.000 A 
ATOM     22  C   UNL     1      -1.527  -2.062  25.749  0.00  0.00    +0.000 A 
ENDBRANCH  10  15
BRANCH  12   5
ATOM      5  O   UNL     1      -6.067   1.916  26.908  0.00  0.00    -0.388 OA
ATOM     30  H   UNL     1      -7.022   1.744  26.858  0.00  0.00    +0.210 HD
ENDBRANCH  12   5
BRANCH  14   6
ATOM      6  O   UNL     1      -7.755   1.685  24.739  0.00  0.00    -0.389 OA
ATOM     31  H   UNL     1      -7.998   0.896  24.225  0.00  0.00    +0.210 HD
ENDBRANCH  14   6
BRANCH  11   9
ATOM      9  N   UNL     1      -3.574   3.490  24.822  0.00  0.00    -0.184 NA
ATOM     29  H   UNL     1      -3.982   3.835  23.945  0.00  0.00    +0.148 HD
BRANCH   9   1
ATOM      1  S   UNL     1      -2.047   4.024  25.342  0.00  0.00    +0.059 S 
ATOM      7  O   UNL     1      -1.936   3.845  26.776  0.00  0.00    -0.153 OA
ATOM      8  O   UNL     1      -1.776   5.316  24.744  0.00  0.00    -0.153 OA
BRANCH   1  18
ATOM     18  C   UNL     1      -0.970   2.858  24.563  0.00  0.00    +0.105 A 
ATOM     23  C   UNL     1      -1.344   2.260  23.360  0.00  0.00    +0.029 A 
ATOM     24  C   UNL     1       0.253   2.534  25.153  0.00  0.00    +0.029 A 
ATOM     25  C   UNL     1      -0.494   1.339  22.744  0.00  0.00    +0.014 A 
ATOM     26  C   UNL     1       1.101   1.613  24.538  0.00  0.00    +0.014 A 
ATOM     27  C   UNL     1       0.728   1.016  23.335  0.00  0.00    +0.055 A 
BRANCH  27  28
ATOM      2  F   UNL     1       1.842  -1.081  23.436  0.00  0.00    -0.166 F 
ATOM      3  F   UNL     1       1.171  -0.423  21.476  0.00  0.00    -0.166 F 
ATOM      4  F   UNL     1       2.880   0.530  22.411  0.00  0.00    -0.166 F 
ATOM     28  C   UNL     1       1.636   0.033  22.677  0.00  0.00    +0.417 C 
ENDBRANCH  27  28
ENDBRANCH   1  18
ENDBRANCH   9   1
ENDBRANCH  11   9
TORSDOF 7
ENDMDL
MODEL 4
REMARK VINA RESULT:      -1.3      3.994      5.995
REMARK  Name = 71694021
REMARK  8 active torsions:
REMARK  status: ('A' for Active; 'I' for Inactive)
REMARK    1  A    between atoms: S_1  and  N_9
REMARK    2  A    between atoms: S_1  and  C_18
REMARK    3  A    between atoms: O_5  and  C_12
REMARK    4  A    between atoms: O_6  and  C_14
REMARK    5  A    between atoms: N_9  and  C_11
REMARK    6  A    between atoms: C_10  and  C_15
REMARK    7  A    between atoms: C_16  and  C_20
REMARK    8  A    between atoms: C_27  and  C_28
REMARK                            x       y       z     vdW  Elec       q    Type
REMARK                         _______ _______ _______ _____ _____    ______ ____
ROOT
ATOM     10  C   UNL     1      -4.186   2.638  24.269  0.00  0.00    +0.043 C 
ATOM     11  C   UNL     1      -3.191   3.311  25.254  0.00  0.00    +0.115 C 
ATOM     12  C   UNL     1      -4.033   4.256  26.121  0.00  0.00    +0.162 C 
ATOM     13  C   UNL     1      -5.580   3.126  24.698  0.00  0.00    +0.043 C 
ATOM     14  C   UNL     1      -5.295   4.495  25.298  0.00  0.00    +0.145 C 
ENDROOT
BRANCH  10  15
ATOM     15  C   UNL     1      -4.075   1.130  24.218  0.00  0.00    -0.040 A 
ATOM     16  C   UNL     1      -3.467   0.491  23.137  0.00  0.00    -0.047 A 
ATOM     17  C   UNL     1      -4.593   0.377  25.273  0.00  0.00    +0.004 A 
ATOM     19  C   UNL     1      -3.377  -0.901  23.111  0.00  0.00    +0.003 A 
ATOM     20  C   UNL     1      -2.906   1.276  21.997  0.00  0.00    +0.044 C 
ATOM     21  C   UNL     1      -4.502  -1.014  25.245  0.00  0.00    +0.000 A 
ATOM     22  C   UNL     1      -3.894  -1.653  24.165  0.00  0.00    +0.000 A 
ENDBRANCH  10  15
BRANCH  12   5
ATOM      5  O   UNL     1      -4.345   3.576  27.337  0.00  0.00    -0.388 OA
ATOM     30  H   UNL     1      -4.361   4.241  28.046  0.00  0.00    +0.210 HD
ENDBRANCH  12   5
BRANCH  14   6
ATOM      6  O   UNL     1      -6.379   4.954  26.080  0.00  0.00    -0.389 OA
ATOM     31  H   UNL     1      -7.136   4.370  25.903  0.00  0.00    +0.210 HD
ENDBRANCH  14   6
BRANCH  11   9
ATOM      9  N   UNL     1      -2.198   4.106  24.481  0.00  0.00    -0.184 NA
ATOM     29  H   UNL     1      -2.547   4.691  23.712  0.00  0.00    +0.148 HD
BRANCH   9   1
ATOM      1  S   UNL     1      -0.540   3.777  24.643  0.00  0.00    +0.059 S 
ATOM      7  O   UNL     1      -0.062   4.313  25.902  0.00  0.00    -0.153 OA
ATOM      8  O   UNL     1       0.128   4.120  23.402  0.00  0.00    -0.153 OA
BRANCH   1  18
ATOM     18  C   UNL     1      -0.530   2.012  24.764  0.00  0.00    +0.105 A 
ATOM     23  C   UNL     1      -1.051   1.389  25.897  0.00  0.00    +0.029 A 
ATOM     24  C   UNL     1       0.002   1.245  23.727  0.00  0.00    +0.029 A 
ATOM     25  C   UNL     1      -1.043  -0.003  25.994  0.00  0.00    +0.014 A 
ATOM     26  C   UNL     1       0.011  -0.147  23.824  0.00  0.00    +0.014 A 
ATOM     27  C   UNL     1      -0.511  -0.770  24.957  0.00  0.00    +0.055 A 
BRANCH  27  28
ATOM      2  F   UNL     1      -0.580  -2.870  23.843  0.00  0.00    -0.166 F 
ATOM      3  F   UNL     1       0.621  -2.760  25.652  0.00  0.00    -0.166 F 
ATOM      4  F   UNL     1      -1.544  -2.761  25.789  0.00  0.00    -0.166 F 
ATOM     28  C   UNL     1      -0.503  -2.258  25.060  0.00  0.00    +0.417 C 
ENDBRANCH  27  28
ENDBRANCH   1  18
ENDBRANCH   9   1
ENDBRANCH  11   9
TORSDOF 7
ENDMDL
MODEL 5
REMARK VINA RESULT:      -0.9      3.518      5.843
REMARK  Name = 71694021
REMARK  8 active torsions:
REMARK  status: ('A' for Active; 'I' for Inactive)
REMARK    1  A    between atoms: S_1  and  N_9
REMARK    2  A    between atoms: S_1  and  C_18
REMARK    3  A    between atoms: O_5  and  C_12
REMARK    4  A    between atoms: O_6  and  C_14
REMARK    5  A    between atoms: N_9  and  C_11
REMARK    6  A    between atoms: C_10  and  C_15
REMARK    7  A    between atoms: C_16  and  C_20
REMARK    8  A    between atoms: C_27  and  C_28
REMARK                            x       y       z     vdW  Elec       q    Type
REMARK                         _______ _______ _______ _____ _____    ______ ____
ROOT
ATOM     10  C   UNL     1      -2.173   3.238  25.354  0.00  0.00    +0.043 C 
ATOM     11  C   UNL     1      -3.631   3.433  24.854  0.00  0.00    +0.115 C 
ATOM     12  C   UNL     1      -3.776   4.932  24.558  0.00  0.00    +0.162 C 
ATOM     13  C   UNL     1      -1.500   4.613  25.201  0.00  0.00    +0.043 C 
ATOM     14  C   UNL     1      -2.660   5.584  25.368  0.00  0.00    +0.145 C 
ENDROOT
BRANCH  10  15
ATOM     15  C   UNL     1      -1.424   2.130  24.649  0.00  0.00    -0.040 A 
ATOM     16  C   UNL     1      -0.328   1.509  25.249  0.00  0.00    -0.047 A 
ATOM     17  C   UNL     1      -1.843   1.730  23.380  0.00  0.00    +0.004 A 
ATOM     19  C   UNL     1       0.348   0.488  24.581  0.00  0.00    +0.003 A 
ATOM     20  C   UNL     1       0.139   1.920  26.607  0.00  0.00    +0.044 C 
ATOM     21  C   UNL     1      -1.166   0.709  22.712  0.00  0.00    +0.000 A 
ATOM     22  C   UNL     1      -0.071   0.089  23.312  0.00  0.00    +0.000 A 
ENDBRANCH  10  15
BRANCH  12   5
ATOM      5  O   UNL     1      -3.564   5.127  23.160  0.00  0.00    -0.388 OA
ATOM     30  H   UNL     1      -3.979   4.380  22.696  0.00  0.00    +0.210 HD
ENDBRANCH  12   5
BRANCH  14   6
ATOM      6  O   UNL     1      -2.327   6.875  24.899  0.00  0.00    -0.389 OA
ATOM     31  H   UNL     1      -1.359   6.960  24.939  0.00  0.00    +0.210 HD
ENDBRANCH  14   6
BRANCH  11   9
ATOM      9  N   UNL     1      -4.576   3.051  25.937  0.00  0.00    -0.184 NA
ATOM     29  H   UNL     1      -4.381   3.393  26.886  0.00  0.00    +0.148 HD
BRANCH   9   1
ATOM      1  S   UNL     1      -5.714   1.819  25.672  0.00  0.00    +0.059 S 
ATOM      7  O   UNL     1      -6.502   2.134  24.496  0.00  0.00    -0.153 OA
ATOM      8  O   UNL     1      -6.369   1.510  26.928  0.00  0.00    -0.153 OA
BRANCH   1  18
ATOM     18  C   UNL     1      -4.675   0.443  25.279  0.00  0.00    +0.105 A 
ATOM     23  C   UNL     1      -3.738  -0.009  26.207  0.00  0.00    +0.029 A 
ATOM     24  C   UNL     1      -4.792  -0.188  24.040  0.00  0.00    +0.029 A 
ATOM     25  C   UNL     1      -2.917  -1.094  25.897  0.00  0.00    +0.014 A 
ATOM     26  C   UNL     1      -3.971  -1.272  23.730  0.00  0.00    +0.014 A 
ATOM     27  C   UNL     1      -3.034  -1.725  24.658  0.00  0.00    +0.055 A 
BRANCH  27  28
ATOM      2  F   UNL     1      -2.867  -4.005  24.006  0.00  0.00    -0.166 F 
ATOM      3  F   UNL     1      -1.328  -2.660  23.267  0.00  0.00    -0.166 F 
ATOM      4  F   UNL     1      -1.333  -3.256  25.352  0.00  0.00    -0.166 F 
ATOM     28  C   UNL     1      -2.157  -2.886  24.327  0.00  0.00    +0.417 C 
ENDBRANCH  27  28
ENDBRANCH   1  18
ENDBRANCH   9   1
ENDBRANCH  11   9
TORSDOF 7
ENDMDL
MODEL 6
REMARK VINA RESULT:      -0.8      4.055      5.182
REMARK  Name = 71694021
REMARK  8 active torsions:
REMARK  status: ('A' for Active; 'I' for Inactive)
REMARK    1  A    between atoms: S_1  and  N_9
REMARK    2  A    between atoms: S_1  and  C_18
REMARK    3  A    between atoms: O_5  and  C_12
REMARK    4  A    between atoms: O_6  and  C_14
REMARK    5  A    between atoms: N_9  and  C_11
REMARK    6  A    between atoms: C_10  and  C_15
REMARK    7  A    between atoms: C_16  and  C_20
REMARK    8  A    between atoms: C_27  and  C_28
REMARK                            x       y       z     vdW  Elec       q    Type
REMARK                         _______ _______ _______ _____ _____    ______ ____
ROOT
ATOM     10  C   UNL     1      -0.272  -0.064  24.703  0.00  0.00    +0.043 C 
ATOM     11  C   UNL     1       0.114   1.139  23.800  0.00  0.00    +0.115 C 
ATOM     12  C   UNL     1       1.358   0.695  23.017  0.00  0.00    +0.162 C 
ATOM     13  C   UNL     1       0.689  -1.198  24.307  0.00  0.00    +0.043 C 
ATOM     14  C   UNL     1       1.931  -0.451  23.846  0.00  0.00    +0.145 C 
ENDROOT
BRANCH  10  15
ATOM     15  C   UNL     1      -1.728  -0.462  24.610  0.00  0.00    -0.040 A 
ATOM     16  C   UNL     1      -2.432  -0.882  25.738  0.00  0.00    -0.047 A 
ATOM     17  C   UNL     1      -2.368  -0.403  23.371  0.00  0.00    +0.004 A 
ATOM     19  C   UNL     1      -3.775  -1.244  25.629  0.00  0.00    +0.003 A 
ATOM     20  C   UNL     1      -1.769  -0.952  27.075  0.00  0.00    +0.044 C 
ATOM     21  C   UNL     1      -3.710  -0.766  23.262  0.00  0.00    +0.000 A 
ATOM     22  C   UNL     1      -4.414  -1.186  24.391  0.00  0.00    +0.000 A 
ENDBRANCH  10  15
BRANCH  12   5
ATOM      5  O   UNL     1       0.930   0.228  21.739  0.00  0.00    -0.388 OA
ATOM     30  H   UNL     1       1.714  -0.117  21.278  0.00  0.00    +0.210 HD
ENDBRANCH  12   5
BRANCH  14   6
ATOM      6  O   UNL     1       2.792  -1.287  23.099  0.00  0.00    -0.389 OA
ATOM     31  H   UNL     1       3.339  -0.714  22.534  0.00  0.00    +0.210 HD
ENDBRANCH  14   6
BRANCH  11   9
ATOM      9  N   UNL     1       0.461   2.304  24.657  0.00  0.00    -0.184 NA
ATOM     29  H   UNL     1       0.996   2.125  25.515  0.00  0.00    +0.148 HD
BRANCH   9   1
ATOM      1  S   UNL     1      -0.302   3.800  24.401  0.00  0.00    +0.059 S 
ATOM      7  O   UNL     1      -0.187   4.168  23.004  0.00  0.00    -0.153 OA
ATOM      8  O   UNL     1       0.121   4.723  25.437  0.00  0.00    -0.153 OA
BRANCH   1  18
ATOM     18  C   UNL     1      -1.995   3.404  24.723  0.00  0.00    +0.105 A 
ATOM     23  C   UNL     1      -2.813   2.953  23.688  0.00  0.00    +0.029 A 
ATOM     24  C   UNL     1      -2.512   3.544  26.011  0.00  0.00    +0.029 A 
ATOM     25  C   UNL     1      -4.150   2.641  23.940  0.00  0.00    +0.014 A 
ATOM     26  C   UNL     1      -3.848   3.233  26.263  0.00  0.00    +0.014 A 
ATOM     27  C   UNL     1      -4.667   2.782  25.228  0.00  0.00    +0.055 A 
BRANCH  27  28
ATOM      2  F   UNL     1      -6.874   3.557  25.653  0.00  0.00    -0.166 F 
ATOM      3  F   UNL     1      -6.685   1.723  24.502  0.00  0.00    -0.166 F 
ATOM      4  F   UNL     1      -6.278   1.709  26.632  0.00  0.00    -0.166 F 
ATOM     28  C   UNL     1      -6.095   2.448  25.498  0.00  0.00    +0.417 C 
ENDBRANCH  27  28
ENDBRANCH   1  18
ENDBRANCH   9   1
ENDBRANCH  11   9
TORSDOF 7
ENDMDL
MODEL 7
REMARK VINA RESULT:      -0.5      3.629      4.992
REMARK  Name = 71694021
REMARK  8 active torsions:
REMARK  status: ('A' for Active; 'I' for Inactive)
REMARK    1  A    between atoms: S_1  and  N_9
REMARK    2  A    between atoms: S_1  and  C_18
REMARK    3  A    between atoms: O_5  and  C_12
REMARK    4  A    between atoms: O_6  and  C_14
REMARK    5  A    between atoms: N_9  and  C_11
REMARK    6  A    between atoms: C_10  and  C_15
REMARK    7  A    between atoms: C_16  and  C_20
REMARK    8  A    between atoms: C_27  and  C_28
REMARK                            x       y       z     vdW  Elec       q    Type
REMARK                         _______ _______ _______ _____ _____    ______ ____
ROOT
ATOM     10  C   UNL     1      -0.330   0.640  23.193  0.00  0.00    +0.043 C 
ATOM     11  C   UNL     1       0.101  -0.726  23.793  0.00  0.00    +0.115 C 
ATOM     12  C   UNL     1       1.492  -1.018  23.214  0.00  0.00    +0.162 C 
ATOM     13  C   UNL     1       0.887   1.140  22.397  0.00  0.00    +0.043 C 
ATOM     14  C   UNL     1       1.567  -0.149  21.962  0.00  0.00    +0.145 C 
ENDROOT
BRANCH  10  15
ATOM     15  C   UNL     1      -0.816   1.637  24.222  0.00  0.00    -0.040 A 
ATOM     16  C   UNL     1      -1.919   2.452  23.967  0.00  0.00    -0.047 A 
ATOM     17  C   UNL     1      -0.144   1.735  25.441  0.00  0.00    +0.004 A 
ATOM     19  C   UNL     1      -2.350   3.365  24.930  0.00  0.00    +0.003 A 
ATOM     20  C   UNL     1      -2.655   2.366  22.670  0.00  0.00    +0.044 C 
ATOM     21  C   UNL     1      -0.574   2.648  26.403  0.00  0.00    +0.000 A 
ATOM     22  C   UNL     1      -1.677   3.463  26.148  0.00  0.00    +0.000 A 
ENDBRANCH  10  15
BRANCH  12   5
ATOM      5  O   UNL     1       2.464  -0.604  24.174  0.00  0.00    -0.388 OA
ATOM     30  H   UNL     1       3.334  -0.896  23.852  0.00  0.00    +0.210 HD
ENDBRANCH  12   5
BRANCH  14   6
ATOM      6  O   UNL     1       2.895   0.082  21.537  0.00  0.00    -0.389 OA
ATOM     31  H   UNL     1       3.002   1.042  21.424  0.00  0.00    +0.210 HD
ENDBRANCH  14   6
BRANCH  11   9
ATOM      9  N   UNL     1      -0.849  -1.780  23.345  0.00  0.00    -0.184 NA
ATOM     29  H   UNL     1      -1.006  -1.886  22.336  0.00  0.00    +0.148 HD
BRANCH   9   1
ATOM      1  S   UNL     1      -1.884  -2.519  24.471  0.00  0.00    +0.059 S 
ATOM      7  O   UNL     1      -1.169  -2.740  25.712  0.00  0.00    -0.153 OA
ATOM      8  O   UNL     1      -2.574  -3.616  23.821  0.00  0.00    -0.153 OA
BRANCH   1  18
ATOM     18  C   UNL     1      -3.083  -1.249  24.751  0.00  0.00    +0.105 A 
ATOM     23  C   UNL     1      -3.978  -0.901  23.741  0.00  0.00    +0.029 A 
ATOM     24  C   UNL     1      -3.131  -0.595  25.983  0.00  0.00    +0.029 A 
ATOM     25  C   UNL     1      -4.923   0.101  23.961  0.00  0.00    +0.014 A 
ATOM     26  C   UNL     1      -4.076   0.407  26.203  0.00  0.00    +0.014 A 
ATOM     27  C   UNL     1      -4.972   0.755  25.193  0.00  0.00    +0.055 A 
BRANCH  27  28
ATOM      2  F   UNL     1      -5.473   3.078  25.248  0.00  0.00    -0.166 F 
ATOM      3  F   UNL     1      -7.065   1.748  24.600  0.00  0.00    -0.166 F 
ATOM      4  F   UNL     1      -6.500   1.820  26.692  0.00  0.00    -0.166 F 
ATOM     28  C   UNL     1      -5.983   1.826  25.428  0.00  0.00    +0.417 C 
ENDBRANCH  27  28
ENDBRANCH   1  18
ENDBRANCH   9   1
ENDBRANCH  11   9
TORSDOF 7
ENDMDL
MODEL 8
REMARK VINA RESULT:      -0.1      4.342      5.006
REMARK  Name = 71694021
REMARK  8 active torsions:
REMARK  status: ('A' for Active; 'I' for Inactive)
REMARK    1  A    between atoms: S_1  and  N_9
REMARK    2  A    between atoms: S_1  and  C_18
REMARK    3  A    between atoms: O_5  and  C_12
REMARK    4  A    between atoms: O_6  and  C_14
REMARK    5  A    between atoms: N_9  and  C_11
REMARK    6  A    between atoms: C_10  and  C_15
REMARK    7  A    between atoms: C_16  and  C_20
REMARK    8  A    between atoms: C_27  and  C_28
REMARK                            x       y       z     vdW  Elec       q    Type
REMARK                         _______ _______ _______ _____ _____    ______ ____
ROOT
ATOM     10  C   UNL     1       1.300  -0.021  23.092  0.00  0.00    +0.043 C 
ATOM     11  C   UNL     1       0.618   0.798  24.222  0.00  0.00    +0.115 C 
ATOM     12  C   UNL     1      -0.594  -0.031  24.668  0.00  0.00    +0.162 C 
ATOM     13  C   UNL     1       0.527  -1.349  23.025  0.00  0.00    +0.043 C 
ATOM     14  C   UNL     1      -0.868  -0.958  23.487  0.00  0.00    +0.145 C 
ENDROOT
BRANCH  10  15
ATOM     15  C   UNL     1       2.789  -0.210  23.283  0.00  0.00    -0.040 A 
ATOM     16  C   UNL     1       3.686   0.820  23.000  0.00  0.00    -0.047 A 
ATOM     17  C   UNL     1       3.261  -1.437  23.750  0.00  0.00    +0.004 A 
ATOM     19  C   UNL     1       5.055   0.623  23.183  0.00  0.00    +0.003 A 
ATOM     20  C   UNL     1       3.204   2.142  22.499  0.00  0.00    +0.044 C 
ATOM     21  C   UNL     1       4.630  -1.633  23.933  0.00  0.00    +0.000 A 
ATOM     22  C   UNL     1       5.527  -0.604  23.650  0.00  0.00    +0.000 A 
ENDBRANCH  10  15
BRANCH  12   5
ATOM      5  O   UNL     1      -0.214  -0.782  25.820  0.00  0.00    -0.388 OA
ATOM     30  H   UNL     1      -0.272  -0.187  26.587  0.00  0.00    +0.210 HD
ENDBRANCH  12   5
BRANCH  14   6
ATOM      6  O   UNL     1      -1.631  -2.092  23.849  0.00  0.00    -0.389 OA
ATOM     31  H   UNL     1      -1.025  -2.851  23.890  0.00  0.00    +0.210 HD
ENDBRANCH  14   6
BRANCH  11   9
ATOM      9  N   UNL     1       0.149   2.098  23.671  0.00  0.00    -0.184 NA
ATOM     29  H   UNL     1       0.256   2.258  22.662  0.00  0.00    +0.148 HD
BRANCH   9   1
ATOM      1  S   UNL     1      -0.213   3.382  24.723  0.00  0.00    +0.059 S 
ATOM      7  O   UNL     1      -0.023   4.641  24.031  0.00  0.00    -0.153 OA
ATOM      8  O   UNL     1       0.441   3.142  25.995  0.00  0.00    -0.153 OA
BRANCH   1  18
ATOM     18  C   UNL     1      -1.948   3.160  24.984  0.00  0.00    +0.105 A 
ATOM     23  C   UNL     1      -2.657   2.242  24.209  0.00  0.00    +0.029 A 
ATOM     24  C   UNL     1      -2.607   3.904  25.963  0.00  0.00    +0.029 A 
ATOM     25  C   UNL     1      -4.026   2.067  24.414  0.00  0.00    +0.014 A 
ATOM     26  C   UNL     1      -3.976   3.730  26.167  0.00  0.00    +0.014 A 
ATOM     27  C   UNL     1      -4.685   2.812  25.393  0.00  0.00    +0.055 A 
BRANCH  27  28
ATOM      2  F   UNL     1      -6.826   3.806  25.675  0.00  0.00    -0.166 F 
ATOM      3  F   UNL     1      -6.761   1.903  24.627  0.00  0.00    -0.166 F 
ATOM      4  F   UNL     1      -6.447   1.968  26.772  0.00  0.00    -0.166 F 
ATOM     28  C   UNL     1      -6.148   2.624  25.612  0.00  0.00    +0.417 C 
ENDBRANCH  27  28
ENDBRANCH   1  18
ENDBRANCH   9   1
ENDBRANCH  11   9
TORSDOF 7
ENDMDL
MODEL 9
REMARK VINA RESULT:      -0.0      4.403      6.752
REMARK  Name = 71694021
REMARK  8 active torsions:
REMARK  status: ('A' for Active; 'I' for Inactive)
REMARK    1  A    between atoms: S_1  and  N_9
REMARK    2  A    between atoms: S_1  and  C_18
REMARK    3  A    between atoms: O_5  and  C_12
REMARK    4  A    between atoms: O_6  and  C_14
REMARK    5  A    between atoms: N_9  and  C_11
REMARK    6  A    between atoms: C_10  and  C_15
REMARK    7  A    between atoms: C_16  and  C_20
REMARK    8  A    between atoms: C_27  and  C_28
REMARK                            x       y       z     vdW  Elec       q    Type
REMARK                         _______ _______ _______ _____ _____    ______ ____
ROOT
ATOM     10  C   UNL     1      -3.015   3.604  23.945  0.00  0.00    +0.043 C 
ATOM     11  C   UNL     1      -1.737   3.721  24.820  0.00  0.00    +0.115 C 
ATOM     12  C   UNL     1      -1.450   5.223  24.946  0.00  0.00    +0.162 C 
ATOM     13  C   UNL     1      -3.485   5.050  23.712  0.00  0.00    +0.043 C 
ATOM     14  C   UNL     1      -2.190   5.845  23.766  0.00  0.00    +0.145 C 
ENDROOT
BRANCH  10  15
ATOM     15  C   UNL     1      -4.088   2.719  24.539  0.00  0.00    -0.040 A 
ATOM     16  C   UNL     1      -4.337   1.447  24.023  0.00  0.00    -0.047 A 
ATOM     17  C   UNL     1      -4.836   3.193  25.618  0.00  0.00    +0.004 A 
ATOM     19  C   UNL     1      -5.332   0.648  24.587  0.00  0.00    +0.003 A 
ATOM     20  C   UNL     1      -3.551   0.919  22.869  0.00  0.00    +0.044 C 
ATOM     21  C   UNL     1      -5.831   2.393  26.181  0.00  0.00    +0.000 A 
ATOM     22  C   UNL     1      -6.079   1.121  25.665  0.00  0.00    +0.000 A 
ENDBRANCH  10  15
BRANCH  12   5
ATOM      5  O   UNL     1      -2.003   5.675  26.182  0.00  0.00    -0.388 OA
ATOM     30  H   UNL     1      -1.605   5.141  26.891  0.00  0.00    +0.210 HD
ENDBRANCH  12   5
BRANCH  14   6
ATOM      6  O   UNL     1      -2.436   7.226  23.942  0.00  0.00    -0.389 OA
ATOM     31  H   UNL     1      -3.385   7.332  24.131  0.00  0.00    +0.210 HD
ENDBRANCH  14   6
BRANCH  11   9
ATOM      9  N   UNL     1      -0.602   3.060  24.122  0.00  0.00    -0.184 NA
ATOM     29  H   UNL     1      -0.544   3.159  23.101  0.00  0.00    +0.148 HD
BRANCH   9   1
ATOM      1  S   UNL     1       0.340   1.907  24.940  0.00  0.00    +0.059 S 
ATOM      7  O   UNL     1       0.479   2.295  26.329  0.00  0.00    -0.153 OA
ATOM      8  O   UNL     1       1.514   1.612  24.143  0.00  0.00    -0.153 OA
BRANCH   1  18
ATOM     18  C   UNL     1      -0.700   0.478  24.876  0.00  0.00    +0.105 A 
ATOM     23  C   UNL     1      -0.542  -0.453  23.849  0.00  0.00    +0.029 A 
ATOM     24  C   UNL     1      -1.678   0.282  25.851  0.00  0.00    +0.029 A 
ATOM     25  C   UNL     1      -1.362  -1.581  23.798  0.00  0.00    +0.014 A 
ATOM     26  C   UNL     1      -2.499  -0.845  25.800  0.00  0.00    +0.014 A 
ATOM     27  C   UNL     1      -2.341  -1.776  24.773  0.00  0.00    +0.055 A 
BRANCH  27  28
ATOM      2  F   UNL     1      -2.690  -3.979  23.951  0.00  0.00    -0.166 F 
ATOM      3  F   UNL     1      -3.451  -3.544  25.940  0.00  0.00    -0.166 F 
ATOM      4  F   UNL     1      -4.455  -2.734  24.197  0.00  0.00    -0.166 F 
ATOM     28  C   UNL     1      -3.217  -2.982  24.718  0.00  0.00    +0.417 C 
ENDBRANCH  27  28
ENDBRANCH   1  18
ENDBRANCH   9   1
ENDBRANCH  11   9
TORSDOF 7
ENDMDL
MODEL 10
REMARK VINA RESULT:       0.7      4.409      6.844
REMARK  Name = 71694021
REMARK  8 active torsions:
REMARK  status: ('A' for Active; 'I' for Inactive)
REMARK    1  A    between atoms: S_1  and  N_9
REMARK    2  A    between atoms: S_1  and  C_18
REMARK    3  A    between atoms: O_5  and  C_12
REMARK    4  A    between atoms: O_6  and  C_14
REMARK    5  A    between atoms: N_9  and  C_11
REMARK    6  A    between atoms: C_10  and  C_15
REMARK    7  A    between atoms: C_16  and  C_20
REMARK    8  A    between atoms: C_27  and  C_28
REMARK                            x       y       z     vdW  Elec       q    Type
REMARK                         _______ _______ _______ _____ _____    ______ ____
ROOT
ATOM     10  C   UNL     1      -2.933   3.445  23.804  0.00  0.00    +0.043 C 
ATOM     11  C   UNL     1      -1.707   3.546  24.754  0.00  0.00    +0.115 C 
ATOM     12  C   UNL     1      -1.502   5.044  25.016  0.00  0.00    +0.162 C 
ATOM     13  C   UNL     1      -3.463   4.882  23.665  0.00  0.00    +0.043 C 
ATOM     14  C   UNL     1      -2.213   5.729  23.852  0.00  0.00    +0.145 C 
ENDROOT
BRANCH  10  15
ATOM     15  C   UNL     1      -3.989   2.465  24.267  0.00  0.00    -0.040 A 
ATOM     16  C   UNL     1      -4.985   2.854  25.162  0.00  0.00    -0.047 A 
ATOM     17  C   UNL     1      -3.956   1.156  23.784  0.00  0.00    +0.004 A 
ATOM     19  C   UNL     1      -5.949   1.934  25.575  0.00  0.00    +0.003 A 
ATOM     20  C   UNL     1      -5.041   4.249  25.692  0.00  0.00    +0.044 C 
ATOM     21  C   UNL     1      -4.920   0.237  24.198  0.00  0.00    +0.000 A 
ATOM     22  C   UNL     1      -5.917   0.625  25.093  0.00  0.00    +0.000 A 
ENDBRANCH  10  15
BRANCH  12   5
ATOM      5  O   UNL     1      -2.137   5.365  26.253  0.00  0.00    -0.388 OA
ATOM     30  H   UNL     1      -3.065   5.082  26.186  0.00  0.00    +0.210 HD
ENDBRANCH  12   5
BRANCH  14   6
ATOM      6  O   UNL     1      -2.537   7.077  24.127  0.00  0.00    -0.389 OA
ATOM     31  H   UNL     1      -3.493   7.183  23.986  0.00  0.00    +0.210 HD
ENDBRANCH  14   6
BRANCH  11   9
ATOM      9  N   UNL     1      -0.507   2.999  24.065  0.00  0.00    -0.184 NA
ATOM     29  H   UNL     1      -0.404   3.185  23.060  0.00  0.00    +0.148 HD
BRANCH   9   1
ATOM      1  S   UNL     1       0.449   1.825  24.836  0.00  0.00    +0.059 S 
ATOM      7  O   UNL     1       0.642   2.195  26.224  0.00  0.00    -0.153 OA
ATOM      8  O   UNL     1       1.591   1.527  23.994  0.00  0.00    -0.153 OA
BRANCH   1  18
ATOM     18  C   UNL     1      -0.609   0.409  24.792  0.00  0.00    +0.105 A 
ATOM     23  C   UNL     1      -1.459   0.141  25.864  0.00  0.00    +0.029 A 
ATOM     24  C   UNL     1      -0.591  -0.442  23.686  0.00  0.00    +0.029 A 
ATOM     25  C   UNL     1      -2.294  -0.977  25.831  0.00  0.00    +0.014 A 
ATOM     26  C   UNL     1      -1.424  -1.560  23.653  0.00  0.00    +0.014 A 
ATOM     27  C   UNL     1      -2.275  -1.827  24.724  0.00  0.00    +0.055 A 
BRANCH  27  28
ATOM      2  F   UNL     1      -3.393  -3.546  25.928  0.00  0.00    -0.166 F 
ATOM      3  F   UNL     1      -4.404  -2.767  24.168  0.00  0.00    -0.166 F 
ATOM      4  F   UNL     1      -2.671  -4.052  23.941  0.00  0.00    -0.166 F 
ATOM     28  C   UNL     1      -3.167  -3.022  24.689  0.00  0.00    +0.417 C 
ENDBRANCH  27  28
ENDBRANCH   1  18
ENDBRANCH   9   1
ENDBRANCH  11   9
TORSDOF 7
ENDMDL
