MODEL 1
REMARK VINA RESULT:      11.5      0.000      0.000
REMARK  Name = 7143845
REMARK  7 active torsions:
REMARK  status: ('A' for Active; 'I' for Inactive)
REMARK    1  A    between atoms: S_1  and  N_7
REMARK    2  A    between atoms: S_1  and  C_21
REMARK    3  A    between atoms: S_2  and  C_32
REMARK    4  A    between atoms: S_2  and  C_35
REMARK    5  A    between atoms: N_9  and  C_29
REMARK    6  A    between atoms: C_19  and  C_22
REMARK    7  A    between atoms: C_33  and  C_34
REMARK                            x       y       z     vdW  Elec       q    Type
REMARK                         _______ _______ _______ _____ _____    ______ ____
ROOT
ATOM      5  O   UNL     1       0.097   2.588  25.781  0.00  0.00    -0.267 OA
ATOM      7  N   UNL     1      -4.863   2.850  25.352  0.00  0.00    -0.176 NA
ATOM      8  N   UNL     1      -1.815   3.380  24.706  0.00  0.00    -0.311 N 
ATOM     10  C   UNL     1      -3.523   4.893  25.867  0.00  0.00    +0.025 C 
ATOM     11  C   UNL     1      -3.876   4.225  23.530  0.00  0.00    +0.052 C 
ATOM     12  C   UNL     1      -3.792   5.428  24.467  0.00  0.00    +0.017 C 
ATOM     13  C   UNL     1      -4.664   3.966  26.319  0.00  0.00    +0.114 C 
ATOM     14  C   UNL     1      -5.054   3.328  23.950  0.00  0.00    +0.119 C 
ATOM     15  C   UNL     1      -2.159   4.193  25.881  0.00  0.00    +0.130 C 
ATOM     16  C   UNL     1      -2.582   3.435  23.540  0.00  0.00    +0.026 A 
ATOM     17  C   UNL     1      -2.183   2.774  22.440  0.00  0.00    +0.022 A 
ATOM     18  C   UNL     1      -0.623   2.632  24.782  0.00  0.00    +0.259 A 
ATOM     19  C   UNL     1      -0.222   1.872  23.545  0.00  0.00    +0.047 A 
ATOM     20  C   UNL     1      -0.988   1.978  22.451  0.00  0.00    +0.015 A 
ENDROOT
BRANCH  19  22
ATOM     22  C   UNL     1       0.980   1.022  23.529  0.00  0.00    -0.013 A 
ATOM     27  C   UNL     1       0.884  -0.330  23.861  0.00  0.00    +0.010 A 
ATOM     28  C   UNL     1       2.217   1.567  23.185  0.00  0.00    +0.010 A 
ATOM     30  C   UNL     1       2.022  -1.136  23.847  0.00  0.00    +0.015 A 
ATOM     31  C   UNL     1       3.356   0.761  23.171  0.00  0.00    +0.015 A 
ATOM     32  C   UNL     1       3.258  -0.590  23.501  0.00  0.00    +0.008 A 
BRANCH  32   2
ATOM      2  S   UNL     1       4.714  -1.618  23.485  0.00  0.00    -0.129 S 
ATOM     35  C   UNL     1       6.040  -0.382  23.570  0.00  0.00    +0.090 C 
ENDBRANCH  32   2
ENDBRANCH  19  22
BRANCH   7   1
ATOM      1  S   UNL     1      -5.924   1.608  25.861  0.00  0.00    +0.061 S 
ATOM      3  O   UNL     1      -7.115   1.637  25.041  0.00  0.00    -0.153 OA
ATOM      4  O   UNL     1      -6.013   1.628  27.306  0.00  0.00    -0.153 OA
BRANCH   1  21
ATOM     21  C   UNL     1      -4.983   0.188  25.396  0.00  0.00    +0.106 A 
ATOM     23  C   UNL     1      -5.176  -0.372  24.143  0.00  0.00    +0.030 A 
ATOM     24  C   UNL     1      -4.067  -0.341  26.290  0.00  0.00    +0.030 A 
ATOM     25  C   UNL     1      -4.432  -1.493  23.775  0.00  0.00    +0.025 A 
ATOM     26  C   UNL     1      -3.324  -1.462  25.922  0.00  0.00    +0.025 A 
ATOM     29  C   UNL     1      -3.506  -2.038  24.664  0.00  0.00    +0.033 A 
BRANCH  29   9
ATOM      6  O   UNL     1      -0.876  -2.246  23.215  0.00  0.00    -0.276 OA
ATOM      9  N   UNL     1      -2.762  -3.158  24.296  0.00  0.00    -0.286 N 
ATOM     33  C   UNL     1      -1.536  -3.199  23.616  0.00  0.00    +0.214 C 
ATOM     34  C   UNL     1      -1.059  -4.614  23.408  0.00  0.00    +0.109 C 
ATOM     36  H   UNL     1      -3.168  -4.055  24.556  0.00  0.00    +0.155 HD
ENDBRANCH  29   9
ENDBRANCH   1  21
ENDBRANCH   7   1
TORSDOF 5
ENDMDL
