MODEL 1
REMARK VINA RESULT:      -5.6      0.000      0.000
REMARK  Name = 75367109
REMARK  6 active torsions:
REMARK  status: ('A' for Active; 'I' for Inactive)
REMARK    1  A    between atoms: O_2  and  C_9
REMARK    2  A    between atoms: N_4  and  C_7
REMARK    3  A    between atoms: N_4  and  C_8
REMARK    4  A    between atoms: N_5  and  C_16
REMARK    5  A    between atoms: C_12  and  C_16
REMARK    6  A    between atoms: C_17  and  C_18
REMARK                            x       y       z     vdW  Elec       q    Type
REMARK                         _______ _______ _______ _____ _____    ______ ____
ROOT
ATOM      1  O   UNL     1      -1.370  -2.035  23.511  0.00  0.00    -0.371 OA
ATOM      8  C   UNL     1       0.098  -0.553  24.645  0.00  0.00    +0.111 C 
ATOM      9  C   UNL     1      -1.181  -0.694  25.450  0.00  0.00    +0.164 C 
ATOM     12  C   UNL     1      -1.728  -2.005  24.902  0.00  0.00    +0.165 C 
ATOM     15  C   UNL     1      -0.348  -1.051  23.280  0.00  0.00    +0.181 C 
ENDROOT
BRANCH   9   2
ATOM      2  O   UNL     1      -0.946  -0.761  26.842  0.00  0.00    -0.388 OA
ATOM     24  H   UNL     1      -1.141   0.111  27.227  0.00  0.00    +0.210 HD
ENDBRANCH   9   2
BRANCH   8   4
ATOM      4  N   UNL     1       0.620   0.803  24.611  0.00  0.00    -0.306 NA
ATOM     23  H   UNL     1       1.076   0.982  23.717  0.00  0.00    +0.123 HD
BRANCH   4   7
ATOM      7  C   UNL     1      -0.432   1.775  24.841  0.00  0.00    +0.054 C 
ATOM     10  C   UNL     1      -0.364   2.403  26.228  0.00  0.00    +0.019 C 
ATOM     11  C   UNL     1      -0.321   2.991  23.928  0.00  0.00    +0.019 C 
ATOM     13  C   UNL     1      -1.221   3.659  26.098  0.00  0.00    +0.002 C 
ATOM     14  C   UNL     1      -1.192   4.038  24.615  0.00  0.00    +0.002 C 
ENDBRANCH   4   7
ENDBRANCH   8   4
BRANCH  12  16
ATOM     16  C   UNL     1      -3.234  -2.134  25.048  0.00  0.00    +0.138 C 
BRANCH  16   5
ATOM      3  O   UNL     1      -3.764  -0.015  23.186  0.00  0.00    -0.270 OA
ATOM      5  N   UNL     1      -3.840  -0.867  25.342  0.00  0.00    -0.309 N 
ATOM     17  C   UNL     1      -4.060   0.106  24.372  0.00  0.00    +0.244 C 
ATOM     25  H   UNL     1      -4.047  -0.677  26.317  0.00  0.00    +0.149 HD
BRANCH  17  18
ATOM      6  N   UNL     1      -5.825   3.762  25.730  0.00  0.00    -0.263 NA
ATOM     18  C   UNL     1      -4.674   1.374  24.842  0.00  0.00    +0.040 A 
ATOM     19  C   UNL     1      -4.216   2.594  24.354  0.00  0.00    +0.033 A 
ATOM     20  C   UNL     1      -5.706   1.348  25.773  0.00  0.00    +0.033 A 
ATOM     21  C   UNL     1      -4.819   3.748  24.826  0.00  0.00    +0.111 A 
ATOM     22  C   UNL     1      -6.242   2.558  26.182  0.00  0.00    +0.111 A 
ENDBRANCH  17  18
ENDBRANCH  16   5
ENDBRANCH  12  16
TORSDOF 6
ENDMDL
MODEL 2
REMARK VINA RESULT:      -5.3      1.952      4.695
REMARK  Name = 75367109
REMARK  6 active torsions:
REMARK  status: ('A' for Active; 'I' for Inactive)
REMARK    1  A    between atoms: O_2  and  C_9
REMARK    2  A    between atoms: N_4  and  C_7
REMARK    3  A    between atoms: N_4  and  C_8
REMARK    4  A    between atoms: N_5  and  C_16
REMARK    5  A    between atoms: C_12  and  C_16
REMARK    6  A    between atoms: C_17  and  C_18
REMARK                            x       y       z     vdW  Elec       q    Type
REMARK                         _______ _______ _______ _____ _____    ______ ____
ROOT
ATOM      1  O   UNL     1       0.353   3.432  23.526  0.00  0.00    -0.371 OA
ATOM      8  C   UNL     1      -0.966   4.117  25.378  0.00  0.00    +0.111 C 
ATOM      9  C   UNL     1      -0.683   2.631  25.495  0.00  0.00    +0.164 C 
ATOM     12  C   UNL     1       0.540   2.494  24.598  0.00  0.00    +0.165 C 
ATOM     15  C   UNL     1      -0.673   4.365  23.908  0.00  0.00    +0.181 C 
ENDROOT
BRANCH   9   2
ATOM      2  O   UNL     1      -0.411   2.230  26.823  0.00  0.00    -0.388 OA
ATOM     24  H   UNL     1      -1.246   2.234  27.321  0.00  0.00    +0.210 HD
ENDBRANCH   9   2
BRANCH   8   4
ATOM      4  N   UNL     1      -2.320   4.486  25.756  0.00  0.00    -0.306 NA
ATOM     23  H   UNL     1      -2.617   5.312  25.238  0.00  0.00    +0.123 HD
BRANCH   4   7
ATOM      7  C   UNL     1      -3.244   3.391  25.525  0.00  0.00    +0.054 C 
ATOM     10  C   UNL     1      -4.494   3.481  26.390  0.00  0.00    +0.019 C 
ATOM     11  C   UNL     1      -3.824   3.397  24.115  0.00  0.00    +0.019 C 
ATOM     13  C   UNL     1      -5.484   2.550  25.694  0.00  0.00    +0.002 C 
ATOM     14  C   UNL     1      -5.052   2.497  24.226  0.00  0.00    +0.002 C 
ENDBRANCH   4   7
ENDBRANCH   8   4
BRANCH  12  16
ATOM     16  C   UNL     1       0.715   1.096  24.033  0.00  0.00    +0.138 C 
BRANCH  16   5
ATOM      3  O   UNL     1       0.026  -1.373  25.326  0.00  0.00    -0.270 OA
ATOM      5  N   UNL     1      -0.540   0.406  23.949  0.00  0.00    -0.309 N 
ATOM     17  C   UNL     1      -0.787  -0.792  24.613  0.00  0.00    +0.244 C 
ATOM     25  H   UNL     1      -1.234   0.798  23.321  0.00  0.00    +0.149 HD
BRANCH  17  18
ATOM      6  N   UNL     1      -4.654  -2.525  24.003  0.00  0.00    -0.263 NA
ATOM     18  C   UNL     1      -2.129  -1.393  24.403  0.00  0.00    +0.040 A 
ATOM     19  C   UNL     1      -2.290  -2.774  24.447  0.00  0.00    +0.033 A 
ATOM     20  C   UNL     1      -3.229  -0.578  24.159  0.00  0.00    +0.033 A 
ATOM     21  C   UNL     1      -3.561  -3.286  24.243  0.00  0.00    +0.111 A 
ATOM     22  C   UNL     1      -4.458  -1.188  23.966  0.00  0.00    +0.111 A 
ENDBRANCH  17  18
ENDBRANCH  16   5
ENDBRANCH  12  16
TORSDOF 6
ENDMDL
MODEL 3
REMARK VINA RESULT:      -4.6      2.137      4.878
REMARK  Name = 75367109
REMARK  6 active torsions:
REMARK  status: ('A' for Active; 'I' for Inactive)
REMARK    1  A    between atoms: O_2  and  C_9
REMARK    2  A    between atoms: N_4  and  C_7
REMARK    3  A    between atoms: N_4  and  C_8
REMARK    4  A    between atoms: N_5  and  C_16
REMARK    5  A    between atoms: C_12  and  C_16
REMARK    6  A    between atoms: C_17  and  C_18
REMARK                            x       y       z     vdW  Elec       q    Type
REMARK                         _______ _______ _______ _____ _____    ______ ____
ROOT
ATOM      1  O   UNL     1      -4.836   3.340  26.733  0.00  0.00    -0.371 OA
ATOM      8  C   UNL     1      -3.155   4.610  25.638  0.00  0.00    +0.111 C 
ATOM      9  C   UNL     1      -3.891   3.772  24.609  0.00  0.00    +0.164 C 
ATOM     12  C   UNL     1      -5.189   3.476  25.347  0.00  0.00    +0.165 C 
ATOM     15  C   UNL     1      -3.525   3.896  26.928  0.00  0.00    +0.181 C 
ENDROOT
BRANCH   9   2
ATOM      2  O   UNL     1      -4.118   4.469  23.400  0.00  0.00    -0.388 OA
ATOM     24  H   UNL     1      -4.958   4.953  23.478  0.00  0.00    +0.210 HD
ENDBRANCH   9   2
BRANCH   8   4
ATOM      4  N   UNL     1      -1.719   4.676  25.419  0.00  0.00    -0.306 NA
ATOM     23  H   UNL     1      -1.255   5.059  26.243  0.00  0.00    +0.123 HD
BRANCH   4   7
ATOM      7  C   UNL     1      -1.177   3.368  25.102  0.00  0.00    +0.054 C 
ATOM     10  C   UNL     1      -0.259   3.389  23.886  0.00  0.00    +0.019 C 
ATOM     11  C   UNL     1      -0.259   2.830  26.193  0.00  0.00    +0.019 C 
ATOM     13  C   UNL     1       0.525   2.084  24.003  0.00  0.00    +0.002 C 
ATOM     14  C   UNL     1       0.526   1.725  25.491  0.00  0.00    +0.002 C 
ENDBRANCH   4   7
ENDBRANCH   8   4
BRANCH  12  16
ATOM     16  C   UNL     1      -5.878   2.211  24.865  0.00  0.00    +0.138 C 
BRANCH  16   5
ATOM      3  O   UNL     1      -3.735   1.420  23.126  0.00  0.00    -0.270 OA
ATOM      5  N   UNL     1      -5.029   1.064  25.018  0.00  0.00    -0.309 N 
ATOM     17  C   UNL     1      -4.010   0.757  24.122  0.00  0.00    +0.244 C 
ATOM     25  H   UNL     1      -5.246   0.436  25.785  0.00  0.00    +0.149 HD
BRANCH  17  18
ATOM      6  N   UNL     1      -1.782  -2.807  24.940  0.00  0.00    -0.263 NA
ATOM     18  C   UNL     1      -3.237  -0.479  24.408  0.00  0.00    +0.040 A 
ATOM     19  C   UNL     1      -1.882  -0.402  24.711  0.00  0.00    +0.033 A 
ATOM     20  C   UNL     1      -3.865  -1.720  24.370  0.00  0.00    +0.033 A 
ATOM     21  C   UNL     1      -1.205  -1.583  24.967  0.00  0.00    +0.111 A 
ATOM     22  C   UNL     1      -3.100  -2.843  24.640  0.00  0.00    +0.111 A 
ENDBRANCH  17  18
ENDBRANCH  16   5
ENDBRANCH  12  16
TORSDOF 6
ENDMDL
MODEL 4
REMARK VINA RESULT:      -4.4      1.683      3.863
REMARK  Name = 75367109
REMARK  6 active torsions:
REMARK  status: ('A' for Active; 'I' for Inactive)
REMARK    1  A    between atoms: O_2  and  C_9
REMARK    2  A    between atoms: N_4  and  C_7
REMARK    3  A    between atoms: N_4  and  C_8
REMARK    4  A    between atoms: N_5  and  C_16
REMARK    5  A    between atoms: C_12  and  C_16
REMARK    6  A    between atoms: C_17  and  C_18
REMARK                            x       y       z     vdW  Elec       q    Type
REMARK                         _______ _______ _______ _____ _____    ______ ____
ROOT
ATOM      1  O   UNL     1      -0.318   1.252  25.935  0.00  0.00    -0.371 OA
ATOM      8  C   UNL     1      -0.150  -0.945  25.051  0.00  0.00    +0.111 C 
ATOM      9  C   UNL     1      -0.277   0.041  23.905  0.00  0.00    +0.164 C 
ATOM     12  C   UNL     1       0.156   1.334  24.581  0.00  0.00    +0.165 C 
ATOM     15  C   UNL     1      -0.657  -0.116  26.219  0.00  0.00    +0.181 C 
ENDROOT
BRANCH   9   2
ATOM      2  O   UNL     1       0.553  -0.285  22.808  0.00  0.00    -0.388 OA
ATOM     24  H   UNL     1       0.918   0.539  22.444  0.00  0.00    +0.210 HD
ENDBRANCH   9   2
BRANCH   8   4
ATOM      4  N   UNL     1      -0.908  -2.170  24.854  0.00  0.00    -0.306 NA
ATOM     23  H   UNL     1      -1.065  -2.633  25.749  0.00  0.00    +0.123 HD
BRANCH   4   7
ATOM      7  C   UNL     1      -2.175  -1.902  24.199  0.00  0.00    +0.054 C 
ATOM     10  C   UNL     1      -2.997  -3.164  23.967  0.00  0.00    +0.019 C 
ATOM     11  C   UNL     1      -3.112  -1.055  25.052  0.00  0.00    +0.019 C 
ATOM     13  C   UNL     1      -4.406  -2.634  23.710  0.00  0.00    +0.002 C 
ATOM     14  C   UNL     1      -4.480  -1.275  24.411  0.00  0.00    +0.002 C 
ENDBRANCH   4   7
ENDBRANCH   8   4
BRANCH  12  16
ATOM     16  C   UNL     1      -0.406   2.578  23.914  0.00  0.00    +0.138 C 
BRANCH  16   5
ATOM      3  O   UNL     1      -2.958   1.697  22.941  0.00  0.00    -0.270 OA
ATOM      5  N   UNL     1      -1.692   2.921  24.450  0.00  0.00    -0.309 N 
ATOM     17  C   UNL     1      -2.883   2.444  23.911  0.00  0.00    +0.244 C 
ATOM     25  H   UNL     1      -1.704   3.590  25.212  0.00  0.00    +0.149 HD
BRANCH  17  18
ATOM      6  N   UNL     1      -6.481   3.794  25.800  0.00  0.00    -0.263 NA
ATOM     18  C   UNL     1      -4.132   2.913  24.565  0.00  0.00    +0.040 A 
ATOM     19  C   UNL     1      -4.284   4.255  24.900  0.00  0.00    +0.033 A 
ATOM     20  C   UNL     1      -5.153   2.012  24.848  0.00  0.00    +0.033 A 
ATOM     21  C   UNL     1      -5.466   4.641  25.510  0.00  0.00    +0.111 A 
ATOM     22  C   UNL     1      -6.297   2.498  25.461  0.00  0.00    +0.111 A 
ENDBRANCH  17  18
ENDBRANCH  16   5
ENDBRANCH  12  16
TORSDOF 6
ENDMDL
MODEL 5
REMARK VINA RESULT:      -4.1     18.705     20.216
REMARK  Name = 75367109
REMARK  6 active torsions:
REMARK  status: ('A' for Active; 'I' for Inactive)
REMARK    1  A    between atoms: O_2  and  C_9
REMARK    2  A    between atoms: N_4  and  C_7
REMARK    3  A    between atoms: N_4  and  C_8
REMARK    4  A    between atoms: N_5  and  C_16
REMARK    5  A    between atoms: C_12  and  C_16
REMARK    6  A    between atoms: C_17  and  C_18
REMARK                            x       y       z     vdW  Elec       q    Type
REMARK                         _______ _______ _______ _____ _____    ______ ____
ROOT
ATOM      1  O   UNL     1      15.688  -8.408  26.134  0.00  0.00    -0.371 OA
ATOM      8  C   UNL     1      15.320  -8.023  28.448  0.00  0.00    +0.111 C 
ATOM      9  C   UNL     1      16.396  -7.074  27.953  0.00  0.00    +0.164 C 
ATOM     12  C   UNL     1      16.123  -7.077  26.455  0.00  0.00    +0.165 C 
ATOM     15  C   UNL     1      15.321  -9.077  27.353  0.00  0.00    +0.181 C 
ENDROOT
BRANCH   9   2
ATOM      2  O   UNL     1      16.279  -5.779  28.508  0.00  0.00    -0.388 OA
ATOM     24  H   UNL     1      16.642  -5.139  27.872  0.00  0.00    +0.210 HD
ENDBRANCH   9   2
BRANCH   8   4
ATOM      4  N   UNL     1      15.588  -8.574  29.766  0.00  0.00    -0.306 NA
ATOM     23  H   UNL     1      16.442  -8.169  30.149  0.00  0.00    +0.123 HD
BRANCH   4   7
ATOM      7  C   UNL     1      14.475  -8.341  30.667  0.00  0.00    +0.054 C 
ATOM     10  C   UNL     1      13.627  -7.143  30.260  0.00  0.00    +0.019 C 
ATOM     11  C   UNL     1      13.459  -9.478  30.655  0.00  0.00    +0.019 C 
ATOM     13  C   UNL     1      12.321  -7.348  31.025  0.00  0.00    +0.002 C 
ATOM     14  C   UNL     1      12.213  -8.854  31.278  0.00  0.00    +0.002 C 
ENDBRANCH   4   7
ENDBRANCH   8   4
BRANCH  12  16
ATOM     16  C   UNL     1      17.342  -6.720  25.623  0.00  0.00    +0.138 C 
BRANCH  16   5
ATOM      3  O   UNL     1      17.405  -4.012  26.572  0.00  0.00    -0.270 OA
ATOM      5  N   UNL     1      17.115  -5.535  24.847  0.00  0.00    -0.309 N 
ATOM     17  C   UNL     1      17.166  -4.256  25.393  0.00  0.00    +0.244 C 
ATOM     25  H   UNL     1      16.845  -5.670  23.878  0.00  0.00    +0.149 HD
BRANCH  17  18
ATOM      6  N   UNL     1      16.351  -1.022  22.708  0.00  0.00    -0.263 NA
ATOM     18  C   UNL     1      16.882  -3.134  24.462  0.00  0.00    +0.040 A 
ATOM     19  C   UNL     1      16.162  -3.361  23.294  0.00  0.00    +0.033 A 
ATOM     20  C   UNL     1      17.337  -1.852  24.754  0.00  0.00    +0.033 A 
ATOM     21  C   UNL     1      15.925  -2.282  22.458  0.00  0.00    +0.111 A 
ATOM     22  C   UNL     1      17.049  -0.840  23.852  0.00  0.00    +0.111 A 
ENDBRANCH  17  18
ENDBRANCH  16   5
ENDBRANCH  12  16
TORSDOF 6
ENDMDL
MODEL 6
REMARK VINA RESULT:      -3.8      2.152      4.766
REMARK  Name = 75367109
REMARK  6 active torsions:
REMARK  status: ('A' for Active; 'I' for Inactive)
REMARK    1  A    between atoms: O_2  and  C_9
REMARK    2  A    between atoms: N_4  and  C_7
REMARK    3  A    between atoms: N_4  and  C_8
REMARK    4  A    between atoms: N_5  and  C_16
REMARK    5  A    between atoms: C_12  and  C_16
REMARK    6  A    between atoms: C_17  and  C_18
REMARK                            x       y       z     vdW  Elec       q    Type
REMARK                         _______ _______ _______ _____ _____    ______ ____
ROOT
ATOM      1  O   UNL     1      -3.482   4.104  25.692  0.00  0.00    -0.371 OA
ATOM      8  C   UNL     1      -1.432   3.688  24.569  0.00  0.00    +0.111 C 
ATOM      9  C   UNL     1      -2.541   2.920  23.874  0.00  0.00    +0.164 C 
ATOM     12  C   UNL     1      -3.768   3.687  24.348  0.00  0.00    +0.165 C 
ATOM     15  C   UNL     1      -2.067   3.981  25.918  0.00  0.00    +0.181 C 
ENDROOT
BRANCH   9   2
ATOM      2  O   UNL     1      -2.418   2.938  22.466  0.00  0.00    -0.388 OA
ATOM     24  H   UNL     1      -2.587   2.041  22.132  0.00  0.00    +0.210 HD
ENDBRANCH   9   2
BRANCH   8   4
ATOM      4  N   UNL     1      -0.187   2.945  24.679  0.00  0.00    -0.306 NA
ATOM     23  H   UNL     1       0.108   2.895  25.653  0.00  0.00    +0.123 HD
BRANCH   4   7
ATOM      7  C   UNL     1      -0.325   1.609  24.128  0.00  0.00    +0.054 C 
ATOM     10  C   UNL     1       0.963   1.095  23.498  0.00  0.00    +0.019 C 
ATOM     11  C   UNL     1      -0.606   0.558  25.196  0.00  0.00    +0.019 C 
ATOM     13  C   UNL     1       0.744  -0.413  23.407  0.00  0.00    +0.002 C 
ATOM     14  C   UNL     1      -0.268  -0.759  24.503  0.00  0.00    +0.002 C 
ENDBRANCH   4   7
ENDBRANCH   8   4
BRANCH  12  16
ATOM     16  C   UNL     1      -5.040   2.855  24.327  0.00  0.00    +0.138 C 
BRANCH  16   5
ATOM      3  O   UNL     1      -4.407   1.021  26.443  0.00  0.00    -0.270 OA
ATOM      5  N   UNL     1      -4.746   1.458  24.190  0.00  0.00    -0.309 N 
ATOM     17  C   UNL     1      -4.449   0.641  25.277  0.00  0.00    +0.244 C 
ATOM     25  H   UNL     1      -4.698   1.093  23.244  0.00  0.00    +0.149 HD
BRANCH  17  18
ATOM      6  N   UNL     1      -3.562  -3.450  24.376  0.00  0.00    -0.263 NA
ATOM     18  C   UNL     1      -4.143  -0.779  24.965  0.00  0.00    +0.040 A 
ATOM     19  C   UNL     1      -3.494  -1.576  25.902  0.00  0.00    +0.033 A 
ATOM     20  C   UNL     1      -4.501  -1.317  23.733  0.00  0.00    +0.033 A 
ATOM     21  C   UNL     1      -3.229  -2.892  25.563  0.00  0.00    +0.111 A 
ATOM     22  C   UNL     1      -4.191  -2.645  23.490  0.00  0.00    +0.111 A 
ENDBRANCH  17  18
ENDBRANCH  16   5
ENDBRANCH  12  16
TORSDOF 6
ENDMDL
MODEL 7
REMARK VINA RESULT:      -2.9      2.027      4.102
REMARK  Name = 75367109
REMARK  6 active torsions:
REMARK  status: ('A' for Active; 'I' for Inactive)
REMARK    1  A    between atoms: O_2  and  C_9
REMARK    2  A    between atoms: N_4  and  C_7
REMARK    3  A    between atoms: N_4  and  C_8
REMARK    4  A    between atoms: N_5  and  C_16
REMARK    5  A    between atoms: C_12  and  C_16
REMARK    6  A    between atoms: C_17  and  C_18
REMARK                            x       y       z     vdW  Elec       q    Type
REMARK                         _______ _______ _______ _____ _____    ______ ____
ROOT
ATOM      1  O   UNL     1       0.128   2.611  25.536  0.00  0.00    -0.371 OA
ATOM      8  C   UNL     1       0.335   0.304  25.013  0.00  0.00    +0.111 C 
ATOM      9  C   UNL     1      -0.357   1.012  23.863  0.00  0.00    +0.164 C 
ATOM     12  C   UNL     1       0.066   2.453  24.110  0.00  0.00    +0.165 C 
ATOM     15  C   UNL     1       0.148   1.306  26.140  0.00  0.00    +0.181 C 
ENDROOT
BRANCH   9   2
ATOM      2  O   UNL     1       0.070   0.545  22.599  0.00  0.00    -0.388 OA
ATOM     24  H   UNL     1      -0.236  -0.372  22.492  0.00  0.00    +0.210 HD
ENDBRANCH   9   2
BRANCH   8   4
ATOM      4  N   UNL     1      -0.225  -1.002  25.318  0.00  0.00    -0.306 NA
ATOM     23  H   UNL     1      -0.192  -1.174  26.322  0.00  0.00    +0.123 HD
BRANCH   4   7
ATOM      7  C   UNL     1      -1.590  -1.111  24.837  0.00  0.00    +0.054 C 
ATOM     10  C   UNL     1      -1.901  -2.483  24.250  0.00  0.00    +0.019 C 
ATOM     11  C   UNL     1      -2.620  -0.995  25.955  0.00  0.00    +0.019 C 
ATOM     13  C   UNL     1      -3.427  -2.531  24.236  0.00  0.00    +0.002 C 
ATOM     14  C   UNL     1      -3.890  -1.573  25.336  0.00  0.00    +0.002 C 
ENDBRANCH   4   7
ENDBRANCH   8   4
BRANCH  12  16
ATOM     16  C   UNL     1      -0.898   3.470  23.522  0.00  0.00    +0.138 C 
BRANCH  16   5
ATOM      3  O   UNL     1      -2.435   4.167  25.844  0.00  0.00    -0.270 OA
ATOM      5  N   UNL     1      -2.261   3.110  23.786  0.00  0.00    -0.309 N 
ATOM     17  C   UNL     1      -2.930   3.494  24.944  0.00  0.00    +0.244 C 
ATOM     25  H   UNL     1      -2.709   2.496  23.113  0.00  0.00    +0.149 HD
BRANCH  17  18
ATOM      6  N   UNL     1      -6.966   2.121  25.341  0.00  0.00    -0.263 NA
ATOM     18  C   UNL     1      -4.331   3.018  25.081  0.00  0.00    +0.040 A 
ATOM     19  C   UNL     1      -5.281   3.816  25.710  0.00  0.00    +0.033 A 
ATOM     20  C   UNL     1      -4.698   1.773  24.582  0.00  0.00    +0.033 A 
ATOM     21  C   UNL     1      -6.573   3.327  25.813  0.00  0.00    +0.111 A 
ATOM     22  C   UNL     1      -6.015   1.374  24.737  0.00  0.00    +0.111 A 
ENDBRANCH  17  18
ENDBRANCH  16   5
ENDBRANCH  12  16
TORSDOF 6
ENDMDL
MODEL 8
REMARK VINA RESULT:      -2.4      2.377      6.240
REMARK  Name = 75367109
REMARK  6 active torsions:
REMARK  status: ('A' for Active; 'I' for Inactive)
REMARK    1  A    between atoms: O_2  and  C_9
REMARK    2  A    between atoms: N_4  and  C_7
REMARK    3  A    between atoms: N_4  and  C_8
REMARK    4  A    between atoms: N_5  and  C_16
REMARK    5  A    between atoms: C_12  and  C_16
REMARK    6  A    between atoms: C_17  and  C_18
REMARK                            x       y       z     vdW  Elec       q    Type
REMARK                         _______ _______ _______ _____ _____    ______ ____
ROOT
ATOM      1  O   UNL     1      -2.505   3.691  23.258  0.00  0.00    -0.371 OA
ATOM      8  C   UNL     1      -4.248   2.686  24.520  0.00  0.00    +0.111 C 
ATOM      9  C   UNL     1      -3.103   3.038  25.451  0.00  0.00    +0.164 C 
ATOM     12  C   UNL     1      -2.372   4.092  24.631  0.00  0.00    +0.165 C 
ATOM     15  C   UNL     1      -3.556   2.713  23.168  0.00  0.00    +0.181 C 
ENDROOT
BRANCH   9   2
ATOM      2  O   UNL     1      -3.545   3.548  26.693  0.00  0.00    -0.388 OA
ATOM     24  H   UNL     1      -3.108   4.403  26.846  0.00  0.00    +0.210 HD
ENDBRANCH   9   2
BRANCH   8   4
ATOM      4  N   UNL     1      -4.868   1.405  24.815  0.00  0.00    -0.306 NA
ATOM     23  H   UNL     1      -5.382   1.068  24.001  0.00  0.00    +0.123 HD
BRANCH   4   7
ATOM      7  C   UNL     1      -3.877   0.426  25.222  0.00  0.00    +0.054 C 
ATOM     10  C   UNL     1      -4.482  -0.944  25.506  0.00  0.00    +0.019 C 
ATOM     11  C   UNL     1      -2.869   0.114  24.121  0.00  0.00    +0.019 C 
ATOM     13  C   UNL     1      -3.281  -1.885  25.464  0.00  0.00    +0.002 C 
ATOM     14  C   UNL     1      -2.241  -1.203  24.570  0.00  0.00    +0.002 C 
ENDBRANCH   4   7
ENDBRANCH   8   4
BRANCH  12  16
ATOM     16  C   UNL     1      -0.901   4.218  24.990  0.00  0.00    +0.138 C 
BRANCH  16   5
ATOM      3  O   UNL     1      -0.005   1.594  25.730  0.00  0.00    -0.270 OA
ATOM      5  N   UNL     1      -0.095   3.333  24.199  0.00  0.00    -0.309 N 
ATOM     17  C   UNL     1       0.294   2.072  24.640  0.00  0.00    +0.244 C 
ATOM     25  H   UNL     1       0.244   3.695  23.313  0.00  0.00    +0.149 HD
BRANCH  17  18
ATOM      6  N   UNL     1       2.764  -0.190  21.973  0.00  0.00    -0.263 NA
ATOM     18  C   UNL     1       1.151   1.288  23.714  0.00  0.00    +0.040 A 
ATOM     19  C   UNL     1       0.617   0.215  23.008  0.00  0.00    +0.033 A 
ATOM     20  C   UNL     1       2.491   1.623  23.550  0.00  0.00    +0.033 A 
ATOM     21  C   UNL     1       1.457  -0.485  22.159  0.00  0.00    +0.111 A 
ATOM     22  C   UNL     1       3.248   0.859  22.677  0.00  0.00    +0.111 A 
ENDBRANCH  17  18
ENDBRANCH  16   5
ENDBRANCH  12  16
TORSDOF 6
ENDMDL
MODEL 9
REMARK VINA RESULT:      -2.1     19.488     20.691
REMARK  Name = 75367109
REMARK  6 active torsions:
REMARK  status: ('A' for Active; 'I' for Inactive)
REMARK    1  A    between atoms: O_2  and  C_9
REMARK    2  A    between atoms: N_4  and  C_7
REMARK    3  A    between atoms: N_4  and  C_8
REMARK    4  A    between atoms: N_5  and  C_16
REMARK    5  A    between atoms: C_12  and  C_16
REMARK    6  A    between atoms: C_17  and  C_18
REMARK                            x       y       z     vdW  Elec       q    Type
REMARK                         _______ _______ _______ _____ _____    ______ ____
ROOT
ATOM      1  O   UNL     1      17.159  -5.436  28.012  0.00  0.00    -0.371 OA
ATOM      8  C   UNL     1      16.736  -5.433  25.675  0.00  0.00    +0.111 C 
ATOM      9  C   UNL     1      16.958  -6.862  26.136  0.00  0.00    +0.164 C 
ATOM     12  C   UNL     1      16.680  -6.735  27.627  0.00  0.00    +0.165 C 
ATOM     15  C   UNL     1      17.347  -4.648  26.824  0.00  0.00    +0.181 C 
ENDROOT
BRANCH   9   2
ATOM      2  O   UNL     1      16.082  -7.779  25.512  0.00  0.00    -0.388 OA
ATOM     24  H   UNL     1      16.103  -8.612  26.013  0.00  0.00    +0.210 HD
ENDBRANCH   9   2
BRANCH   8   4
ATOM      4  N   UNL     1      17.349  -5.131  24.393  0.00  0.00    -0.306 NA
ATOM     23  H   UNL     1      16.846  -5.602  23.642  0.00  0.00    +0.123 HD
BRANCH   4   7
ATOM      7  C   UNL     1      17.382  -3.700  24.152  0.00  0.00    +0.054 C 
ATOM     10  C   UNL     1      16.874  -3.323  22.766  0.00  0.00    +0.019 C 
ATOM     11  C   UNL     1      16.437  -2.927  25.066  0.00  0.00    +0.019 C 
ATOM     13  C   UNL     1      16.569  -1.831  22.887  0.00  0.00    +0.002 C 
ATOM     14  C   UNL     1      16.286  -1.577  24.371  0.00  0.00    +0.002 C 
ENDBRANCH   4   7
ENDBRANCH   8   4
BRANCH  12  16
ATOM     16  C   UNL     1      17.369  -7.803  28.459  0.00  0.00    +0.138 C 
BRANCH  16   5
ATOM      3  O   UNL     1      15.250  -9.669  27.938  0.00  0.00    -0.270 OA
ATOM      5  N   UNL     1      16.472  -8.372  29.423  0.00  0.00    -0.309 N 
ATOM     17  C   UNL     1      15.469  -9.274  29.079  0.00  0.00    +0.244 C 
ATOM     25  H   UNL     1      16.555  -8.035  30.377  0.00  0.00    +0.149 HD
BRANCH  17  18
ATOM      6  N   UNL     1      12.984 -10.646  32.284  0.00  0.00    -0.263 NA
ATOM     18  C   UNL     1      14.607  -9.751  30.191  0.00  0.00    +0.040 A 
ATOM     19  C   UNL     1      13.245  -9.943  29.986  0.00  0.00    +0.033 A 
ATOM     20  C   UNL     1      15.158 -10.006  31.442  0.00  0.00    +0.033 A 
ATOM     21  C   UNL     1      12.484 -10.387  31.054  0.00  0.00    +0.111 A 
ATOM     22  C   UNL     1      14.312 -10.447  32.447  0.00  0.00    +0.111 A 
ENDBRANCH  17  18
ENDBRANCH  16   5
ENDBRANCH  12  16
TORSDOF 6
ENDMDL
MODEL 10
REMARK VINA RESULT:      -2.1     19.471     21.135
REMARK  Name = 75367109
REMARK  6 active torsions:
REMARK  status: ('A' for Active; 'I' for Inactive)
REMARK    1  A    between atoms: O_2  and  C_9
REMARK    2  A    between atoms: N_4  and  C_7
REMARK    3  A    between atoms: N_4  and  C_8
REMARK    4  A    between atoms: N_5  and  C_16
REMARK    5  A    between atoms: C_12  and  C_16
REMARK    6  A    between atoms: C_17  and  C_18
REMARK                            x       y       z     vdW  Elec       q    Type
REMARK                         _______ _______ _______ _____ _____    ______ ____
ROOT
ATOM      1  O   UNL     1      14.919  -7.473  26.623  0.00  0.00    -0.371 OA
ATOM      8  C   UNL     1      16.367  -5.984  25.471  0.00  0.00    +0.111 C 
ATOM      9  C   UNL     1      16.898  -7.399  25.330  0.00  0.00    +0.164 C 
ATOM     12  C   UNL     1      15.646  -8.212  25.628  0.00  0.00    +0.165 C 
ATOM     15  C   UNL     1      15.433  -6.130  26.661  0.00  0.00    +0.181 C 
ENDROOT
BRANCH   9   2
ATOM      2  O   UNL     1      17.405  -7.665  24.038  0.00  0.00    -0.388 OA
ATOM     24  H   UNL     1      18.105  -7.018  23.845  0.00  0.00    +0.210 HD
ENDBRANCH   9   2
BRANCH   8   4
ATOM      4  N   UNL     1      17.405  -4.989  25.685  0.00  0.00    -0.306 NA
ATOM     23  H   UNL     1      18.324  -5.431  25.671  0.00  0.00    +0.123 HD
BRANCH   4   7
ATOM      7  C   UNL     1      17.339  -3.940  24.685  0.00  0.00    +0.054 C 
ATOM     10  C   UNL     1      16.508  -4.335  23.470  0.00  0.00    +0.019 C 
ATOM     11  C   UNL     1      16.614  -2.695  25.184  0.00  0.00    +0.019 C 
ATOM     13  C   UNL     1      16.197  -3.000  22.796  0.00  0.00    +0.002 C 
ATOM     14  C   UNL     1      16.265  -1.943  23.902  0.00  0.00    +0.002 C 
ENDBRANCH   4   7
ENDBRANCH   8   4
BRANCH  12  16
ATOM     16  C   UNL     1      15.947  -9.609  26.144  0.00  0.00    +0.138 C 
BRANCH  16   5
ATOM      3  O   UNL     1      14.258 -10.431  28.315  0.00  0.00    -0.270 OA
ATOM      5  N   UNL     1      16.276  -9.589  27.541  0.00  0.00    -0.309 N 
ATOM     17  C   UNL     1      15.391 -10.009  28.529  0.00  0.00    +0.244 C 
ATOM     25  H   UNL     1      17.173  -9.187  27.791  0.00  0.00    +0.149 HD
BRANCH  17  18
ATOM      6  N   UNL     1      16.784  -9.696  32.565  0.00  0.00    -0.263 NA
ATOM     18  C   UNL     1      15.873  -9.902  29.930  0.00  0.00    +0.040 A 
ATOM     19  C   UNL     1      15.213  -9.078  30.835  0.00  0.00    +0.033 A 
ATOM     20  C   UNL     1      16.990 -10.622  30.342  0.00  0.00    +0.033 A 
ATOM     21  C   UNL     1      15.703  -9.011  32.129  0.00  0.00    +0.111 A 
ATOM     22  C   UNL     1      17.402 -10.486  31.657  0.00  0.00    +0.111 A 
ENDBRANCH  17  18
ENDBRANCH  16   5
ENDBRANCH  12  16
TORSDOF 6
ENDMDL
