MODEL 1
REMARK VINA RESULT:       1.8      0.000      0.000
REMARK  Name = 7144180
REMARK  4 active torsions:
REMARK  status: ('A' for Active; 'I' for Inactive)
REMARK    1  A    between atoms: O_6  and  C_32
REMARK    2  A    between atoms: O_6  and  C_33
REMARK    3  A    between atoms: C_16  and  C_17
REMARK    4  A    between atoms: C_20  and  C_27
REMARK                            x       y       z     vdW  Elec       q    Type
REMARK                         _______ _______ _______ _____ _____    ______ ____
ROOT
ATOM      4  O   UNL     1      -5.546   0.092  25.413  0.00  0.00    -0.275 OA
ATOM      5  O   UNL     1      -3.404   4.698  26.804  0.00  0.00    -0.268 OA
ATOM      7  N   UNL     1      -4.045   0.782  23.780  0.00  0.00    -0.300 N 
ATOM      8  N   UNL     1      -2.761   3.461  24.922  0.00  0.00    -0.311 N 
ATOM      9  C   UNL     1      -4.352   3.108  22.942  0.00  0.00    +0.027 C 
ATOM     10  C   UNL     1      -2.113   2.092  22.915  0.00  0.00    +0.054 C 
ATOM     11  C   UNL     1      -3.074   2.979  22.126  0.00  0.00    +0.018 C 
ATOM     12  C   UNL     1      -4.987   1.729  23.182  0.00  0.00    +0.113 C 
ATOM     13  C   UNL     1      -2.743   0.696  23.107  0.00  0.00    +0.117 C 
ATOM     14  C   UNL     1      -4.020   3.821  24.254  0.00  0.00    +0.130 C 
ATOM     15  C   UNL     1      -1.763   2.706  24.273  0.00  0.00    +0.034 A 
ATOM     17  C   UNL     1      -4.445   0.000  24.864  0.00  0.00    +0.219 C 
ATOM     20  C   UNL     1      -0.556   2.526  24.871  0.00  0.00    +0.002 A 
ATOM     23  C   UNL     1      -2.573   4.020  26.198  0.00  0.00    +0.252 A 
ATOM     25  C   UNL     1      -0.327   3.085  26.189  0.00  0.00    +0.015 A 
ATOM     26  C   UNL     1      -1.262   3.777  26.841  0.00  0.00    +0.071 A 
ENDROOT
BRANCH  17  16
ATOM     16  C   UNL     1      -3.449  -0.998  25.376  0.00  0.00    +0.075 C 
ATOM     18  C   UNL     1      -3.085  -1.985  24.265  0.00  0.00    +0.013 C 
ATOM     19  C   UNL     1      -2.212  -0.273  25.909  0.00  0.00    +0.013 C 
ATOM     21  C   UNL     1      -2.002  -2.963  24.716  0.00  0.00    +0.001 C 
ATOM     22  C   UNL     1      -1.132  -1.255  26.354  0.00  0.00    +0.001 C 
ATOM     24  C   UNL     1      -0.769  -2.236  25.243  0.00  0.00    +0.000 C 
ENDBRANCH  17  16
BRANCH  20  27
ATOM     27  C   UNL     1       0.527   1.757  24.220  0.00  0.00    -0.016 A 
ATOM     28  C   UNL     1       0.397   0.381  24.056  0.00  0.00    +0.012 A 
ATOM     29  C   UNL     1       1.670   2.416  23.777  0.00  0.00    +0.012 A 
ATOM     30  C   UNL     1       1.421  -0.342  23.443  0.00  0.00    +0.046 A 
ATOM     31  C   UNL     1       2.694   1.692  23.164  0.00  0.00    +0.046 A 
ATOM     32  C   UNL     1       2.568   0.313  22.997  0.00  0.00    +0.130 A 
BRANCH  32   6
ATOM      6  O   UNL     1       3.566  -0.393  22.398  0.00  0.00    -0.406 OA
BRANCH   6  33
ATOM      1  F   UNL     1       4.873   0.425  24.045  0.00  0.00    -0.133 F 
ATOM      2  F   UNL     1       4.904  -1.729  23.683  0.00  0.00    -0.133 F 
ATOM      3  F   UNL     1       5.846  -0.340  22.245  0.00  0.00    -0.133 F 
ATOM     33  C   UNL     1       4.806  -0.523  23.083  0.00  0.00    +0.575 C 
ENDBRANCH   6  33
ENDBRANCH  32   6
ENDBRANCH  20  27
TORSDOF 4
ENDMDL
