MODEL 1
REMARK VINA RESULT:      -4.9      0.000      0.000
REMARK  Name = 75536382
REMARK  9 active torsions:
REMARK  status: ('A' for Active; 'I' for Inactive)
REMARK    1  A    between atoms: O_2  and  C_8
REMARK    2  A    between atoms: O_4  and  C_22
REMARK    3  A    between atoms: N_5  and  C_12
REMARK    4  A    between atoms: N_5  and  C_15
REMARK    5  A    between atoms: N_5  and  C_16
REMARK    6  A    between atoms: C_7  and  C_12
REMARK    7  A    between atoms: C_9  and  C_13
REMARK    8  A    between atoms: C_13  and  C_14
REMARK    9  A    between atoms: C_18  and  C_19
REMARK                            x       y       z     vdW  Elec       q    Type
REMARK                         _______ _______ _______ _____ _____    ______ ____
ROOT
ATOM     13  C   UNL     1      -5.000 -10.404  16.272  0.00  0.00    +0.090 C 
ENDROOT
BRANCH  13   9
ATOM      1  O   UNL     1      -6.977  -9.545  17.289  0.00  0.00    -0.369 OA
ATOM      7  C   UNL     1      -8.390  -9.545  17.529  0.00  0.00    +0.161 C 
ATOM      8  C   UNL     1      -9.179  -9.456  16.216  0.00  0.00    +0.145 C 
ATOM      9  C   UNL     1      -6.510 -10.563  16.400  0.00  0.00    +0.125 C 
ATOM     10  C   UNL     1      -8.705 -10.476  15.183  0.00  0.00    +0.036 C 
ATOM     11  C   UNL     1      -7.187 -10.439  15.036  0.00  0.00    +0.034 C 
BRANCH   8   2
ATOM      2  O   UNL     1      -8.998  -8.153  15.657  0.00  0.00    -0.389 OA
ATOM     25  H   UNL     1      -8.145  -7.811  15.979  0.00  0.00    +0.210 HD
ENDBRANCH   8   2
BRANCH   7  12
ATOM     12  C   UNL     1      -8.802 -10.736  18.392  0.00  0.00    +0.118 C 
BRANCH  12   5
ATOM      5  N   UNL     1     -10.166 -10.582  18.873  0.00  0.00    -0.306 NA
ATOM     15  C   UNL     1     -10.719  -9.289  18.459  0.00  0.00    +0.104 C 
ATOM     16  C   UNL     1     -10.221 -10.711  20.331  0.00  0.00    +0.104 C 
ENDBRANCH  12   5
ENDBRANCH   7  12
ENDBRANCH  13   9
BRANCH  13  14
ATOM      3  O   UNL     1      -3.276 -10.602  13.112  0.00  0.00    -0.354 OA
ATOM      6  N   UNL     1      -3.345 -10.780  14.489  0.00  0.00    -0.083 NA
ATOM     14  C   UNL     1      -4.565 -10.357  14.832  0.00  0.00    +0.087 A 
ATOM     17  C   UNL     1      -5.304  -9.907  13.724  0.00  0.00    +0.076 A 
ATOM     18  C   UNL     1      -4.449 -10.081  12.668  0.00  0.00    +0.168 A 
BRANCH  18  19
ATOM     19  C   UNL     1      -4.529  -9.842  11.257  0.00  0.00    +0.023 A 
ATOM     20  C   UNL     1      -5.342  -8.820  10.767  0.00  0.00    +0.057 A 
ATOM     21  C   UNL     1      -3.796 -10.634  10.373  0.00  0.00    +0.012 A 
ATOM     22  C   UNL     1      -5.420  -8.589   9.394  0.00  0.00    +0.118 A 
ATOM     23  C   UNL     1      -3.875 -10.404   9.000  0.00  0.00    +0.004 A 
ATOM     24  C   UNL     1      -4.688  -9.381   8.510  0.00  0.00    +0.045 A 
BRANCH  22   4
ATOM      4  O   UNL     1      -6.214  -7.592   8.916  0.00  0.00    -0.507 OA
ATOM     26  H   UNL     1      -6.938  -7.986   8.399  0.00  0.00    +0.292 HD
ENDBRANCH  22   4
ENDBRANCH  18  19
ENDBRANCH  13  14
TORSDOF 7
ENDMDL
MODEL 2
REMARK VINA RESULT:      -4.8     14.963     16.564
REMARK  Name = 75536382
REMARK  9 active torsions:
REMARK  status: ('A' for Active; 'I' for Inactive)
REMARK    1  A    between atoms: O_2  and  C_8
REMARK    2  A    between atoms: O_4  and  C_22
REMARK    3  A    between atoms: N_5  and  C_12
REMARK    4  A    between atoms: N_5  and  C_15
REMARK    5  A    between atoms: N_5  and  C_16
REMARK    6  A    between atoms: C_7  and  C_12
REMARK    7  A    between atoms: C_9  and  C_13
REMARK    8  A    between atoms: C_13  and  C_14
REMARK    9  A    between atoms: C_18  and  C_19
REMARK                            x       y       z     vdW  Elec       q    Type
REMARK                         _______ _______ _______ _____ _____    ______ ____
ROOT
ATOM     13  C   UNL     1      -2.780   0.429  23.240  0.00  0.00    +0.090 C 
ENDROOT
BRANCH  13   9
ATOM      1  O   UNL     1      -3.770   2.473  23.961  0.00  0.00    -0.369 OA
ATOM      7  C   UNL     1      -4.347   3.329  24.956  0.00  0.00    +0.161 C 
ATOM      8  C   UNL     1      -5.539   2.656  25.649  0.00  0.00    +0.145 C 
ATOM      9  C   UNL     1      -3.364   1.185  24.428  0.00  0.00    +0.125 C 
ATOM     10  C   UNL     1      -5.209   1.245  26.131  0.00  0.00    +0.036 C 
ATOM     11  C   UNL     1      -4.551   0.429  25.022  0.00  0.00    +0.034 C 
BRANCH   8   2
ATOM      2  O   UNL     1      -6.617   2.556  24.716  0.00  0.00    -0.389 OA
ATOM     25  H   UNL     1      -7.259   3.255  24.932  0.00  0.00    +0.210 HD
ENDBRANCH   8   2
BRANCH   7  12
ATOM     12  C   UNL     1      -3.287   3.823  25.939  0.00  0.00    +0.118 C 
BRANCH  12   5
ATOM      5  N   UNL     1      -1.967   3.809  25.328  0.00  0.00    -0.306 NA
ATOM     15  C   UNL     1      -1.026   3.035  26.142  0.00  0.00    +0.104 C 
ATOM     16  C   UNL     1      -1.467   5.174  25.141  0.00  0.00    +0.104 C 
ENDBRANCH  12   5
ENDBRANCH   7  12
ENDBRANCH  13   9
BRANCH  13  14
ATOM      3  O   UNL     1       0.365  -1.005  24.263  0.00  0.00    -0.354 OA
ATOM      6  N   UNL     1      -1.023  -0.945  24.283  0.00  0.00    -0.083 NA
ATOM     14  C   UNL     1      -1.336   0.066  23.467  0.00  0.00    +0.087 A 
ATOM     17  C   UNL     1      -0.198   0.674  22.910  0.00  0.00    +0.076 A 
ATOM     18  C   UNL     1       0.845  -0.036  23.442  0.00  0.00    +0.168 A 
BRANCH  18  19
ATOM     19  C   UNL     1       2.272   0.025  23.319  0.00  0.00    +0.023 A 
ATOM     20  C   UNL     1       3.056  -1.052  23.732  0.00  0.00    +0.057 A 
ATOM     21  C   UNL     1       2.877   1.165  22.787  0.00  0.00    +0.012 A 
ATOM     22  C   UNL     1       4.443  -0.991  23.613  0.00  0.00    +0.118 A 
ATOM     23  C   UNL     1       4.266   1.226  22.668  0.00  0.00    +0.004 A 
ATOM     24  C   UNL     1       5.049   0.147  23.082  0.00  0.00    +0.045 A 
BRANCH  22   4
ATOM      4  O   UNL     1       5.208  -2.042  24.018  0.00  0.00    -0.507 OA
ATOM     26  H   UNL     1       6.113  -1.922  23.681  0.00  0.00    +0.292 HD
ENDBRANCH  22   4
ENDBRANCH  18  19
ENDBRANCH  13  14
TORSDOF 7
ENDMDL
MODEL 3
REMARK VINA RESULT:      -4.7     14.840     16.396
REMARK  Name = 75536382
REMARK  9 active torsions:
REMARK  status: ('A' for Active; 'I' for Inactive)
REMARK    1  A    between atoms: O_2  and  C_8
REMARK    2  A    between atoms: O_4  and  C_22
REMARK    3  A    between atoms: N_5  and  C_12
REMARK    4  A    between atoms: N_5  and  C_15
REMARK    5  A    between atoms: N_5  and  C_16
REMARK    6  A    between atoms: C_7  and  C_12
REMARK    7  A    between atoms: C_9  and  C_13
REMARK    8  A    between atoms: C_13  and  C_14
REMARK    9  A    between atoms: C_18  and  C_19
REMARK                            x       y       z     vdW  Elec       q    Type
REMARK                         _______ _______ _______ _____ _____    ______ ____
ROOT
ATOM     13  C   UNL     1      -2.504   3.739  25.561  0.00  0.00    +0.090 C 
ENDROOT
BRANCH  13   9
ATOM      1  O   UNL     1      -3.794   1.763  25.889  0.00  0.00    -0.369 OA
ATOM      7  C   UNL     1      -4.899   0.898  25.594  0.00  0.00    +0.161 C 
ATOM      8  C   UNL     1      -6.237   1.639  25.719  0.00  0.00    +0.145 C 
ATOM      9  C   UNL     1      -3.733   2.959  25.110  0.00  0.00    +0.125 C 
ATOM     10  C   UNL     1      -6.240   2.963  24.959  0.00  0.00    +0.036 C 
ATOM     11  C   UNL     1      -5.002   3.790  25.297  0.00  0.00    +0.034 C 
BRANCH   8   2
ATOM      2  O   UNL     1      -6.476   1.927  27.099  0.00  0.00    -0.389 OA
ATOM     25  H   UNL     1      -7.358   1.583  27.322  0.00  0.00    +0.210 HD
ENDBRANCH   8   2
BRANCH   7  12
ATOM     12  C   UNL     1      -4.719   0.217  24.239  0.00  0.00    +0.118 C 
BRANCH  12   5
ATOM      5  N   UNL     1      -3.786  -0.895  24.337  0.00  0.00    -0.306 NA
ATOM     15  C   UNL     1      -4.338  -2.093  23.699  0.00  0.00    +0.104 C 
ATOM     16  C   UNL     1      -3.456  -1.174  25.736  0.00  0.00    +0.104 C 
ENDBRANCH  12   5
ENDBRANCH   7  12
ENDBRANCH  13   9
BRANCH  13  14
ATOM      3  O   UNL     1       0.761   2.212  25.490  0.00  0.00    -0.354 OA
ATOM      6  N   UNL     1      -0.247   2.933  26.121  0.00  0.00    -0.083 NA
ATOM     14  C   UNL     1      -1.229   3.015  25.219  0.00  0.00    +0.087 A 
ATOM     17  C   UNL     1      -0.902   2.371  24.013  0.00  0.00    +0.076 A 
ATOM     18  C   UNL     1       0.359   1.884  24.235  0.00  0.00    +0.168 A 
BRANCH  18  19
ATOM     19  C   UNL     1       1.299   1.132  23.457  0.00  0.00    +0.023 A 
ATOM     20  C   UNL     1       2.666   1.378  23.585  0.00  0.00    +0.057 A 
ATOM     21  C   UNL     1       0.846   0.155  22.570  0.00  0.00    +0.012 A 
ATOM     22  C   UNL     1       3.580   0.647  22.827  0.00  0.00    +0.118 A 
ATOM     23  C   UNL     1       1.760  -0.576  21.810  0.00  0.00    +0.004 A 
ATOM     24  C   UNL     1       3.128  -0.330  21.939  0.00  0.00    +0.045 A 
BRANCH  22   4
ATOM      4  O   UNL     1       4.914   0.888  22.950  0.00  0.00    -0.507 OA
ATOM     26  H   UNL     1       5.139   1.684  22.439  0.00  0.00    +0.292 HD
ENDBRANCH  22   4
ENDBRANCH  18  19
ENDBRANCH  13  14
TORSDOF 7
ENDMDL
MODEL 4
REMARK VINA RESULT:      -3.6     14.489     16.096
REMARK  Name = 75536382
REMARK  9 active torsions:
REMARK  status: ('A' for Active; 'I' for Inactive)
REMARK    1  A    between atoms: O_2  and  C_8
REMARK    2  A    between atoms: O_4  and  C_22
REMARK    3  A    between atoms: N_5  and  C_12
REMARK    4  A    between atoms: N_5  and  C_15
REMARK    5  A    between atoms: N_5  and  C_16
REMARK    6  A    between atoms: C_7  and  C_12
REMARK    7  A    between atoms: C_9  and  C_13
REMARK    8  A    between atoms: C_13  and  C_14
REMARK    9  A    between atoms: C_18  and  C_19
REMARK                            x       y       z     vdW  Elec       q    Type
REMARK                         _______ _______ _______ _____ _____    ______ ____
ROOT
ATOM     13  C   UNL     1      -1.657   2.887  24.458  0.00  0.00    +0.090 C 
ENDROOT
BRANCH  13   9
ATOM      1  O   UNL     1      -3.252   1.373  25.377  0.00  0.00    -0.369 OA
ATOM      7  C   UNL     1      -4.507   0.680  25.364  0.00  0.00    +0.161 C 
ATOM      8  C   UNL     1      -5.684   1.659  25.262  0.00  0.00    +0.145 C 
ATOM      9  C   UNL     1      -3.029   2.249  24.270  0.00  0.00    +0.125 C 
ATOM     10  C   UNL     1      -5.501   2.672  24.135  0.00  0.00    +0.036 C 
ATOM     11  C   UNL     1      -4.119   3.317  24.200  0.00  0.00    +0.034 C 
BRANCH   8   2
ATOM      2  O   UNL     1      -5.786   2.386  26.489  0.00  0.00    -0.389 OA
ATOM     25  H   UNL     1      -5.497   3.298  26.315  0.00  0.00    +0.210 HD
ENDBRANCH   8   2
BRANCH   7  12
ATOM     12  C   UNL     1      -4.530  -0.395  24.280  0.00  0.00    +0.118 C 
BRANCH  12   5
ATOM      5  N   UNL     1      -3.974  -1.644  24.777  0.00  0.00    -0.306 NA
ATOM     15  C   UNL     1      -2.526  -1.529  24.968  0.00  0.00    +0.104 C 
ATOM     16  C   UNL     1      -4.276  -2.747  23.861  0.00  0.00    +0.104 C 
ENDBRANCH  12   5
ENDBRANCH   7  12
ENDBRANCH  13   9
BRANCH  13  14
ATOM      3  O   UNL     1       0.385   0.229  23.132  0.00  0.00    -0.354 OA
ATOM      6  N   UNL     1      -0.844   0.823  23.390  0.00  0.00    -0.083 NA
ATOM     14  C   UNL     1      -0.551   1.965  24.019  0.00  0.00    +0.087 A 
ATOM     17  C   UNL     1       0.834   2.142  24.185  0.00  0.00    +0.076 A 
ATOM     18  C   UNL     1       1.377   1.023  23.611  0.00  0.00    +0.168 A 
BRANCH  18  19
ATOM     19  C   UNL     1       2.712   0.538  23.416  0.00  0.00    +0.023 A 
ATOM     20  C   UNL     1       3.047  -0.759  23.804  0.00  0.00    +0.057 A 
ATOM     21  C   UNL     1       3.677   1.366  22.841  0.00  0.00    +0.012 A 
ATOM     22  C   UNL     1       4.346  -1.229  23.616  0.00  0.00    +0.118 A 
ATOM     23  C   UNL     1       4.977   0.896  22.653  0.00  0.00    +0.004 A 
ATOM     24  C   UNL     1       5.312  -0.402  23.041  0.00  0.00    +0.045 A 
BRANCH  22   4
ATOM      4  O   UNL     1       4.674  -2.494  23.996  0.00  0.00    -0.507 OA
ATOM     26  H   UNL     1       4.233  -2.695  24.839  0.00  0.00    +0.292 HD
ENDBRANCH  22   4
ENDBRANCH  18  19
ENDBRANCH  13  14
TORSDOF 7
ENDMDL
MODEL 5
REMARK VINA RESULT:      -3.5     23.168     25.268
REMARK  Name = 75536382
REMARK  9 active torsions:
REMARK  status: ('A' for Active; 'I' for Inactive)
REMARK    1  A    between atoms: O_2  and  C_8
REMARK    2  A    between atoms: O_4  and  C_22
REMARK    3  A    between atoms: N_5  and  C_12
REMARK    4  A    between atoms: N_5  and  C_15
REMARK    5  A    between atoms: N_5  and  C_16
REMARK    6  A    between atoms: C_7  and  C_12
REMARK    7  A    between atoms: C_9  and  C_13
REMARK    8  A    between atoms: C_13  and  C_14
REMARK    9  A    between atoms: C_18  and  C_19
REMARK                            x       y       z     vdW  Elec       q    Type
REMARK                         _______ _______ _______ _____ _____    ______ ____
ROOT
ATOM     13  C   UNL     1      11.029  -6.629  32.664  0.00  0.00    +0.090 C 
ENDROOT
BRANCH  13   9
ATOM      1  O   UNL     1       9.797  -8.418  31.685  0.00  0.00    -0.369 OA
ATOM      7  C   UNL     1       9.316  -9.768  31.655  0.00  0.00    +0.161 C 
ATOM      8  C   UNL     1      10.471 -10.775  31.732  0.00  0.00    +0.145 C 
ATOM      9  C   UNL     1      10.621  -8.090  32.806  0.00  0.00    +0.125 C 
ATOM     10  C   UNL     1      11.436 -10.464  32.874  0.00  0.00    +0.036 C 
ATOM     11  C   UNL     1      11.850  -8.995  32.855  0.00  0.00    +0.034 C 
BRANCH   8   2
ATOM      2  O   UNL     1      11.210 -10.722  30.510  0.00  0.00    -0.389 OA
ATOM     25  H   UNL     1      10.600 -10.432  29.809  0.00  0.00    +0.210 HD
ENDBRANCH   8   2
BRANCH   7  12
ATOM     12  C   UNL     1       8.253  -9.997  32.728  0.00  0.00    +0.118 C 
BRANCH  12   5
ATOM      5  N   UNL     1       6.917  -9.821  32.181  0.00  0.00    -0.306 NA
ATOM     15  C   UNL     1       6.918 -10.026  30.730  0.00  0.00    +0.104 C 
ATOM     16  C   UNL     1       6.396  -8.490  32.502  0.00  0.00    +0.104 C 
ENDBRANCH  12   5
ENDBRANCH   7  12
ENDBRANCH  13   9
BRANCH  13  14
ATOM      3  O   UNL     1      14.516  -6.225  31.840  0.00  0.00    -0.354 OA
ATOM      6  N   UNL     1      13.469  -6.313  32.751  0.00  0.00    -0.083 NA
ATOM     14  C   UNL     1      12.375  -6.489  32.004  0.00  0.00    +0.087 A 
ATOM     17  C   UNL     1      12.667  -6.520  30.629  0.00  0.00    +0.076 A 
ATOM     18  C   UNL     1      14.026  -6.350  30.580  0.00  0.00    +0.168 A 
BRANCH  18  19
ATOM     19  C   UNL     1      14.994  -6.280  29.526  0.00  0.00    +0.023 A 
ATOM     20  C   UNL     1      14.810  -7.020  28.358  0.00  0.00    +0.057 A 
ATOM     21  C   UNL     1      16.124  -5.474  29.670  0.00  0.00    +0.012 A 
ATOM     22  C   UNL     1      15.753  -6.953  27.334  0.00  0.00    +0.118 A 
ATOM     23  C   UNL     1      17.069  -5.407  28.645  0.00  0.00    +0.004 A 
ATOM     24  C   UNL     1      16.883  -6.148  27.476  0.00  0.00    +0.045 A 
BRANCH  22   4
ATOM      4  O   UNL     1      15.574  -7.676  26.195  0.00  0.00    -0.507 OA
ATOM     26  H   UNL     1      16.145  -7.312  25.496  0.00  0.00    +0.292 HD
ENDBRANCH  22   4
ENDBRANCH  18  19
ENDBRANCH  13  14
TORSDOF 7
ENDMDL
MODEL 6
REMARK VINA RESULT:      -3.4     14.959     17.241
REMARK  Name = 75536382
REMARK  9 active torsions:
REMARK  status: ('A' for Active; 'I' for Inactive)
REMARK    1  A    between atoms: O_2  and  C_8
REMARK    2  A    between atoms: O_4  and  C_22
REMARK    3  A    between atoms: N_5  and  C_12
REMARK    4  A    between atoms: N_5  and  C_15
REMARK    5  A    between atoms: N_5  and  C_16
REMARK    6  A    between atoms: C_7  and  C_12
REMARK    7  A    between atoms: C_9  and  C_13
REMARK    8  A    between atoms: C_13  and  C_14
REMARK    9  A    between atoms: C_18  and  C_19
REMARK                            x       y       z     vdW  Elec       q    Type
REMARK                         _______ _______ _______ _____ _____    ______ ____
ROOT
ATOM     13  C   UNL     1       1.068   2.962  23.975  0.00  0.00    +0.090 C 
ENDROOT
BRANCH  13   9
ATOM      1  O   UNL     1       0.183   0.919  23.125  0.00  0.00    -0.369 OA
ATOM      7  C   UNL     1       0.235  -0.495  22.894  0.00  0.00    +0.161 C 
ATOM      8  C   UNL     1       1.521  -0.894  22.157  0.00  0.00    +0.145 C 
ATOM      9  C   UNL     1       1.304   1.463  23.825  0.00  0.00    +0.125 C 
ATOM     10  C   UNL     1       2.769  -0.305  22.809  0.00  0.00    +0.036 C 
ATOM     11  C   UNL     1       2.599   1.191  23.063  0.00  0.00    +0.034 C 
BRANCH   8   2
ATOM      2  O   UNL     1       1.454  -0.401  20.817  0.00  0.00    -0.389 OA
ATOM     25  H   UNL     1       2.348  -0.461  20.437  0.00  0.00    +0.210 HD
ENDBRANCH   8   2
BRANCH   7  12
ATOM     12  C   UNL     1       0.027  -1.272  24.193  0.00  0.00    +0.118 C 
BRANCH  12   5
ATOM      5  N   UNL     1      -1.357  -1.186  24.633  0.00  0.00    -0.306 NA
ATOM     15  C   UNL     1      -1.432  -0.728  26.023  0.00  0.00    +0.104 C 
ATOM     16  C   UNL     1      -2.028  -2.480  24.492  0.00  0.00    +0.104 C 
ENDBRANCH  12   5
ENDBRANCH   7  12
ENDBRANCH  13   9
BRANCH  13  14
ATOM      3  O   UNL     1      -1.993   4.398  25.224  0.00  0.00    -0.354 OA
ATOM      6  N   UNL     1      -0.635   4.458  24.932  0.00  0.00    -0.083 NA
ATOM     14  C   UNL     1      -0.340   3.262  24.415  0.00  0.00    +0.087 A 
ATOM     17  C   UNL     1      -1.460   2.415  24.355  0.00  0.00    +0.076 A 
ATOM     18  C   UNL     1      -2.472   3.176  24.876  0.00  0.00    +0.168 A 
BRANCH  18  19
ATOM     19  C   UNL     1      -3.869   2.963  25.118  0.00  0.00    +0.023 A 
ATOM     20  C   UNL     1      -4.703   4.047  25.396  0.00  0.00    +0.057 A 
ATOM     21  C   UNL     1      -4.395   1.671  25.078  0.00  0.00    +0.012 A 
ATOM     22  C   UNL     1      -6.061   3.839  25.633  0.00  0.00    +0.118 A 
ATOM     23  C   UNL     1      -5.754   1.463  25.316  0.00  0.00    +0.004 A 
ATOM     24  C   UNL     1      -6.587   2.548  25.593  0.00  0.00    +0.045 A 
BRANCH  22   4
ATOM      4  O   UNL     1      -6.874   4.896  25.905  0.00  0.00    -0.507 OA
ATOM     26  H   UNL     1      -6.367   5.565  26.398  0.00  0.00    +0.292 HD
ENDBRANCH  22   4
ENDBRANCH  18  19
ENDBRANCH  13  14
TORSDOF 7
ENDMDL
MODEL 7
REMARK VINA RESULT:      -2.2      4.408      6.643
REMARK  Name = 75536382
REMARK  9 active torsions:
REMARK  status: ('A' for Active; 'I' for Inactive)
REMARK    1  A    between atoms: O_2  and  C_8
REMARK    2  A    between atoms: O_4  and  C_22
REMARK    3  A    between atoms: N_5  and  C_12
REMARK    4  A    between atoms: N_5  and  C_15
REMARK    5  A    between atoms: N_5  and  C_16
REMARK    6  A    between atoms: C_7  and  C_12
REMARK    7  A    between atoms: C_9  and  C_13
REMARK    8  A    between atoms: C_13  and  C_14
REMARK    9  A    between atoms: C_18  and  C_19
REMARK                            x       y       z     vdW  Elec       q    Type
REMARK                         _______ _______ _______ _____ _____    ______ ____
ROOT
ATOM     13  C   UNL     1      -5.339 -10.710  12.745  0.00  0.00    +0.090 C 
ENDROOT
BRANCH  13   9
ATOM      1  O   UNL     1      -6.300  -9.053  11.328  0.00  0.00    -0.369 OA
ATOM      7  C   UNL     1      -6.895  -8.616  10.099  0.00  0.00    +0.161 C 
ATOM      8  C   UNL     1      -5.998  -8.941   8.897  0.00  0.00    +0.145 C 
ATOM      9  C   UNL     1      -5.949 -10.438  11.375  0.00  0.00    +0.125 C 
ATOM     10  C   UNL     1      -5.527 -10.393   8.900  0.00  0.00    +0.036 C 
ATOM     11  C   UNL     1      -4.960 -10.781  10.263  0.00  0.00    +0.034 C 
BRANCH   8   2
ATOM      2  O   UNL     1      -4.838  -8.107   8.951  0.00  0.00    -0.389 OA
ATOM     25  H   UNL     1      -4.974  -7.374   8.326  0.00  0.00    +0.210 HD
ENDBRANCH   8   2
BRANCH   7  12
ATOM     12  C   UNL     1      -8.313  -9.164   9.949  0.00  0.00    +0.118 C 
BRANCH  12   5
ATOM      5  N   UNL     1      -8.904  -8.736   8.690  0.00  0.00    -0.306 NA
ATOM     15  C   UNL     1      -9.443  -7.378   8.805  0.00  0.00    +0.104 C 
ATOM     16  C   UNL     1      -9.958  -9.663   8.269  0.00  0.00    +0.104 C 
ENDBRANCH  12   5
ENDBRANCH   7  12
ENDBRANCH  13   9
BRANCH  13  14
ATOM      3  O   UNL     1      -1.847 -10.264  13.522  0.00  0.00    -0.354 OA
ATOM      6  N   UNL     1      -3.111 -10.778  13.789  0.00  0.00    -0.083 NA
ATOM     14  C   UNL     1      -3.880 -10.341  12.788  0.00  0.00    +0.087 A 
ATOM     17  C   UNL     1      -3.164  -9.554  11.869  0.00  0.00    +0.076 A 
ATOM     18  C   UNL     1      -1.892  -9.535  12.377  0.00  0.00    +0.168 A 
BRANCH  18  19
ATOM     19  C   UNL     1      -0.654  -8.939  11.970  0.00  0.00    +0.023 A 
ATOM     20  C   UNL     1      -0.226  -7.748  12.557  0.00  0.00    +0.057 A 
ATOM     21  C   UNL     1       0.123  -9.548  10.984  0.00  0.00    +0.012 A 
ATOM     22  C   UNL     1       0.977  -7.167  12.159  0.00  0.00    +0.118 A 
ATOM     23  C   UNL     1       1.327  -8.967  10.585  0.00  0.00    +0.004 A 
ATOM     24  C   UNL     1       1.754  -7.775  11.174  0.00  0.00    +0.045 A 
BRANCH  22   4
ATOM      4  O   UNL     1       1.393  -6.004  12.732  0.00  0.00    -0.507 OA
ATOM     26  H   UNL     1       2.364  -6.014  12.797  0.00  0.00    +0.292 HD
ENDBRANCH  22   4
ENDBRANCH  18  19
ENDBRANCH  13  14
TORSDOF 7
ENDMDL
MODEL 8
REMARK VINA RESULT:      -1.2     14.857     17.093
REMARK  Name = 75536382
REMARK  9 active torsions:
REMARK  status: ('A' for Active; 'I' for Inactive)
REMARK    1  A    between atoms: O_2  and  C_8
REMARK    2  A    between atoms: O_4  and  C_22
REMARK    3  A    between atoms: N_5  and  C_12
REMARK    4  A    between atoms: N_5  and  C_15
REMARK    5  A    between atoms: N_5  and  C_16
REMARK    6  A    between atoms: C_7  and  C_12
REMARK    7  A    between atoms: C_9  and  C_13
REMARK    8  A    between atoms: C_13  and  C_14
REMARK    9  A    between atoms: C_18  and  C_19
REMARK                            x       y       z     vdW  Elec       q    Type
REMARK                         _______ _______ _______ _____ _____    ______ ____
ROOT
ATOM     13  C   UNL     1      -4.185   4.036  25.059  0.00  0.00    +0.090 C 
ENDROOT
BRANCH  13   9
ATOM      1  O   UNL     1      -1.949   3.517  24.420  0.00  0.00    -0.369 OA
ATOM      7  C   UNL     1      -0.528   3.691  24.498  0.00  0.00    +0.161 C 
ATOM      8  C   UNL     1      -0.129   5.150  24.240  0.00  0.00    +0.145 C 
ATOM      9  C   UNL     1      -2.714   4.364  25.281  0.00  0.00    +0.125 C 
ATOM     10  C   UNL     1      -0.940   6.131  25.082  0.00  0.00    +0.036 C 
ATOM     11  C   UNL     1      -2.434   5.835  24.977  0.00  0.00    +0.034 C 
BRANCH   8   2
ATOM      2  O   UNL     1      -0.365   5.455  22.864  0.00  0.00    -0.389 OA
ATOM     25  H   UNL     1       0.378   5.999  22.551  0.00  0.00    +0.210 HD
ENDBRANCH   8   2
BRANCH   7  12
ATOM     12  C   UNL     1       0.021   3.146  25.815  0.00  0.00    +0.118 C 
BRANCH  12   5
ATOM      5  N   UNL     1       0.441   1.761  25.669  0.00  0.00    -0.306 NA
ATOM     15  C   UNL     1       0.766   1.461  24.272  0.00  0.00    +0.104 C 
ATOM     16  C   UNL     1      -0.600   0.849  26.152  0.00  0.00    +0.104 C 
ENDBRANCH  12   5
ENDBRANCH   7  12
ENDBRANCH  13   9
BRANCH  13  14
ATOM      3  O   UNL     1      -5.484   0.702  24.614  0.00  0.00    -0.354 OA
ATOM      6  N   UNL     1      -5.645   2.071  24.794  0.00  0.00    -0.083 NA
ATOM     14  C   UNL     1      -4.403   2.559  24.864  0.00  0.00    +0.087 A 
ATOM     17  C   UNL     1      -3.427   1.555  24.734  0.00  0.00    +0.076 A 
ATOM     18  C   UNL     1      -4.159   0.407  24.580  0.00  0.00    +0.168 A 
BRANCH  18  19
ATOM     19  C   UNL     1      -3.834  -0.977  24.397  0.00  0.00    +0.023 A 
ATOM     20  C   UNL     1      -2.582  -1.457  24.780  0.00  0.00    +0.057 A 
ATOM     21  C   UNL     1      -4.770  -1.843  23.832  0.00  0.00    +0.012 A 
ATOM     22  C   UNL     1      -2.266  -2.803  24.600  0.00  0.00    +0.118 A 
ATOM     23  C   UNL     1      -4.454  -3.190  23.651  0.00  0.00    +0.004 A 
ATOM     24  C   UNL     1      -3.201  -3.670  24.035  0.00  0.00    +0.045 A 
BRANCH  22   4
ATOM      4  O   UNL     1      -1.043  -3.271  24.972  0.00  0.00    -0.507 OA
ATOM     26  H   UNL     1      -0.414  -3.124  24.245  0.00  0.00    +0.292 HD
ENDBRANCH  22   4
ENDBRANCH  18  19
ENDBRANCH  13  14
TORSDOF 7
ENDMDL
