MODEL 1
REMARK VINA RESULT:       9.0      0.000      0.000
REMARK  Name = 40777712
REMARK  14 active torsions:
REMARK  status: ('A' for Active; 'I' for Inactive)
REMARK    1  A    between atoms: O_2  and  C_29
REMARK    2  A    between atoms: O_2  and  C_30
REMARK    3  A    between atoms: O_3  and  C_31
REMARK    4  A    between atoms: N_5  and  C_17
REMARK    5  A    between atoms: N_6  and  C_10
REMARK    6  A    between atoms: C_8  and  C_11
REMARK    7  A    between atoms: C_14  and  C_18
REMARK    8  A    between atoms: C_15  and  C_20
REMARK    9  A    between atoms: C_16  and  C_19
REMARK   10  A    between atoms: C_16  and  C_26
REMARK   11  A    between atoms: C_16  and  C_27
REMARK   12  A    between atoms: C_16  and  C_28
REMARK   13  A    between atoms: C_21  and  C_29
REMARK   14  A    between atoms: C_30  and  C_31
REMARK                            x       y       z     vdW  Elec       q    Type
REMARK                         _______ _______ _______ _____ _____    ______ ____
ROOT
ATOM      5  N   UNL     1       0.798  -0.214  23.755  0.00  0.00    -0.236 N 
ATOM      7  N   UNL     1       0.081  -1.345  23.871  0.00  0.00    -0.171 NA
ATOM     11  C   UNL     1      -1.265   0.501  23.837  0.00  0.00    +0.003 A 
ATOM     14  C   UNL     1       0.040   0.919  23.729  0.00  0.00    +0.046 A 
ATOM     15  C   UNL     1      -1.177  -0.902  23.921  0.00  0.00    +0.064 A 
ATOM     18  C   UNL     1       0.612   2.276  23.608  0.00  0.00    +0.066 C 
ATOM     20  C   UNL     1      -2.281  -1.870  24.052  0.00  0.00    +0.068 C 
ENDROOT
BRANCH   5  17
ATOM     17  C   UNL     1       2.189  -0.282  23.672  0.00  0.00    +0.066 A 
ATOM     19  C   UNL     1       4.971  -0.411  23.513  0.00  0.00    -0.042 A 
ATOM     22  C   UNL     1       2.855  -1.451  24.041  0.00  0.00    +0.028 A 
ATOM     23  C   UNL     1       2.915   0.822  23.224  0.00  0.00    +0.028 A 
ATOM     24  C   UNL     1       4.246  -1.516  23.961  0.00  0.00    +0.006 A 
ATOM     25  C   UNL     1       4.306   0.757  23.145  0.00  0.00    +0.006 A 
BRANCH  19  16
ATOM     16  C   UNL     1       6.459  -0.481  23.428  0.00  0.00    -0.013 C 
ATOM     26  C   UNL     1       7.048  -1.389  24.552  0.00  0.00    +0.015 C 
ATOM     27  C   UNL     1       7.102   0.933  23.581  0.00  0.00    +0.015 C 
ATOM     28  C   UNL     1       7.029  -1.055  22.089  0.00  0.00    +0.015 C 
ENDBRANCH  19  16
ENDBRANCH   5  17
BRANCH  11   8
ATOM      8  C   UNL     1      -2.510   1.357  23.860  0.00  0.00    +0.047 C 
ATOM      9  C   UNL     1      -2.273   2.761  24.453  0.00  0.00    +0.039 C 
ATOM     10  C   UNL     1      -3.197   3.705  23.674  0.00  0.00    +0.097 C 
ATOM     12  C   UNL     1      -3.081   1.670  22.508  0.00  0.00    -0.021 C 
ATOM     13  C   UNL     1      -3.458   2.949  22.414  0.00  0.00    -0.009 C 
BRANCH  10   6
ATOM      1  O   UNL     1      -3.578   4.349  26.469  0.00  0.00    -0.273 OA
ATOM      6  N   UNL     1      -4.446   3.944  24.349  0.00  0.00    -0.307 N 
ATOM     21  C   UNL     1      -4.532   4.248  25.703  0.00  0.00    +0.239 C 
ATOM     32  H   UNL     1      -5.308   3.848  23.818  0.00  0.00    +0.149 HD
BRANCH  21  29
ATOM     29  C   UNL     1      -5.965   4.450  26.147  0.00  0.00    +0.256 C 
BRANCH  29   2
ATOM      2  O   UNL     1      -6.721   3.277  25.939  0.00  0.00    -0.359 OA
BRANCH   2  30
ATOM     30  C   UNL     1      -6.131   2.146  26.573  0.00  0.00    +0.280 C 
BRANCH  30  31
ATOM      4  O   UNL     1      -4.788   0.315  25.708  0.00  0.00    -0.248 OA
ATOM     31  C   UNL     1      -5.627   1.184  25.531  0.00  0.00    +0.331 C 
BRANCH  31   3
ATOM      3  O   UNL     1      -6.242   1.416  24.344  0.00  0.00    -0.479 OA
ATOM     33  H   UNL     1      -5.774   0.983  23.599  0.00  0.00    +0.295 HD
ENDBRANCH  31   3
ENDBRANCH  30  31
ENDBRANCH   2  30
ENDBRANCH  29   2
ENDBRANCH  21  29
ENDBRANCH  10   6
ENDBRANCH  11   8
TORSDOF 9
ENDMDL
MODEL 2
REMARK VINA RESULT:       9.2      1.208      2.261
REMARK  Name = 40777712
REMARK  14 active torsions:
REMARK  status: ('A' for Active; 'I' for Inactive)
REMARK    1  A    between atoms: O_2  and  C_29
REMARK    2  A    between atoms: O_2  and  C_30
REMARK    3  A    between atoms: O_3  and  C_31
REMARK    4  A    between atoms: N_5  and  C_17
REMARK    5  A    between atoms: N_6  and  C_10
REMARK    6  A    between atoms: C_8  and  C_11
REMARK    7  A    between atoms: C_14  and  C_18
REMARK    8  A    between atoms: C_15  and  C_20
REMARK    9  A    between atoms: C_16  and  C_19
REMARK   10  A    between atoms: C_16  and  C_26
REMARK   11  A    between atoms: C_16  and  C_27
REMARK   12  A    between atoms: C_16  and  C_28
REMARK   13  A    between atoms: C_21  and  C_29
REMARK   14  A    between atoms: C_30  and  C_31
REMARK                            x       y       z     vdW  Elec       q    Type
REMARK                         _______ _______ _______ _____ _____    ______ ____
ROOT
ATOM      5  N   UNL     1       0.512  -0.611  24.061  0.00  0.00    -0.236 N 
ATOM      7  N   UNL     1      -0.126  -1.785  23.910  0.00  0.00    -0.171 NA
ATOM     11  C   UNL     1      -1.573  -0.113  24.482  0.00  0.00    +0.003 A 
ATOM     14  C   UNL     1      -0.310   0.422  24.402  0.00  0.00    +0.046 A 
ATOM     15  C   UNL     1      -1.398  -1.474  24.168  0.00  0.00    +0.064 A 
ATOM     18  C   UNL     1       0.170   1.802  24.622  0.00  0.00    +0.066 C 
ATOM     20  C   UNL     1      -2.428  -2.526  24.103  0.00  0.00    +0.068 C 
ENDROOT
BRANCH   5  17
ATOM     17  C   UNL     1       1.891  -0.543  23.866  0.00  0.00    +0.066 A 
ATOM     19  C   UNL     1       4.651  -0.400  23.482  0.00  0.00    -0.042 A 
ATOM     22  C   UNL     1       2.697  -1.637  24.180  0.00  0.00    +0.028 A 
ATOM     23  C   UNL     1       2.466   0.623  23.359  0.00  0.00    +0.028 A 
ATOM     24  C   UNL     1       4.077  -1.567  23.988  0.00  0.00    +0.006 A 
ATOM     25  C   UNL     1       3.846   0.694  23.168  0.00  0.00    +0.006 A 
BRANCH  19  16
ATOM     16  C   UNL     1       6.126  -0.324  23.277  0.00  0.00    -0.013 C 
ATOM     26  C   UNL     1       6.878  -1.332  24.200  0.00  0.00    +0.015 C 
ATOM     27  C   UNL     1       6.670   1.103  23.598  0.00  0.00    +0.015 C 
ATOM     28  C   UNL     1       6.620  -0.641  21.826  0.00  0.00    +0.015 C 
ENDBRANCH  19  16
ENDBRANCH   5  17
BRANCH  11   8
ATOM      8  C   UNL     1      -2.859   0.603  24.827  0.00  0.00    +0.047 C 
ATOM      9  C   UNL     1      -3.655   1.058  23.586  0.00  0.00    +0.039 C 
ATOM     10  C   UNL     1      -5.135   0.928  23.968  0.00  0.00    +0.097 C 
ATOM     12  C   UNL     1      -3.863  -0.232  25.566  0.00  0.00    -0.021 C 
ATOM     13  C   UNL     1      -5.102  -0.047  25.098  0.00  0.00    -0.009 C 
BRANCH  10   6
ATOM      1  O   UNL     1      -6.150   1.504  26.616  0.00  0.00    -0.273 OA
ATOM      6  N   UNL     1      -5.700   2.168  24.431  0.00  0.00    -0.307 N 
ATOM     21  C   UNL     1      -6.165   2.353  25.729  0.00  0.00    +0.239 C 
ATOM     32  H   UNL     1      -5.799   2.932  23.768  0.00  0.00    +0.149 HD
BRANCH  21  29
ATOM     29  C   UNL     1      -6.706   3.751  25.942  0.00  0.00    +0.256 C 
BRANCH  29   2
ATOM      2  O   UNL     1      -5.689   4.711  25.758  0.00  0.00    -0.359 OA
BRANCH   2  30
ATOM     30  C   UNL     1      -4.422   4.237  26.206  0.00  0.00    +0.280 C 
BRANCH  30  31
ATOM      4  O   UNL     1      -3.654   4.292  23.902  0.00  0.00    -0.248 OA
ATOM     31  C   UNL     1      -3.412   4.356  25.097  0.00  0.00    +0.331 C 
BRANCH  31   3
ATOM      3  O   UNL     1      -2.172   4.547  25.613  0.00  0.00    -0.479 OA
ATOM     33  H   UNL     1      -1.703   5.288  25.172  0.00  0.00    +0.295 HD
ENDBRANCH  31   3
ENDBRANCH  30  31
ENDBRANCH   2  30
ENDBRANCH  29   2
ENDBRANCH  21  29
ENDBRANCH  10   6
ENDBRANCH  11   8
TORSDOF 9
ENDMDL
MODEL 3
REMARK VINA RESULT:      11.8      5.504     10.620
REMARK  Name = 40777712
REMARK  14 active torsions:
REMARK  status: ('A' for Active; 'I' for Inactive)
REMARK    1  A    between atoms: O_2  and  C_29
REMARK    2  A    between atoms: O_2  and  C_30
REMARK    3  A    between atoms: O_3  and  C_31
REMARK    4  A    between atoms: N_5  and  C_17
REMARK    5  A    between atoms: N_6  and  C_10
REMARK    6  A    between atoms: C_8  and  C_11
REMARK    7  A    between atoms: C_14  and  C_18
REMARK    8  A    between atoms: C_15  and  C_20
REMARK    9  A    between atoms: C_16  and  C_19
REMARK   10  A    between atoms: C_16  and  C_26
REMARK   11  A    between atoms: C_16  and  C_27
REMARK   12  A    between atoms: C_16  and  C_28
REMARK   13  A    between atoms: C_21  and  C_29
REMARK   14  A    between atoms: C_30  and  C_31
REMARK                            x       y       z     vdW  Elec       q    Type
REMARK                         _______ _______ _______ _____ _____    ______ ____
ROOT
ATOM      5  N   UNL     1      -0.533   0.800  23.509  0.00  0.00    -0.236 N 
ATOM      7  N   UNL     1      -0.451  -0.209  22.623  0.00  0.00    -0.171 NA
ATOM     11  C   UNL     1       1.609   0.652  23.107  0.00  0.00    +0.003 A 
ATOM     14  C   UNL     1       0.672   1.348  23.833  0.00  0.00    +0.046 A 
ATOM     15  C   UNL     1       0.860  -0.293  22.382  0.00  0.00    +0.064 A 
ATOM     18  C   UNL     1       0.825   2.468  24.784  0.00  0.00    +0.066 C 
ATOM     20  C   UNL     1       1.357  -1.308  21.436  0.00  0.00    +0.068 C 
ENDROOT
BRANCH   5  17
ATOM     17  C   UNL     1      -1.779   1.185  24.004  0.00  0.00    +0.066 A 
ATOM     19  C   UNL     1      -4.267   1.956  25.004  0.00  0.00    -0.042 A 
ATOM     22  C   UNL     1      -2.283   2.455  23.720  0.00  0.00    +0.028 A 
ATOM     23  C   UNL     1      -2.520   0.301  24.789  0.00  0.00    +0.028 A 
ATOM     24  C   UNL     1      -3.527   2.840  24.219  0.00  0.00    +0.006 A 
ATOM     25  C   UNL     1      -3.764   0.687  25.289  0.00  0.00    +0.006 A 
BRANCH  19  16
ATOM     16  C   UNL     1      -5.597   2.368  25.537  0.00  0.00    -0.013 C 
ATOM     26  C   UNL     1      -6.756   1.859  24.626  0.00  0.00    +0.015 C 
ATOM     27  C   UNL     1      -5.715   3.922  25.624  0.00  0.00    +0.015 C 
ATOM     28  C   UNL     1      -5.937   1.844  26.973  0.00  0.00    +0.015 C 
ENDBRANCH  19  16
ENDBRANCH   5  17
BRANCH  11   8
ATOM      8  C   UNL     1       3.106   0.858  23.094  0.00  0.00    +0.047 C 
ATOM      9  C   UNL     1       3.877  -0.226  23.876  0.00  0.00    +0.039 C 
ATOM     10  C   UNL     1       5.195  -0.430  23.119  0.00  0.00    +0.097 C 
ATOM     12  C   UNL     1       3.738   0.786  21.735  0.00  0.00    -0.021 C 
ATOM     13  C   UNL     1       4.878   0.087  21.755  0.00  0.00    -0.009 C 
BRANCH  10   6
ATOM      1  O   UNL     1       8.003  -0.640  22.453  0.00  0.00    -0.273 OA
ATOM      6  N   UNL     1       6.280   0.337  23.674  0.00  0.00    -0.307 N 
ATOM     21  C   UNL     1       7.606   0.165  23.291  0.00  0.00    +0.239 C 
ATOM     32  H   UNL     1       6.071   1.009  24.407  0.00  0.00    +0.149 HD
BRANCH  21  29
ATOM     29  C   UNL     1       8.534   1.102  24.032  0.00  0.00    +0.256 C 
BRANCH  29   2
ATOM      2  O   UNL     1       9.683   1.379  23.261  0.00  0.00    -0.359 OA
BRANCH   2  30
ATOM     30  C   UNL     1       9.869   2.779  23.069  0.00  0.00    +0.280 C 
BRANCH  30  31
ATOM      4  O   UNL     1      10.610   2.189  20.831  0.00  0.00    -0.248 OA
ATOM     31  C   UNL     1      10.396   3.037  21.684  0.00  0.00    +0.331 C 
BRANCH  31   3
ATOM      3  O   UNL     1      10.607   4.365  21.504  0.00  0.00    -0.479 OA
ATOM     33  H   UNL     1      10.317   4.890  22.280  0.00  0.00    +0.295 HD
ENDBRANCH  31   3
ENDBRANCH  30  31
ENDBRANCH   2  30
ENDBRANCH  29   2
ENDBRANCH  21  29
ENDBRANCH  10   6
ENDBRANCH  11   8
TORSDOF 9
ENDMDL
