MODEL 1
REMARK VINA RESULT:      -7.5      0.000      0.000
REMARK  Name = 28962876
REMARK  7 active torsions:
REMARK  status: ('A' for Active; 'I' for Inactive)
REMARK    1  A    between atoms: O_4  and  C_22
REMARK    2  A    between atoms: O_4  and  C_23
REMARK    3  A    between atoms: N_5  and  C_14
REMARK    4  A    between atoms: C_7  and  C_17
REMARK    5  A    between atoms: C_10  and  C_18
REMARK    6  A    between atoms: C_16  and  C_20
REMARK    7  A    between atoms: C_21  and  C_22
REMARK                            x       y       z     vdW  Elec       q    Type
REMARK                         _______ _______ _______ _____ _____    ______ ____
ROOT
ATOM      1  O   UNL     1      -3.121   2.932  24.723  0.00  0.00    -0.461 OA
ATOM      2  O   UNL     1      -4.850   4.419  25.017  0.00  0.00    -0.251 OA
ATOM      6  C   UNL     1      -1.861   0.783  24.301  0.00  0.00    +0.041 C 
ATOM      7  C   UNL     1      -1.888  -0.724  24.758  0.00  0.00    -0.025 C 
ATOM      8  C   UNL     1      -2.911   1.571  25.106  0.00  0.00    +0.184 C 
ATOM      9  C   UNL     1      -4.291   0.980  24.876  0.00  0.00    +0.044 C 
ATOM     10  C   UNL     1      -0.414   1.366  24.313  0.00  0.00    +0.013 C 
ATOM     11  C   UNL     1      -3.335  -1.298  24.665  0.00  0.00    +0.007 C 
ATOM     12  C   UNL     1      -0.977  -1.534  23.807  0.00  0.00    +0.009 C 
ATOM     13  C   UNL     1      -4.389  -0.443  25.384  0.00  0.00    +0.008 C 
ATOM     14  C   UNL     1       0.515   0.493  23.425  0.00  0.00    +0.076 C 
ATOM     15  C   UNL     1       0.450  -1.001  23.759  0.00  0.00    +0.023 C 
ATOM     16  C   UNL     1      -5.163   2.044  25.516  0.00  0.00    +0.101 C 
ATOM     17  C   UNL     1      -1.397  -0.917  26.216  0.00  0.00    +0.011 C 
ATOM     18  C   UNL     1      -0.361   2.828  23.840  0.00  0.00    +0.010 C 
ATOM     19  C   UNL     1      -4.408   3.282  25.067  0.00  0.00    +0.311 C 
ATOM     20  C   UNL     1      -6.596   2.023  25.023  0.00  0.00    +0.019 C 
ENDROOT
BRANCH  14   5
ATOM      3  O   UNL     1       2.644  -0.090  21.555  0.00  0.00    -0.273 OA
ATOM      5  N   UNL     1       1.893   0.928  23.506  0.00  0.00    -0.310 N 
ATOM     21  C   UNL     1       2.842   0.594  22.556  0.00  0.00    +0.239 C 
ATOM     24  H   UNL     1       2.181   1.447  24.331  0.00  0.00    +0.149 HD
BRANCH  21  22
ATOM     22  C   UNL     1       4.197   1.182  22.890  0.00  0.00    +0.255 C 
BRANCH  22   4
ATOM      4  O   UNL     1       5.192   0.182  22.877  0.00  0.00    -0.374 OA
ATOM     23  C   UNL     1       5.390  -0.388  24.168  0.00  0.00    +0.194 C 
ENDBRANCH  22   4
ENDBRANCH  21  22
ENDBRANCH  14   5
TORSDOF 3
ENDMDL
