MODEL 1
REMARK VINA RESULT:       7.4      0.000      0.000
REMARK  Name = 40777250
REMARK  7 active torsions:
REMARK  status: ('A' for Active; 'I' for Inactive)
REMARK    1  A    between atoms: N_4  and  C_16
REMARK    2  A    between atoms: N_7  and  C_26
REMARK    3  A    between atoms: C_10  and  C_17
REMARK    4  A    between atoms: C_11  and  C_16
REMARK    5  A    between atoms: C_19  and  C_22
REMARK    6  A    between atoms: C_20  and  C_23
REMARK    7  A    between atoms: C_32  and  C_35
REMARK                            x       y       z     vdW  Elec       q    Type
REMARK                         _______ _______ _______ _____ _____    ______ ____
ROOT
ATOM      3  N   UNL     1      -4.566   3.239  25.801  0.00  0.00    -0.297 NA
ATOM      9  C   UNL     1      -5.310   1.374  24.142  0.00  0.00    +0.002 C 
ATOM     10  C   UNL     1      -4.367   0.790  25.231  0.00  0.00    +0.055 C 
ATOM     11  C   UNL     1      -4.355   3.690  24.401  0.00  0.00    +0.074 C 
ATOM     12  C   UNL     1      -4.593   2.528  23.412  0.00  0.00    +0.024 C 
ATOM     13  C   UNL     1      -6.518   1.986  24.884  0.00  0.00    +0.019 C 
ATOM     14  C   UNL     1      -3.810   1.987  26.052  0.00  0.00    +0.094 C 
ATOM     15  C   UNL     1      -6.010   2.948  25.971  0.00  0.00    +0.085 C 
ENDROOT
BRANCH  10  17
ATOM      5  N   UNL     1      -3.547  -1.487  24.870  0.00  0.00    -0.237 NA
ATOM      6  N   UNL     1      -1.339  -1.936  24.018  0.00  0.00    -0.232 NA
ATOM     17  C   UNL     1      -3.270  -0.169  24.790  0.00  0.00    +0.050 A 
ATOM     18  C   UNL     1      -2.066   0.335  24.341  0.00  0.00    +0.052 A 
ATOM     19  C   UNL     1      -1.128  -0.605  23.964  0.00  0.00    +0.075 A 
ATOM     20  C   UNL     1      -2.552  -2.302  24.474  0.00  0.00    +0.127 A 
ATOM     23  C   UNL     1      -2.820  -3.767  24.549  0.00  0.00    +0.088 C 
BRANCH  19  22
ATOM      1  F   UNL     1       3.888   0.932  22.086  0.00  0.00    -0.205 F 
ATOM     22  C   UNL     1       0.171  -0.207  23.477  0.00  0.00    +0.001 A 
ATOM     24  C   UNL     1       0.841   0.861  24.072  0.00  0.00    +0.013 A 
ATOM     25  C   UNL     1       0.757  -0.892  22.412  0.00  0.00    +0.013 A 
ATOM     27  C   UNL     1       2.097   1.246  23.602  0.00  0.00    +0.039 A 
ATOM     28  C   UNL     1       2.012  -0.507  21.942  0.00  0.00    +0.039 A 
ATOM     29  C   UNL     1       2.682   0.562  22.537  0.00  0.00    +0.123 A 
ENDBRANCH  19  22
ENDBRANCH  10  17
BRANCH  11  16
ATOM     16  C   UNL     1      -2.983   4.338  24.198  0.00  0.00    +0.124 C 
BRANCH  16   4
ATOM      2  O   UNL     1      -1.484   4.844  26.586  0.00  0.00    -0.253 OA
ATOM      4  N   UNL     1      -1.947   3.520  24.746  0.00  0.00    -0.298 N 
ATOM      7  N   UNL     1      -0.298   2.852  26.216  0.00  0.00    -0.269 N 
ATOM     21  C   UNL     1      -1.251   3.832  25.929  0.00  0.00    +0.304 C 
ATOM     36  H   UNL     1      -1.696   2.668  24.253  0.00  0.00    +0.150 HD
ATOM     37  H   UNL     1      -0.232   2.074  25.565  0.00  0.00    +0.156 HD
BRANCH   7  26
ATOM     26  C   UNL     1       0.596   2.806  27.312  0.00  0.00    +0.036 A 
ATOM     30  C   UNL     1       0.103   2.667  28.610  0.00  0.00    +0.042 A 
ATOM     31  C   UNL     1       1.971   2.896  27.095  0.00  0.00    +0.023 A 
ATOM     32  C   UNL     1       0.985   2.620  29.690  0.00  0.00    +0.054 A 
ATOM     33  C   UNL     1       2.852   2.848  28.175  0.00  0.00    +0.003 A 
ATOM     34  C   UNL     1       2.360   2.711  29.472  0.00  0.00    +0.019 A 
BRANCH  32  35
ATOM      8  N   UNL     1       0.070   2.361  32.098  0.00  0.00    -0.191 NA
ATOM     35  C   UNL     1       0.480   2.478  31.018  0.00  0.00    +0.099 C 
ENDBRANCH  32  35
ENDBRANCH   7  26
ENDBRANCH  16   4
ENDBRANCH  11  16
TORSDOF 6
ENDMDL
MODEL 2
REMARK VINA RESULT:       7.6      2.702      5.941
REMARK  Name = 40777250
REMARK  7 active torsions:
REMARK  status: ('A' for Active; 'I' for Inactive)
REMARK    1  A    between atoms: N_4  and  C_16
REMARK    2  A    between atoms: N_7  and  C_26
REMARK    3  A    between atoms: C_10  and  C_17
REMARK    4  A    between atoms: C_11  and  C_16
REMARK    5  A    between atoms: C_19  and  C_22
REMARK    6  A    between atoms: C_20  and  C_23
REMARK    7  A    between atoms: C_32  and  C_35
REMARK                            x       y       z     vdW  Elec       q    Type
REMARK                         _______ _______ _______ _____ _____    ______ ____
ROOT
ATOM      3  N   UNL     1      -4.128  -0.689  23.743  0.00  0.00    -0.297 NA
ATOM      9  C   UNL     1      -4.170   0.953  25.765  0.00  0.00    +0.002 C 
ATOM     10  C   UNL     1      -3.409   1.585  24.566  0.00  0.00    +0.055 C 
ATOM     11  C   UNL     1      -3.688  -1.390  24.978  0.00  0.00    +0.074 C 
ATOM     12  C   UNL     1      -3.507  -0.389  26.139  0.00  0.00    +0.024 C 
ATOM     13  C   UNL     1      -5.596   0.633  25.267  0.00  0.00    +0.019 C 
ATOM     14  C   UNL     1      -3.252   0.480  23.483  0.00  0.00    +0.094 C 
ATOM     15  C   UNL     1      -5.506  -0.191  23.971  0.00  0.00    +0.085 C 
ENDROOT
BRANCH  10  17
ATOM      5  N   UNL     1      -1.648   3.142  23.887  0.00  0.00    -0.237 NA
ATOM      6  N   UNL     1       0.245   3.632  25.294  0.00  0.00    -0.232 NA
ATOM     17  C   UNL     1      -2.100   2.309  24.847  0.00  0.00    +0.050 A 
ATOM     18  C   UNL     1      -1.443   2.088  26.041  0.00  0.00    +0.052 A 
ATOM     19  C   UNL     1      -0.264   2.784  26.212  0.00  0.00    +0.075 A 
ATOM     20  C   UNL     1      -0.487   3.762  24.172  0.00  0.00    +0.127 A 
ATOM     23  C   UNL     1       0.045   4.689  23.133  0.00  0.00    +0.088 C 
BRANCH  19  22
ATOM      1  F   UNL     1       2.755   2.230  30.862  0.00  0.00    -0.205 F 
ATOM     22  C   UNL     1       0.518   2.640  27.417  0.00  0.00    +0.001 A 
ATOM     24  C   UNL     1      -0.110   2.335  28.624  0.00  0.00    +0.013 A 
ATOM     25  C   UNL     1       1.903   2.807  27.374  0.00  0.00    +0.013 A 
ATOM     27  C   UNL     1       0.645   2.196  29.788  0.00  0.00    +0.039 A 
ATOM     28  C   UNL     1       2.658   2.669  28.538  0.00  0.00    +0.039 A 
ATOM     29  C   UNL     1       2.030   2.363  29.745  0.00  0.00    +0.123 A 
ENDBRANCH  19  22
ENDBRANCH  10  17
BRANCH  11  16
ATOM     16  C   UNL     1      -2.430  -2.233  24.752  0.00  0.00    +0.124 C 
BRANCH  16   4
ATOM      2  O   UNL     1       0.267  -1.486  25.364  0.00  0.00    -0.253 OA
ATOM      4  N   UNL     1      -1.513  -1.558  23.887  0.00  0.00    -0.298 N 
ATOM      7  N   UNL     1       0.461  -0.572  23.210  0.00  0.00    -0.269 N 
ATOM     21  C   UNL     1      -0.197  -1.223  24.257  0.00  0.00    +0.304 C 
ATOM     36  H   UNL     1      -1.828  -1.304  22.956  0.00  0.00    +0.150 HD
ATOM     37  H   UNL     1      -0.070  -0.431  22.355  0.00  0.00    +0.156 HD
BRANCH   7  26
ATOM     26  C   UNL     1       1.787  -0.080  23.192  0.00  0.00    +0.036 A 
ATOM     30  C   UNL     1       2.852  -0.931  23.486  0.00  0.00    +0.042 A 
ATOM     31  C   UNL     1       2.031   1.257  22.876  0.00  0.00    +0.023 A 
ATOM     32  C   UNL     1       4.160  -0.446  23.467  0.00  0.00    +0.054 A 
ATOM     33  C   UNL     1       3.338   1.742  22.855  0.00  0.00    +0.003 A 
ATOM     34  C   UNL     1       4.402   0.891  23.151  0.00  0.00    +0.019 A 
BRANCH  32  35
ATOM      8  N   UNL     1       6.137  -2.025  24.014  0.00  0.00    -0.191 NA
ATOM     35  C   UNL     1       5.250  -1.318  23.768  0.00  0.00    +0.099 C 
ENDBRANCH  32  35
ENDBRANCH   7  26
ENDBRANCH  16   4
ENDBRANCH  11  16
TORSDOF 6
ENDMDL
MODEL 3
REMARK VINA RESULT:       8.1      2.631      5.976
REMARK  Name = 40777250
REMARK  7 active torsions:
REMARK  status: ('A' for Active; 'I' for Inactive)
REMARK    1  A    between atoms: N_4  and  C_16
REMARK    2  A    between atoms: N_7  and  C_26
REMARK    3  A    between atoms: C_10  and  C_17
REMARK    4  A    between atoms: C_11  and  C_16
REMARK    5  A    between atoms: C_19  and  C_22
REMARK    6  A    between atoms: C_20  and  C_23
REMARK    7  A    between atoms: C_32  and  C_35
REMARK                            x       y       z     vdW  Elec       q    Type
REMARK                         _______ _______ _______ _____ _____    ______ ____
ROOT
ATOM      3  N   UNL     1      -4.526  -0.203  24.141  0.00  0.00    -0.297 NA
ATOM      9  C   UNL     1      -4.561   1.882  25.702  0.00  0.00    +0.002 C 
ATOM     10  C   UNL     1      -3.595   2.113  24.507  0.00  0.00    +0.055 C 
ATOM     11  C   UNL     1      -4.323  -0.621  25.554  0.00  0.00    +0.074 C 
ATOM     12  C   UNL     1      -4.134   0.611  26.465  0.00  0.00    +0.024 C 
ATOM     13  C   UNL     1      -5.955   1.604  25.100  0.00  0.00    +0.019 C 
ATOM     14  C   UNL     1      -3.474   0.765  23.742  0.00  0.00    +0.094 C 
ATOM     15  C   UNL     1      -5.839   0.481  24.055  0.00  0.00    +0.085 C 
ENDROOT
BRANCH  10  17
ATOM      5  N   UNL     1      -1.742   3.571  23.852  0.00  0.00    -0.237 NA
ATOM      6  N   UNL     1       0.197   3.888  25.246  0.00  0.00    -0.232 NA
ATOM     17  C   UNL     1      -2.237   2.739  24.792  0.00  0.00    +0.050 A 
ATOM     18  C   UNL     1      -1.581   2.436  25.968  0.00  0.00    +0.052 A 
ATOM     19  C   UNL     1      -0.356   3.047  26.144  0.00  0.00    +0.075 A 
ATOM     20  C   UNL     1      -0.540   4.103  24.139  0.00  0.00    +0.127 A 
ATOM     23  C   UNL     1       0.041   5.027  23.123  0.00  0.00    +0.088 C 
BRANCH  19  22
ATOM      1  F   UNL     1       2.679   2.138  30.728  0.00  0.00    -0.205 F 
ATOM     22  C   UNL     1       0.430   2.812  27.332  0.00  0.00    +0.001 A 
ATOM     24  C   UNL     1       1.813   2.982  27.297  0.00  0.00    +0.013 A 
ATOM     25  C   UNL     1      -0.195   2.414  28.514  0.00  0.00    +0.013 A 
ATOM     27  C   UNL     1       2.573   2.755  28.444  0.00  0.00    +0.039 A 
ATOM     28  C   UNL     1       0.565   2.186  29.661  0.00  0.00    +0.039 A 
ATOM     29  C   UNL     1       1.949   2.357  29.627  0.00  0.00    +0.123 A 
ENDBRANCH  19  22
ENDBRANCH  10  17
BRANCH  11  16
ATOM     16  C   UNL     1      -3.177  -1.623  25.705  0.00  0.00    +0.124 C 
BRANCH  16   4
ATOM      2  O   UNL     1      -1.498  -1.816  23.392  0.00  0.00    -0.253 OA
ATOM      4  N   UNL     1      -1.912  -0.985  25.511  0.00  0.00    -0.298 N 
ATOM      7  N   UNL     1       0.043  -0.388  24.440  0.00  0.00    -0.269 N 
ATOM     21  C   UNL     1      -1.140  -1.125  24.343  0.00  0.00    +0.304 C 
ATOM     36  H   UNL     1      -1.549  -0.401  26.259  0.00  0.00    +0.150 HD
ATOM     37  H   UNL     1       0.187   0.132  25.301  0.00  0.00    +0.156 HD
BRANCH   7  26
ATOM     26  C   UNL     1       1.074  -0.273  23.478  0.00  0.00    +0.036 A 
ATOM     30  C   UNL     1       2.385  -0.028  23.887  0.00  0.00    +0.042 A 
ATOM     31  C   UNL     1       0.780  -0.407  22.121  0.00  0.00    +0.023 A 
ATOM     32  C   UNL     1       3.402   0.085  22.938  0.00  0.00    +0.054 A 
ATOM     33  C   UNL     1       1.797  -0.295  21.173  0.00  0.00    +0.003 A 
ATOM     34  C   UNL     1       3.108  -0.049  21.581  0.00  0.00    +0.019 A 
BRANCH  32  35
ATOM      8  N   UNL     1       5.836   0.538  23.695  0.00  0.00    -0.191 NA
ATOM     35  C   UNL     1       4.745   0.335  23.356  0.00  0.00    +0.099 C 
ENDBRANCH  32  35
ENDBRANCH   7  26
ENDBRANCH  16   4
ENDBRANCH  11  16
TORSDOF 6
ENDMDL
MODEL 4
REMARK VINA RESULT:       8.3      2.841      5.208
REMARK  Name = 40777250
REMARK  7 active torsions:
REMARK  status: ('A' for Active; 'I' for Inactive)
REMARK    1  A    between atoms: N_4  and  C_16
REMARK    2  A    between atoms: N_7  and  C_26
REMARK    3  A    between atoms: C_10  and  C_17
REMARK    4  A    between atoms: C_11  and  C_16
REMARK    5  A    between atoms: C_19  and  C_22
REMARK    6  A    between atoms: C_20  and  C_23
REMARK    7  A    between atoms: C_32  and  C_35
REMARK                            x       y       z     vdW  Elec       q    Type
REMARK                         _______ _______ _______ _____ _____    ______ ____
ROOT
ATOM      3  N   UNL     1      -4.165   4.716  23.824  0.00  0.00    -0.297 NA
ATOM      9  C   UNL     1      -2.081   4.934  25.371  0.00  0.00    +0.002 C 
ATOM     10  C   UNL     1      -1.783   3.969  24.190  0.00  0.00    +0.055 C 
ATOM     11  C   UNL     1      -4.559   4.505  25.242  0.00  0.00    +0.074 C 
ATOM     12  C   UNL     1      -3.313   4.425  26.149  0.00  0.00    +0.024 C 
ATOM     13  C   UNL     1      -2.467   6.293  24.748  0.00  0.00    +0.019 C 
ATOM     14  C   UNL     1      -3.122   3.734  23.435  0.00  0.00    +0.094 C 
ATOM     15  C   UNL     1      -3.584   6.076  23.712  0.00  0.00    +0.085 C 
ENDROOT
BRANCH  10  17
ATOM      5  N   UNL     1      -1.649   1.828  25.366  0.00  0.00    -0.237 NA
ATOM      6  N   UNL     1       0.207   0.319  25.078  0.00  0.00    -0.232 NA
ATOM     17  C   UNL     1      -1.055   2.667  24.493  0.00  0.00    +0.050 A 
ATOM     18  C   UNL     1       0.154   2.406  23.880  0.00  0.00    +0.052 A 
ATOM     19  C   UNL     1       0.745   1.204  24.213  0.00  0.00    +0.075 A 
ATOM     20  C   UNL     1      -0.974   0.689  25.609  0.00  0.00    +0.127 A 
ATOM     23  C   UNL     1      -1.598  -0.263  26.571  0.00  0.00    +0.088 C 
BRANCH  19  22
ATOM      1  F   UNL     1       5.634  -0.307  22.009  0.00  0.00    -0.205 F 
ATOM     22  C   UNL     1       2.011   0.812  23.642  0.00  0.00    +0.001 A 
ATOM     24  C   UNL     1       2.377  -0.533  23.612  0.00  0.00    +0.013 A 
ATOM     25  C   UNL     1       2.870   1.780  23.119  0.00  0.00    +0.013 A 
ATOM     27  C   UNL     1       3.601  -0.911  23.061  0.00  0.00    +0.039 A 
ATOM     28  C   UNL     1       4.094   1.402  22.568  0.00  0.00    +0.039 A 
ATOM     29  C   UNL     1       4.459   0.056  22.538  0.00  0.00    +0.123 A 
ENDBRANCH  19  22
ENDBRANCH  10  17
BRANCH  11  16
ATOM     16  C   UNL     1      -5.471   3.289  25.418  0.00  0.00    +0.124 C 
BRANCH  16   4
ATOM      2  O   UNL     1      -4.557   0.688  26.195  0.00  0.00    -0.253 OA
ATOM      4  N   UNL     1      -5.077   2.225  24.547  0.00  0.00    -0.298 N 
ATOM      7  N   UNL     1      -4.321   0.135  23.926  0.00  0.00    -0.269 N 
ATOM     21  C   UNL     1      -4.637   0.968  25.002  0.00  0.00    +0.304 C 
ATOM     36  H   UNL     1      -5.113   2.387  23.545  0.00  0.00    +0.150 HD
ATOM     37  H   UNL     1      -4.444   0.525  22.995  0.00  0.00    +0.156 HD
BRANCH   7  26
ATOM     26  C   UNL     1      -3.847  -1.197  23.970  0.00  0.00    +0.036 A 
ATOM     30  C   UNL     1      -2.558  -1.465  24.429  0.00  0.00    +0.042 A 
ATOM     31  C   UNL     1      -4.672  -2.244  23.556  0.00  0.00    +0.023 A 
ATOM     32  C   UNL     1      -2.092  -2.780  24.473  0.00  0.00    +0.054 A 
ATOM     33  C   UNL     1      -4.206  -3.558  23.601  0.00  0.00    +0.003 A 
ATOM     34  C   UNL     1      -2.916  -3.826  24.059  0.00  0.00    +0.019 A 
BRANCH  32  35
ATOM      8  N   UNL     1       0.301  -3.276  25.327  0.00  0.00    -0.191 NA
ATOM     35  C   UNL     1      -0.772  -3.054  24.944  0.00  0.00    +0.099 C 
ENDBRANCH  32  35
ENDBRANCH   7  26
ENDBRANCH  16   4
ENDBRANCH  11  16
TORSDOF 6
ENDMDL
MODEL 5
REMARK VINA RESULT:       9.2      2.476      5.861
REMARK  Name = 40777250
REMARK  7 active torsions:
REMARK  status: ('A' for Active; 'I' for Inactive)
REMARK    1  A    between atoms: N_4  and  C_16
REMARK    2  A    between atoms: N_7  and  C_26
REMARK    3  A    between atoms: C_10  and  C_17
REMARK    4  A    between atoms: C_11  and  C_16
REMARK    5  A    between atoms: C_19  and  C_22
REMARK    6  A    between atoms: C_20  and  C_23
REMARK    7  A    between atoms: C_32  and  C_35
REMARK                            x       y       z     vdW  Elec       q    Type
REMARK                         _______ _______ _______ _____ _____    ______ ____
ROOT
ATOM      3  N   UNL     1      -4.660   4.317  23.756  0.00  0.00    -0.297 NA
ATOM      9  C   UNL     1      -2.430   5.377  24.585  0.00  0.00    +0.002 C 
ATOM     10  C   UNL     1      -2.149   4.077  23.781  0.00  0.00    +0.055 C 
ATOM     11  C   UNL     1      -4.750   4.621  25.208  0.00  0.00    +0.074 C 
ATOM     12  C   UNL     1      -3.375   5.055  25.761  0.00  0.00    +0.024 C 
ATOM     13  C   UNL     1      -3.191   6.330  23.638  0.00  0.00    +0.019 C 
ATOM     14  C   UNL     1      -3.521   3.402  23.498  0.00  0.00    +0.094 C 
ATOM     15  C   UNL     1      -4.400   5.590  23.041  0.00  0.00    +0.085 C 
ENDROOT
BRANCH  10  17
ATOM      5  N   UNL     1      -0.738   2.096  23.519  0.00  0.00    -0.237 NA
ATOM      6  N   UNL     1       0.704   1.304  25.279  0.00  0.00    -0.232 NA
ATOM     17  C   UNL     1      -1.126   3.096  24.336  0.00  0.00    +0.050 A 
ATOM     18  C   UNL     1      -0.650   3.264  25.621  0.00  0.00    +0.052 A 
ATOM     19  C   UNL     1       0.273   2.329  26.043  0.00  0.00    +0.075 A 
ATOM     20  C   UNL     1       0.166   1.249  24.046  0.00  0.00    +0.127 A 
ATOM     23  C   UNL     1       0.618   0.128  23.173  0.00  0.00    +0.088 C 
BRANCH  19  22
ATOM      1  F   UNL     1       2.485   2.571  31.152  0.00  0.00    -0.205 F 
ATOM     22  C   UNL     1       0.846   2.392  27.367  0.00  0.00    +0.001 A 
ATOM     24  C   UNL     1       2.174   2.780  27.534  0.00  0.00    +0.013 A 
ATOM     25  C   UNL     1       0.070   2.064  28.479  0.00  0.00    +0.013 A 
ATOM     27  C   UNL     1       2.728   2.841  28.812  0.00  0.00    +0.039 A 
ATOM     28  C   UNL     1       0.624   2.125  29.758  0.00  0.00    +0.039 A 
ATOM     29  C   UNL     1       1.953   2.513  29.924  0.00  0.00    +0.123 A 
ENDBRANCH  19  22
ENDBRANCH  10  17
BRANCH  11  16
ATOM     16  C   UNL     1      -5.346   3.462  26.010  0.00  0.00    +0.124 C 
BRANCH  16   4
ATOM      2  O   UNL     1      -3.460   1.312  26.176  0.00  0.00    -0.253 OA
ATOM      4  N   UNL     1      -5.352   2.258  25.239  0.00  0.00    -0.298 N 
ATOM      7  N   UNL     1      -4.650   0.190  24.493  0.00  0.00    -0.269 N 
ATOM     21  C   UNL     1      -4.389   1.241  25.376  0.00  0.00    +0.304 C 
ATOM     36  H   UNL     1      -6.089   2.131  24.552  0.00  0.00    +0.150 HD
ATOM     37  H   UNL     1      -5.465   0.289  23.893  0.00  0.00    +0.156 HD
BRANCH   7  26
ATOM     26  C   UNL     1      -3.916  -1.008  24.328  0.00  0.00    +0.036 A 
ATOM     30  C   UNL     1      -2.617  -1.105  24.826  0.00  0.00    +0.042 A 
ATOM     31  C   UNL     1      -4.493  -2.095  23.669  0.00  0.00    +0.023 A 
ATOM     32  C   UNL     1      -1.894  -2.287  24.664  0.00  0.00    +0.054 A 
ATOM     33  C   UNL     1      -3.770  -3.276  23.508  0.00  0.00    +0.003 A 
ATOM     34  C   UNL     1      -2.471  -3.373  24.005  0.00  0.00    +0.019 A 
BRANCH  32  35
ATOM      8  N   UNL     1       0.517  -2.468  25.590  0.00  0.00    -0.191 NA
ATOM     35  C   UNL     1      -0.563  -2.387  25.174  0.00  0.00    +0.099 C 
ENDBRANCH  32  35
ENDBRANCH   7  26
ENDBRANCH  16   4
ENDBRANCH  11  16
TORSDOF 6
ENDMDL
MODEL 6
REMARK VINA RESULT:       9.7      3.343      6.195
REMARK  Name = 40777250
REMARK  7 active torsions:
REMARK  status: ('A' for Active; 'I' for Inactive)
REMARK    1  A    between atoms: N_4  and  C_16
REMARK    2  A    between atoms: N_7  and  C_26
REMARK    3  A    between atoms: C_10  and  C_17
REMARK    4  A    between atoms: C_11  and  C_16
REMARK    5  A    between atoms: C_19  and  C_22
REMARK    6  A    between atoms: C_20  and  C_23
REMARK    7  A    between atoms: C_32  and  C_35
REMARK                            x       y       z     vdW  Elec       q    Type
REMARK                         _______ _______ _______ _____ _____    ______ ____
ROOT
ATOM      3  N   UNL     1      -2.328  -2.764  23.641  0.00  0.00    -0.297 NA
ATOM      9  C   UNL     1      -4.733  -2.135  24.422  0.00  0.00    +0.002 C 
ATOM     10  C   UNL     1      -4.063  -0.933  23.700  0.00  0.00    +0.055 C 
ATOM     11  C   UNL     1      -2.510  -3.125  25.072  0.00  0.00    +0.074 C 
ATOM     12  C   UNL     1      -3.849  -2.575  25.608  0.00  0.00    +0.024 C 
ATOM     13  C   UNL     1      -4.753  -3.304  23.413  0.00  0.00    +0.019 C 
ATOM     14  C   UNL     1      -2.576  -1.313  23.448  0.00  0.00    +0.094 C 
ATOM     15  C   UNL     1      -3.336  -3.513  22.853  0.00  0.00    +0.085 C 
ENDROOT
BRANCH  10  17
ATOM      5  N   UNL     1      -5.385   0.725  24.920  0.00  0.00    -0.237 NA
ATOM      6  N   UNL     1      -4.527   2.913  25.451  0.00  0.00    -0.232 NA
ATOM     17  C   UNL     1      -4.208   0.449  24.322  0.00  0.00    +0.050 A 
ATOM     18  C   UNL     1      -3.158   1.342  24.248  0.00  0.00    +0.052 A 
ATOM     19  C   UNL     1      -3.376   2.571  24.837  0.00  0.00    +0.075 A 
ATOM     20  C   UNL     1      -5.475   1.957  25.456  0.00  0.00    +0.127 A 
ATOM     23  C   UNL     1      -6.763   2.300  26.125  0.00  0.00    +0.088 C 
BRANCH  19  22
ATOM      1  F   UNL     1       0.558   6.517  24.801  0.00  0.00    -0.205 F 
ATOM     22  C   UNL     1      -2.357   3.593  24.827  0.00  0.00    +0.001 A 
ATOM     24  C   UNL     1      -1.038   3.260  24.523  0.00  0.00    +0.013 A 
ATOM     25  C   UNL     1      -2.692   4.915  25.122  0.00  0.00    +0.013 A 
ATOM     27  C   UNL     1      -0.053   4.247  24.514  0.00  0.00    +0.039 A 
ATOM     28  C   UNL     1      -1.707   5.902  25.113  0.00  0.00    +0.039 A 
ATOM     29  C   UNL     1      -0.388   5.569  24.809  0.00  0.00    +0.123 A 
ENDBRANCH  19  22
ENDBRANCH  10  17
BRANCH  11  16
ATOM     16  C   UNL     1      -1.326  -2.686  25.938  0.00  0.00    +0.124 C 
BRANCH  16   4
ATOM      2  O   UNL     1       0.053  -0.293  25.179  0.00  0.00    -0.253 OA
ATOM      4  N   UNL     1      -0.129  -2.600  25.160  0.00  0.00    -0.298 N 
ATOM      7  N   UNL     1       1.642  -1.611  24.061  0.00  0.00    -0.269 N 
ATOM     21  C   UNL     1       0.495  -1.384  24.825  0.00  0.00    +0.304 C 
ATOM     36  H   UNL     1       0.291  -3.462  24.828  0.00  0.00    +0.150 HD
ATOM     37  H   UNL     1       1.869  -2.580  23.855  0.00  0.00    +0.156 HD
BRANCH   7  26
ATOM     26  C   UNL     1       2.537  -0.651  23.534  0.00  0.00    +0.036 A 
ATOM     30  C   UNL     1       3.914  -0.867  23.603  0.00  0.00    +0.042 A 
ATOM     31  C   UNL     1       2.044   0.513  22.942  0.00  0.00    +0.023 A 
ATOM     32  C   UNL     1       4.796   0.080  23.082  0.00  0.00    +0.054 A 
ATOM     33  C   UNL     1       2.926   1.459  22.421  0.00  0.00    +0.003 A 
ATOM     34  C   UNL     1       4.301   1.243  22.491  0.00  0.00    +0.019 A 
BRANCH  32  35
ATOM      8  N   UNL     1       7.350  -0.323  23.208  0.00  0.00    -0.191 NA
ATOM     35  C   UNL     1       6.205  -0.142  23.152  0.00  0.00    +0.099 C 
ENDBRANCH  32  35
ENDBRANCH   7  26
ENDBRANCH  16   4
ENDBRANCH  11  16
TORSDOF 6
ENDMDL
MODEL 7
REMARK VINA RESULT:      10.2      3.254      5.463
REMARK  Name = 40777250
REMARK  7 active torsions:
REMARK  status: ('A' for Active; 'I' for Inactive)
REMARK    1  A    between atoms: N_4  and  C_16
REMARK    2  A    between atoms: N_7  and  C_26
REMARK    3  A    between atoms: C_10  and  C_17
REMARK    4  A    between atoms: C_11  and  C_16
REMARK    5  A    between atoms: C_19  and  C_22
REMARK    6  A    between atoms: C_20  and  C_23
REMARK    7  A    between atoms: C_32  and  C_35
REMARK                            x       y       z     vdW  Elec       q    Type
REMARK                         _______ _______ _______ _____ _____    ______ ____
ROOT
ATOM      3  N   UNL     1      -3.671  -2.373  25.640  0.00  0.00    -0.297 NA
ATOM      9  C   UNL     1      -1.400  -3.193  24.663  0.00  0.00    +0.002 C 
ATOM     10  C   UNL     1      -1.238  -1.792  25.315  0.00  0.00    +0.055 C 
ATOM     11  C   UNL     1      -3.857  -2.832  24.239  0.00  0.00    +0.074 C 
ATOM     12  C   UNL     1      -2.494  -3.126  23.576  0.00  0.00    +0.024 C 
ATOM     13  C   UNL     1      -1.916  -4.140  25.768  0.00  0.00    +0.019 C 
ATOM     14  C   UNL     1      -2.660  -1.287  25.689  0.00  0.00    +0.094 C 
ATOM     15  C   UNL     1      -3.157  -3.518  26.429  0.00  0.00    +0.085 C 
ENDROOT
BRANCH  10  17
ATOM      5  N   UNL     1      -1.105   0.338  24.118  0.00  0.00    -0.237 NA
ATOM      6  N   UNL     1       0.964   1.175  23.213  0.00  0.00    -0.232 NA
ATOM     17  C   UNL     1      -0.430  -0.741  24.566  0.00  0.00    +0.050 A 
ATOM     18  C   UNL     1       0.924  -0.929  24.378  0.00  0.00    +0.052 A 
ATOM     19  C   UNL     1       1.577   0.072  23.688  0.00  0.00    +0.075 A 
ATOM     20  C   UNL     1      -0.358   1.243  23.459  0.00  0.00    +0.127 A 
ATOM     23  C   UNL     1      -1.070   2.448  22.946  0.00  0.00    +0.088 C 
BRANCH  19  22
ATOM      1  F   UNL     1       7.047  -0.229  22.674  0.00  0.00    -0.205 F 
ATOM     22  C   UNL     1       2.994  -0.006  23.425  0.00  0.00    +0.001 A 
ATOM     24  C   UNL     1       3.718  -1.126  23.832  0.00  0.00    +0.013 A 
ATOM     25  C   UNL     1       3.639   1.039  22.764  0.00  0.00    +0.013 A 
ATOM     27  C   UNL     1       5.087  -1.202  23.578  0.00  0.00    +0.039 A 
ATOM     28  C   UNL     1       5.008   0.964  22.511  0.00  0.00    +0.039 A 
ATOM     29  C   UNL     1       5.732  -0.156  22.917  0.00  0.00    +0.123 A 
ENDBRANCH  19  22
ENDBRANCH  10  17
BRANCH  11  16
ATOM     16  C   UNL     1      -4.693  -1.854  23.411  0.00  0.00    +0.124 C 
BRANCH  16   4
ATOM      2  O   UNL     1      -3.562   0.777  23.353  0.00  0.00    -0.253 OA
ATOM      4  N   UNL     1      -5.097  -0.733  24.201  0.00  0.00    -0.298 N 
ATOM      7  N   UNL     1      -5.095   1.430  25.006  0.00  0.00    -0.269 N 
ATOM     21  C   UNL     1      -4.493   0.536  24.118  0.00  0.00    +0.304 C 
ATOM     36  H   UNL     1      -5.858  -0.859  24.860  0.00  0.00    +0.150 HD
ATOM     37  H   UNL     1      -5.857   1.067  25.572  0.00  0.00    +0.156 HD
BRANCH   7  26
ATOM     26  C   UNL     1      -4.774   2.791  25.219  0.00  0.00    +0.036 A 
ATOM     30  C   UNL     1      -3.452   3.223  25.105  0.00  0.00    +0.042 A 
ATOM     31  C   UNL     1      -5.780   3.703  25.540  0.00  0.00    +0.023 A 
ATOM     32  C   UNL     1      -3.136   4.566  25.313  0.00  0.00    +0.054 A 
ATOM     33  C   UNL     1      -5.464   5.046  25.747  0.00  0.00    +0.003 A 
ATOM     34  C   UNL     1      -4.143   5.477  25.634  0.00  0.00    +0.019 A 
BRANCH  32  35
ATOM      8  N   UNL     1      -0.684   5.369  25.101  0.00  0.00    -0.191 NA
ATOM     35  C   UNL     1      -1.783   5.008  25.196  0.00  0.00    +0.099 C 
ENDBRANCH  32  35
ENDBRANCH   7  26
ENDBRANCH  16   4
ENDBRANCH  11  16
TORSDOF 6
ENDMDL
MODEL 8
REMARK VINA RESULT:      10.5      3.195      4.956
REMARK  Name = 40777250
REMARK  7 active torsions:
REMARK  status: ('A' for Active; 'I' for Inactive)
REMARK    1  A    between atoms: N_4  and  C_16
REMARK    2  A    between atoms: N_7  and  C_26
REMARK    3  A    between atoms: C_10  and  C_17
REMARK    4  A    between atoms: C_11  and  C_16
REMARK    5  A    between atoms: C_19  and  C_22
REMARK    6  A    between atoms: C_20  and  C_23
REMARK    7  A    between atoms: C_32  and  C_35
REMARK                            x       y       z     vdW  Elec       q    Type
REMARK                         _______ _______ _______ _____ _____    ______ ____
ROOT
ATOM      3  N   UNL     1      -3.867  -1.976  25.902  0.00  0.00    -0.297 NA
ATOM      9  C   UNL     1      -2.520  -2.825  23.840  0.00  0.00    +0.002 C 
ATOM     10  C   UNL     1      -1.637  -1.901  24.725  0.00  0.00    +0.055 C 
ATOM     11  C   UNL     1      -4.649  -1.756  24.657  0.00  0.00    +0.074 C 
ATOM     12  C   UNL     1      -3.789  -2.059  23.411  0.00  0.00    +0.024 C 
ATOM     13  C   UNL     1      -2.977  -3.995  24.738  0.00  0.00    +0.019 C 
ATOM     14  C   UNL     1      -2.560  -1.279  25.810  0.00  0.00    +0.094 C 
ATOM     15  C   UNL     1      -3.607  -3.430  26.023  0.00  0.00    +0.085 C 
ENDROOT
BRANCH  10  17
ATOM      5  N   UNL     1      -1.420   0.168  23.436  0.00  0.00    -0.237 NA
ATOM      6  N   UNL     1       0.722   1.048  22.771  0.00  0.00    -0.232 NA
ATOM     17  C   UNL     1      -0.774  -0.855  24.032  0.00  0.00    +0.050 A 
ATOM     18  C   UNL     1       0.600  -0.994  24.039  0.00  0.00    +0.052 A 
ATOM     19  C   UNL     1       1.304  -0.002  23.387  0.00  0.00    +0.075 A 
ATOM     20  C   UNL     1      -0.623   1.070  22.834  0.00  0.00    +0.127 A 
ATOM     23  C   UNL     1      -1.302   2.215  22.162  0.00  0.00    +0.088 C 
BRANCH  19  22
ATOM      1  F   UNL     1       6.869  -0.115  23.136  0.00  0.00    -0.205 F 
ATOM     22  C   UNL     1       2.745  -0.031  23.322  0.00  0.00    +0.001 A 
ATOM     24  C   UNL     1       3.439  -1.166  23.740  0.00  0.00    +0.013 A 
ATOM     25  C   UNL     1       3.444   1.076  22.840  0.00  0.00    +0.013 A 
ATOM     27  C   UNL     1       4.832  -1.195  23.678  0.00  0.00    +0.039 A 
ATOM     28  C   UNL     1       4.837   1.047  22.778  0.00  0.00    +0.039 A 
ATOM     29  C   UNL     1       5.531  -0.087  23.196  0.00  0.00    +0.123 A 
ENDBRANCH  19  22
ENDBRANCH  10  17
BRANCH  11  16
ATOM     16  C   UNL     1      -5.266  -0.356  24.596  0.00  0.00    +0.124 C 
BRANCH  16   4
ATOM      2  O   UNL     1      -4.241   2.092  23.519  0.00  0.00    -0.253 OA
ATOM      4  N   UNL     1      -4.439   0.595  25.272  0.00  0.00    -0.298 N 
ATOM      7  N   UNL     1      -3.189   2.511  25.575  0.00  0.00    -0.269 N 
ATOM     21  C   UNL     1      -3.972   1.782  24.677  0.00  0.00    +0.304 C 
ATOM     36  H   UNL     1      -4.172   0.403  26.232  0.00  0.00    +0.150 HD
ATOM     37  H   UNL     1      -3.064   2.110  26.501  0.00  0.00    +0.156 HD
BRANCH   7  26
ATOM     26  C   UNL     1      -2.543   3.750  25.356  0.00  0.00    +0.036 A 
ATOM     30  C   UNL     1      -1.500   3.841  24.434  0.00  0.00    +0.042 A 
ATOM     31  C   UNL     1      -2.952   4.884  26.060  0.00  0.00    +0.023 A 
ATOM     32  C   UNL     1      -0.864   5.064  24.218  0.00  0.00    +0.054 A 
ATOM     33  C   UNL     1      -2.317   6.106  25.843  0.00  0.00    +0.003 A 
ATOM     34  C   UNL     1      -1.273   6.197  24.923  0.00  0.00    +0.019 A 
BRANCH  32  35
ATOM      8  N   UNL     1       1.072   5.232  22.507  0.00  0.00    -0.191 NA
ATOM     35  C   UNL     1       0.204   5.158  23.275  0.00  0.00    +0.099 C 
ENDBRANCH  32  35
ENDBRANCH   7  26
ENDBRANCH  16   4
ENDBRANCH  11  16
TORSDOF 6
ENDMDL
MODEL 9
REMARK VINA RESULT:      10.7      2.483      5.702
REMARK  Name = 40777250
REMARK  7 active torsions:
REMARK  status: ('A' for Active; 'I' for Inactive)
REMARK    1  A    between atoms: N_4  and  C_16
REMARK    2  A    between atoms: N_7  and  C_26
REMARK    3  A    between atoms: C_10  and  C_17
REMARK    4  A    between atoms: C_11  and  C_16
REMARK    5  A    between atoms: C_19  and  C_22
REMARK    6  A    between atoms: C_20  and  C_23
REMARK    7  A    between atoms: C_32  and  C_35
REMARK                            x       y       z     vdW  Elec       q    Type
REMARK                         _______ _______ _______ _____ _____    ______ ____
ROOT
ATOM      3  N   UNL     1      -5.713   3.556  24.323  0.00  0.00    -0.297 NA
ATOM      9  C   UNL     1      -4.420   3.993  26.541  0.00  0.00    +0.002 C 
ATOM     10  C   UNL     1      -3.490   4.217  25.316  0.00  0.00    +0.055 C 
ATOM     11  C   UNL     1      -5.912   2.420  25.261  0.00  0.00    +0.074 C 
ATOM     12  C   UNL     1      -4.992   2.561  26.493  0.00  0.00    +0.024 C 
ATOM     13  C   UNL     1      -5.610   4.964  26.380  0.00  0.00    +0.019 C 
ATOM     14  C   UNL     1      -4.266   3.744  24.054  0.00  0.00    +0.094 C 
ATOM     15  C   UNL     1      -6.224   4.782  24.981  0.00  0.00    +0.085 C 
ENDROOT
BRANCH  10  17
ATOM      5  N   UNL     1      -1.495   3.355  24.193  0.00  0.00    -0.237 NA
ATOM      6  N   UNL     1       0.450   2.625  25.412  0.00  0.00    -0.232 NA
ATOM     17  C   UNL     1      -2.079   3.649  25.373  0.00  0.00    +0.050 A 
ATOM     18  C   UNL     1      -1.470   3.461  26.597  0.00  0.00    +0.052 A 
ATOM     19  C   UNL     1      -0.192   2.942  26.555  0.00  0.00    +0.075 A 
ATOM     20  C   UNL     1      -0.249   2.855  24.284  0.00  0.00    +0.127 A 
ATOM     23  C   UNL     1       0.429   2.515  23.000  0.00  0.00    +0.088 C 
BRANCH  19  22
ATOM      1  F   UNL     1       2.684   1.993  31.232  0.00  0.00    -0.205 F 
ATOM     22  C   UNL     1       0.553   2.697  27.767  0.00  0.00    +0.001 A 
ATOM     24  C   UNL     1       1.946   2.657  27.733  0.00  0.00    +0.013 A 
ATOM     25  C   UNL     1      -0.121   2.498  28.972  0.00  0.00    +0.013 A 
ATOM     27  C   UNL     1       2.666   2.420  28.903  0.00  0.00    +0.039 A 
ATOM     28  C   UNL     1       0.599   2.261  30.142  0.00  0.00    +0.039 A 
ATOM     29  C   UNL     1       1.992   2.221  30.108  0.00  0.00    +0.123 A 
ENDBRANCH  19  22
ENDBRANCH  10  17
BRANCH  11  16
ATOM     16  C   UNL     1      -5.741   1.062  24.576  0.00  0.00    +0.124 C 
BRANCH  16   4
ATOM      2  O   UNL     1      -3.195   0.462  23.409  0.00  0.00    -0.253 OA
ATOM      4  N   UNL     1      -4.679   0.317  25.178  0.00  0.00    -0.298 N 
ATOM      7  N   UNL     1      -2.611  -0.688  25.370  0.00  0.00    -0.269 N 
ATOM     21  C   UNL     1      -3.450   0.062  24.542  0.00  0.00    +0.304 C 
ATOM     36  H   UNL     1      -4.821  -0.051  26.113  0.00  0.00    +0.150 HD
ATOM     37  H   UNL     1      -2.978  -0.940  26.283  0.00  0.00    +0.156 HD
BRANCH   7  26
ATOM     26  C   UNL     1      -1.300  -1.143  25.093  0.00  0.00    +0.036 A 
ATOM     30  C   UNL     1      -0.554  -0.548  24.076  0.00  0.00    +0.042 A 
ATOM     31  C   UNL     1      -0.753  -2.187  25.840  0.00  0.00    +0.023 A 
ATOM     32  C   UNL     1       0.739  -0.997  23.805  0.00  0.00    +0.054 A 
ATOM     33  C   UNL     1       0.540  -2.635  25.569  0.00  0.00    +0.003 A 
ATOM     34  C   UNL     1       1.286  -2.040  24.552  0.00  0.00    +0.019 A 
BRANCH  32  35
ATOM      8  N   UNL     1       2.125   0.109  21.918  0.00  0.00    -0.191 NA
ATOM     35  C   UNL     1       1.503  -0.387  22.764  0.00  0.00    +0.099 C 
ENDBRANCH  32  35
ENDBRANCH   7  26
ENDBRANCH  16   4
ENDBRANCH  11  16
TORSDOF 6
ENDMDL
MODEL 10
REMARK VINA RESULT:      11.0      2.726      4.529
REMARK  Name = 40777250
REMARK  7 active torsions:
REMARK  status: ('A' for Active; 'I' for Inactive)
REMARK    1  A    between atoms: N_4  and  C_16
REMARK    2  A    between atoms: N_7  and  C_26
REMARK    3  A    between atoms: C_10  and  C_17
REMARK    4  A    between atoms: C_11  and  C_16
REMARK    5  A    between atoms: C_19  and  C_22
REMARK    6  A    between atoms: C_20  and  C_23
REMARK    7  A    between atoms: C_32  and  C_35
REMARK                            x       y       z     vdW  Elec       q    Type
REMARK                         _______ _______ _______ _____ _____    ______ ____
ROOT
ATOM      3  N   UNL     1      -4.395   4.178  26.366  0.00  0.00    -0.297 NA
ATOM      9  C   UNL     1      -4.845   3.302  23.955  0.00  0.00    +0.002 C 
ATOM     10  C   UNL     1      -5.252   2.233  25.007  0.00  0.00    +0.055 C 
ATOM     11  C   UNL     1      -3.188   4.372  25.521  0.00  0.00    +0.074 C 
ATOM     12  C   UNL     1      -3.361   3.675  24.154  0.00  0.00    +0.024 C 
ATOM     13  C   UNL     1      -5.676   4.567  24.262  0.00  0.00    +0.019 C 
ATOM     14  C   UNL     1      -4.770   2.742  26.395  0.00  0.00    +0.094 C 
ATOM     15  C   UNL     1      -5.509   4.934  25.746  0.00  0.00    +0.085 C 
ENDROOT
BRANCH  10  17
ATOM      5  N   UNL     1      -5.808  -0.028  24.255  0.00  0.00    -0.237 NA
ATOM      6  N   UNL     1      -4.198  -1.820  24.277  0.00  0.00    -0.232 NA
ATOM     17  C   UNL     1      -4.854   0.787  24.752  0.00  0.00    +0.050 A 
ATOM     18  C   UNL     1      -3.566   0.376  25.033  0.00  0.00    +0.052 A 
ATOM     19  C   UNL     1      -3.292  -0.952  24.773  0.00  0.00    +0.075 A 
ATOM     20  C   UNL     1      -5.418  -1.299  24.045  0.00  0.00    +0.127 A 
ATOM     23  C   UNL     1      -6.446  -2.230  23.499  0.00  0.00    +0.088 C 
BRANCH  19  22
ATOM      1  F   UNL     1       1.759  -3.092  25.748  0.00  0.00    -0.205 F 
ATOM     22  C   UNL     1      -1.984  -1.506  25.025  0.00  0.00    +0.001 A 
ATOM     24  C   UNL     1      -1.484  -2.515  24.204  0.00  0.00    +0.013 A 
ATOM     25  C   UNL     1      -1.219  -1.032  26.092  0.00  0.00    +0.013 A 
ATOM     27  C   UNL     1      -0.219  -3.051  24.447  0.00  0.00    +0.039 A 
ATOM     28  C   UNL     1       0.045  -1.568  26.336  0.00  0.00    +0.039 A 
ATOM     29  C   UNL     1       0.545  -2.577  25.514  0.00  0.00    +0.123 A 
ENDBRANCH  19  22
ENDBRANCH  10  17
BRANCH  11  16
ATOM     16  C   UNL     1      -1.904   3.928  26.227  0.00  0.00    +0.124 C 
BRANCH  16   4
ATOM      2  O   UNL     1       0.160   3.561  24.276  0.00  0.00    -0.253 OA
ATOM      4  N   UNL     1      -1.437   2.683  25.702  0.00  0.00    -0.298 N 
ATOM      7  N   UNL     1      -0.172   1.241  24.418  0.00  0.00    -0.269 N 
ATOM     21  C   UNL     1      -0.413   2.579  24.741  0.00  0.00    +0.304 C 
ATOM     36  H   UNL     1      -1.869   1.828  26.037  0.00  0.00    +0.150 HD
ATOM     37  H   UNL     1      -0.739   0.547  24.897  0.00  0.00    +0.156 HD
BRANCH   7  26
ATOM     26  C   UNL     1       0.774   0.727  23.501  0.00  0.00    +0.036 A 
ATOM     30  C   UNL     1       2.139   0.851  23.762  0.00  0.00    +0.042 A 
ATOM     31  C   UNL     1       0.341   0.094  22.335  0.00  0.00    +0.023 A 
ATOM     32  C   UNL     1       3.071   0.342  22.856  0.00  0.00    +0.054 A 
ATOM     33  C   UNL     1       1.273  -0.414  21.431  0.00  0.00    +0.003 A 
ATOM     34  C   UNL     1       2.638  -0.290  21.691  0.00  0.00    +0.019 A 
BRANCH  32  35
ATOM      8  N   UNL     1       5.604   0.572  23.341  0.00  0.00    -0.191 NA
ATOM     35  C   UNL     1       4.468   0.468  23.123  0.00  0.00    +0.099 C 
ENDBRANCH  32  35
ENDBRANCH   7  26
ENDBRANCH  16   4
ENDBRANCH  11  16
TORSDOF 6
ENDMDL
