MODEL 1
REMARK VINA RESULT:      -3.3      0.000      0.000
REMARK  Name = 75536926
REMARK  5 active torsions:
REMARK  status: ('A' for Active; 'I' for Inactive)
REMARK    1  A    between atoms: O_2  and  C_7
REMARK    2  A    between atoms: O_2  and  C_18
REMARK    3  A    between atoms: N_3  and  C_9
REMARK    4  A    between atoms: C_9  and  C_12
REMARK    5  A    between atoms: C_15  and  C_19
REMARK                            x       y       z     vdW  Elec       q    Type
REMARK                         _______ _______ _______ _____ _____    ______ ____
ROOT
ATOM      1  O   UNL     1      13.498 -10.780  25.917  0.00  0.00    -0.375 OA
ATOM      3  N   UNL     1      16.081  -9.657  26.510  0.00  0.00    -0.292 NA
ATOM      6  C   UNL     1      15.431  -9.459  27.804  0.00  0.00    +0.131 C 
ATOM      7  C   UNL     1      14.530 -10.651  28.154  0.00  0.00    +0.215 C 
ATOM      8  C   UNL     1      15.289  -9.216  25.357  0.00  0.00    +0.113 C 
ATOM     10  C   UNL     1      13.258 -10.781  27.319  0.00  0.00    +0.205 C 
ATOM     11  C   UNL     1      13.786  -9.478  25.421  0.00  0.00    +0.175 C 
ENDROOT
BRANCH   7   2
ATOM      2  O   UNL     1      14.160 -10.533  29.528  0.00  0.00    -0.468 OA
BRANCH   2  18
ATOM      4  N   UNL     1      14.869  -8.680  30.739  0.00  0.00    -0.219 NA
ATOM      5  N   UNL     1      17.100 -10.139  31.610  0.00  0.00    -0.256 NA
ATOM     18  C   UNL     1      15.078  -9.956  30.361  0.00  0.00    +0.234 A 
ATOM     20  C   UNL     1      16.174 -10.673  30.789  0.00  0.00    +0.177 A 
ATOM     25  C   UNL     1      15.795  -8.145  31.559  0.00  0.00    +0.134 A 
ATOM     27  C   UNL     1      16.891  -8.863  31.986  0.00  0.00    +0.130 A 
ENDBRANCH   2  18
ENDBRANCH   7   2
BRANCH   3   9
ATOM      9  C   UNL     1      17.405  -9.034  26.475  0.00  0.00    +0.119 C 
BRANCH   9  12
ATOM     12  C   UNL     1      17.346  -7.619  25.962  0.00  0.00    -0.033 A 
ATOM     13  C   UNL     1      17.238  -6.556  26.858  0.00  0.00    +0.005 A 
ATOM     14  C   UNL     1      17.399  -7.372  24.589  0.00  0.00    +0.005 A 
ATOM     15  C   UNL     1      17.235  -4.999  25.011  0.00  0.00    -0.018 A 
ATOM     16  C   UNL     1      17.182  -5.246  26.383  0.00  0.00    +0.009 A 
ATOM     17  C   UNL     1      17.343  -6.063  24.114  0.00  0.00    +0.009 A 
BRANCH  15  19
ATOM     19  C   UNL     1      17.178  -3.640  24.518  0.00  0.00    -0.018 A 
ATOM     21  C   UNL     1      17.046  -3.400  23.150  0.00  0.00    +0.008 A 
ATOM     22  C   UNL     1      17.255  -2.570  25.410  0.00  0.00    +0.008 A 
ATOM     23  C   UNL     1      16.991  -2.090  22.675  0.00  0.00    +0.001 A 
ATOM     24  C   UNL     1      17.200  -1.261  24.934  0.00  0.00    +0.001 A 
ATOM     26  C   UNL     1      17.067  -1.020  23.566  0.00  0.00    +0.000 A 
ENDBRANCH  15  19
ENDBRANCH   9  12
ENDBRANCH   3   9
TORSDOF 5
ENDMDL
MODEL 2
REMARK VINA RESULT:      -3.2      1.722      2.595
REMARK  Name = 75536926
REMARK  5 active torsions:
REMARK  status: ('A' for Active; 'I' for Inactive)
REMARK    1  A    between atoms: O_2  and  C_7
REMARK    2  A    between atoms: O_2  and  C_18
REMARK    3  A    between atoms: N_3  and  C_9
REMARK    4  A    between atoms: C_9  and  C_12
REMARK    5  A    between atoms: C_15  and  C_19
REMARK                            x       y       z     vdW  Elec       q    Type
REMARK                         _______ _______ _______ _____ _____    ______ ____
ROOT
ATOM      1  O   UNL     1      13.529 -10.750  28.806  0.00  0.00    -0.375 OA
ATOM      3  N   UNL     1      16.106  -9.562  28.325  0.00  0.00    -0.292 NA
ATOM      6  C   UNL     1      15.544  -8.560  29.229  0.00  0.00    +0.131 C 
ATOM      7  C   UNL     1      14.715  -9.222  30.337  0.00  0.00    +0.215 C 
ATOM      8  C   UNL     1      15.217  -9.958  27.228  0.00  0.00    +0.113 C 
ATOM     10  C   UNL     1      13.392  -9.837  29.888  0.00  0.00    +0.205 C 
ATOM     11  C   UNL     1      13.732 -10.086  27.564  0.00  0.00    +0.175 C 
ENDROOT
BRANCH   7   2
ATOM      2  O   UNL     1      14.441  -8.235  31.332  0.00  0.00    -0.468 OA
BRANCH   2  18
ATOM      4  N   UNL     1      16.408  -7.000  31.445  0.00  0.00    -0.219 NA
ATOM      5  N   UNL     1      14.981  -4.713  30.667  0.00  0.00    -0.256 NA
ATOM     18  C   UNL     1      15.084  -7.036  31.195  0.00  0.00    +0.234 A 
ATOM     20  C   UNL     1      14.383  -5.913  30.813  0.00  0.00    +0.177 A 
ATOM     25  C   UNL     1      17.006  -5.801  31.300  0.00  0.00    +0.134 A 
ATOM     27  C   UNL     1      16.304  -4.678  30.918  0.00  0.00    +0.130 A 
ENDBRANCH   2  18
ENDBRANCH   7   2
BRANCH   3   9
ATOM      9  C   UNL     1      17.401  -9.137  27.791  0.00  0.00    +0.119 C 
BRANCH   9  12
ATOM     12  C   UNL     1      17.297  -7.840  27.033  0.00  0.00    -0.033 A 
ATOM     13  C   UNL     1      17.405  -6.625  27.709  0.00  0.00    +0.005 A 
ATOM     14  C   UNL     1      17.090  -7.854  25.653  0.00  0.00    +0.005 A 
ATOM     15  C   UNL     1      17.102  -5.438  25.628  0.00  0.00    -0.018 A 
ATOM     16  C   UNL     1      17.307  -5.424  27.007  0.00  0.00    +0.009 A 
ATOM     17  C   UNL     1      16.992  -6.653  24.950  0.00  0.00    +0.009 A 
BRANCH  15  19
ATOM     19  C   UNL     1      17.001  -4.192  24.899  0.00  0.00    -0.018 A 
ATOM     21  C   UNL     1      17.081  -2.978  25.580  0.00  0.00    +0.008 A 
ATOM     22  C   UNL     1      16.824  -4.205  23.515  0.00  0.00    +0.008 A 
ATOM     23  C   UNL     1      16.983  -1.776  24.877  0.00  0.00    +0.001 A 
ATOM     24  C   UNL     1      16.727  -3.005  22.813  0.00  0.00    +0.001 A 
ATOM     26  C   UNL     1      16.807  -1.789  23.494  0.00  0.00    +0.000 A 
ENDBRANCH  15  19
ENDBRANCH   9  12
ENDBRANCH   3   9
TORSDOF 5
ENDMDL
MODEL 3
REMARK VINA RESULT:      -1.2     18.896     20.369
REMARK  Name = 75536926
REMARK  5 active torsions:
REMARK  status: ('A' for Active; 'I' for Inactive)
REMARK    1  A    between atoms: O_2  and  C_7
REMARK    2  A    between atoms: O_2  and  C_18
REMARK    3  A    between atoms: N_3  and  C_9
REMARK    4  A    between atoms: C_9  and  C_12
REMARK    5  A    between atoms: C_15  and  C_19
REMARK                            x       y       z     vdW  Elec       q    Type
REMARK                         _______ _______ _______ _____ _____    ______ ____
ROOT
ATOM      1  O   UNL     1      -6.712   2.224  24.792  0.00  0.00    -0.375 OA
ATOM      3  N   UNL     1      -4.021   3.229  24.972  0.00  0.00    -0.292 NA
ATOM      6  C   UNL     1      -3.893   2.046  25.820  0.00  0.00    +0.131 C 
ATOM      7  C   UNL     1      -4.702   0.872  25.252  0.00  0.00    +0.215 C 
ATOM      8  C   UNL     1      -5.186   4.069  25.271  0.00  0.00    +0.113 C 
ATOM     10  C   UNL     1      -6.219   1.011  25.348  0.00  0.00    +0.205 C 
ATOM     11  C   UNL     1      -6.477   3.341  25.640  0.00  0.00    +0.175 C 
ENDROOT
BRANCH   7   2
ATOM      2  O   UNL     1      -4.310  -0.311  25.951  0.00  0.00    -0.468 OA
BRANCH   2  18
ATOM      4  N   UNL     1      -2.018  -0.624  25.726  0.00  0.00    -0.219 NA
ATOM      5  N   UNL     1      -2.511  -2.820  24.053  0.00  0.00    -0.256 NA
ATOM     18  C   UNL     1      -3.269  -1.019  25.419  0.00  0.00    +0.234 A 
ATOM     20  C   UNL     1      -3.512  -2.097  24.597  0.00  0.00    +0.177 A 
ATOM     25  C   UNL     1      -1.018  -1.345  25.182  0.00  0.00    +0.134 A 
ATOM     27  C   UNL     1      -1.261  -2.424  24.360  0.00  0.00    +0.130 A 
ENDBRANCH   2  18
ENDBRANCH   7   2
BRANCH   3   9
ATOM      9  C   UNL     1      -2.802   4.038  24.992  0.00  0.00    +0.119 C 
BRANCH   9  12
ATOM     12  C   UNL     1      -1.591   3.238  24.594  0.00  0.00    -0.033 A 
ATOM     13  C   UNL     1      -1.628   2.436  23.453  0.00  0.00    +0.005 A 
ATOM     14  C   UNL     1      -0.431   3.296  25.368  0.00  0.00    +0.005 A 
ATOM     15  C   UNL     1       0.654   1.753  23.858  0.00  0.00    -0.018 A 
ATOM     16  C   UNL     1      -0.506   1.694  23.085  0.00  0.00    +0.009 A 
ATOM     17  C   UNL     1       0.691   2.554  25.000  0.00  0.00    +0.009 A 
BRANCH  15  19
ATOM     19  C   UNL     1       1.818   0.983  23.476  0.00  0.00    -0.018 A 
ATOM     21  C   UNL     1       3.012   1.634  23.166  0.00  0.00    +0.008 A 
ATOM     22  C   UNL     1       1.746  -0.409  23.418  0.00  0.00    +0.008 A 
ATOM     23  C   UNL     1       4.135   0.891  22.797  0.00  0.00    +0.001 A 
ATOM     24  C   UNL     1       2.868  -1.150  23.050  0.00  0.00    +0.001 A 
ATOM     26  C   UNL     1       4.063  -0.500  22.740  0.00  0.00    +0.000 A 
ENDBRANCH  15  19
ENDBRANCH   9  12
ENDBRANCH   3   9
TORSDOF 5
ENDMDL
MODEL 4
REMARK VINA RESULT:      -0.8     23.613     26.767
REMARK  Name = 75536926
REMARK  5 active torsions:
REMARK  status: ('A' for Active; 'I' for Inactive)
REMARK    1  A    between atoms: O_2  and  C_7
REMARK    2  A    between atoms: O_2  and  C_18
REMARK    3  A    between atoms: N_3  and  C_9
REMARK    4  A    between atoms: C_9  and  C_12
REMARK    5  A    between atoms: C_15  and  C_19
REMARK                            x       y       z     vdW  Elec       q    Type
REMARK                         _______ _______ _______ _____ _____    ______ ____
ROOT
ATOM      1  O   UNL     1      -9.608  -8.242  10.640  0.00  0.00    -0.375 OA
ATOM      3  N   UNL     1      -8.904  -9.828  12.936  0.00  0.00    -0.292 NA
ATOM      6  C   UNL     1      -8.188 -10.572  11.902  0.00  0.00    +0.131 C 
ATOM      7  C   UNL     1      -7.576  -9.621  10.865  0.00  0.00    +0.215 C 
ATOM      8  C   UNL     1     -10.299  -9.515  12.606  0.00  0.00    +0.113 C 
ATOM     10  C   UNL     1      -8.573  -8.924   9.943  0.00  0.00    +0.205 C 
ATOM     11  C   UNL     1     -10.588  -9.134  11.156  0.00  0.00    +0.175 C 
ENDROOT
BRANCH   7   2
ATOM      2  O   UNL     1      -6.665 -10.373  10.062  0.00  0.00    -0.468 OA
BRANCH   2  18
ATOM      4  N   UNL     1      -4.768  -9.516   9.026  0.00  0.00    -0.219 NA
ATOM      5  N   UNL     1      -3.352  -9.830  11.426  0.00  0.00    -0.256 NA
ATOM     18  C   UNL     1      -5.347 -10.016  10.135  0.00  0.00    +0.234 A 
ATOM     20  C   UNL     1      -4.652 -10.170  11.314  0.00  0.00    +0.177 A 
ATOM     25  C   UNL     1      -3.469  -9.177   9.137  0.00  0.00    +0.134 A 
ATOM     27  C   UNL     1      -2.774  -9.331  10.316  0.00  0.00    +0.130 A 
ENDBRANCH   2  18
ENDBRANCH   7   2
BRANCH   3   9
ATOM      9  C   UNL     1      -8.836 -10.508  14.230  0.00  0.00    +0.119 C 
BRANCH   9  12
ATOM     12  C   UNL     1      -7.435 -10.529  14.780  0.00  0.00    -0.033 A 
ATOM     13  C   UNL     1      -6.344 -10.423  13.917  0.00  0.00    +0.005 A 
ATOM     14  C   UNL     1      -7.227 -10.658  16.155  0.00  0.00    +0.005 A 
ATOM     15  C   UNL     1      -4.838 -10.571  15.800  0.00  0.00    -0.018 A 
ATOM     16  C   UNL     1      -5.046 -10.444  14.427  0.00  0.00    +0.009 A 
ATOM     17  C   UNL     1      -5.929 -10.679  16.664  0.00  0.00    +0.009 A 
BRANCH  15  19
ATOM     19  C   UNL     1      -3.492 -10.592  16.329  0.00  0.00    -0.018 A 
ATOM     21  C   UNL     1      -3.284 -10.761  17.698  0.00  0.00    +0.008 A 
ATOM     22  C   UNL     1      -2.402 -10.444  15.471  0.00  0.00    +0.008 A 
ATOM     23  C   UNL     1      -1.985 -10.781  18.208  0.00  0.00    +0.001 A 
ATOM     24  C   UNL     1      -1.105 -10.465  15.981  0.00  0.00    +0.001 A 
ATOM     26  C   UNL     1      -0.896 -10.634  17.350  0.00  0.00    +0.000 A 
ENDBRANCH  15  19
ENDBRANCH   9  12
ENDBRANCH   3   9
TORSDOF 5
ENDMDL
MODEL 5
REMARK VINA RESULT:      -0.2     19.174     20.649
REMARK  Name = 75536926
REMARK  5 active torsions:
REMARK  status: ('A' for Active; 'I' for Inactive)
REMARK    1  A    between atoms: O_2  and  C_7
REMARK    2  A    between atoms: O_2  and  C_18
REMARK    3  A    between atoms: N_3  and  C_9
REMARK    4  A    between atoms: C_9  and  C_12
REMARK    5  A    between atoms: C_15  and  C_19
REMARK                            x       y       z     vdW  Elec       q    Type
REMARK                         _______ _______ _______ _____ _____    ______ ____
ROOT
ATOM      1  O   UNL     1      -6.664   2.930  25.718  0.00  0.00    -0.375 OA
ATOM      3  N   UNL     1      -4.714   0.820  25.545  0.00  0.00    -0.292 NA
ATOM      6  C   UNL     1      -3.907   1.934  25.050  0.00  0.00    +0.131 C 
ATOM      7  C   UNL     1      -4.217   3.223  25.823  0.00  0.00    +0.215 C 
ATOM      8  C   UNL     1      -6.040   0.706  24.926  0.00  0.00    +0.113 C 
ATOM     10  C   UNL     1      -5.585   3.842  25.547  0.00  0.00    +0.205 C 
ATOM     11  C   UNL     1      -6.772   2.014  24.635  0.00  0.00    +0.175 C 
ENDROOT
BRANCH   7   2
ATOM      2  O   UNL     1      -3.211   4.183  25.497  0.00  0.00    -0.468 OA
BRANCH   2  18
ATOM      4  N   UNL     1      -1.552   2.887  26.483  0.00  0.00    -0.219 NA
ATOM      5  N   UNL     1       0.250   3.750  24.515  0.00  0.00    -0.256 NA
ATOM     18  C   UNL     1      -1.918   3.740  25.506  0.00  0.00    +0.234 A 
ATOM     20  C   UNL     1      -1.032   4.165  24.539  0.00  0.00    +0.177 A 
ATOM     25  C   UNL     1      -0.270   2.473  26.459  0.00  0.00    +0.134 A 
ATOM     27  C   UNL     1       0.615   2.898  25.493  0.00  0.00    +0.130 A 
ENDBRANCH   2  18
ENDBRANCH   7   2
BRANCH   3   9
ATOM      9  C   UNL     1      -3.999  -0.452  25.434  0.00  0.00    +0.119 C 
BRANCH   9  12
ATOM     12  C   UNL     1      -2.641  -0.279  24.806  0.00  0.00    -0.033 A 
ATOM     13  C   UNL     1      -2.474   0.596  23.733  0.00  0.00    +0.005 A 
ATOM     14  C   UNL     1      -1.549  -0.996  25.298  0.00  0.00    +0.005 A 
ATOM     15  C   UNL     1      -0.125   0.040  23.643  0.00  0.00    -0.018 A 
ATOM     16  C   UNL     1      -1.217   0.755  23.152  0.00  0.00    +0.009 A 
ATOM     17  C   UNL     1      -0.292  -0.837  24.716  0.00  0.00    +0.009 A 
BRANCH  15  19
ATOM     19  C   UNL     1       1.179   0.205  23.040  0.00  0.00    -0.018 A 
ATOM     21  C   UNL     1       1.489  -0.461  21.855  0.00  0.00    +0.008 A 
ATOM     22  C   UNL     1       2.127   1.032  23.644  0.00  0.00    +0.008 A 
ATOM     23  C   UNL     1       2.748  -0.302  21.274  0.00  0.00    +0.001 A 
ATOM     24  C   UNL     1       3.385   1.191  23.063  0.00  0.00    +0.001 A 
ATOM     26  C   UNL     1       3.695   0.525  21.877  0.00  0.00    +0.000 A 
ENDBRANCH  15  19
ENDBRANCH   9  12
ENDBRANCH   3   9
TORSDOF 5
ENDMDL
MODEL 6
REMARK VINA RESULT:       0.4     18.242     19.704
REMARK  Name = 75536926
REMARK  5 active torsions:
REMARK  status: ('A' for Active; 'I' for Inactive)
REMARK    1  A    between atoms: O_2  and  C_7
REMARK    2  A    between atoms: O_2  and  C_18
REMARK    3  A    between atoms: N_3  and  C_9
REMARK    4  A    between atoms: C_9  and  C_12
REMARK    5  A    between atoms: C_15  and  C_19
REMARK                            x       y       z     vdW  Elec       q    Type
REMARK                         _______ _______ _______ _____ _____    ______ ____
ROOT
ATOM      1  O   UNL     1      -5.176   3.051  25.951  0.00  0.00    -0.375 OA
ATOM      3  N   UNL     1      -3.615   2.340  23.640  0.00  0.00    -0.292 NA
ATOM      6  C   UNL     1      -3.315   1.193  24.494  0.00  0.00    +0.131 C 
ATOM      7  C   UNL     1      -4.556   0.758  25.287  0.00  0.00    +0.215 C 
ATOM      8  C   UNL     1      -3.477   3.643  24.300  0.00  0.00    +0.113 C 
ATOM     10  C   UNL     1      -4.995   1.712  26.395  0.00  0.00    +0.205 C 
ATOM     11  C   UNL     1      -3.939   3.725  25.753  0.00  0.00    +0.175 C 
ENDROOT
BRANCH   7   2
ATOM      2  O   UNL     1      -4.282  -0.517  25.868  0.00  0.00    -0.468 OA
BRANCH   2  18
ATOM      4  N   UNL     1      -3.249  -2.197  24.637  0.00  0.00    -0.219 NA
ATOM      5  N   UNL     1      -0.754  -1.269  25.521  0.00  0.00    -0.256 NA
ATOM     18  C   UNL     1      -3.133  -1.139  25.463  0.00  0.00    +0.234 A 
ATOM     20  C   UNL     1      -1.908  -0.683  25.898  0.00  0.00    +0.177 A 
ATOM     25  C   UNL     1      -2.095  -2.783  24.260  0.00  0.00    +0.134 A 
ATOM     27  C   UNL     1      -0.870  -2.327  24.695  0.00  0.00    +0.130 A 
ENDBRANCH   2  18
ENDBRANCH   7   2
BRANCH   3   9
ATOM      9  C   UNL     1      -2.821   2.315  22.410  0.00  0.00    +0.119 C 
BRANCH   9  12
ATOM     12  C   UNL     1      -1.438   1.768  22.646  0.00  0.00    -0.033 A 
ATOM     13  C   UNL     1      -1.040   0.585  22.025  0.00  0.00    +0.005 A 
ATOM     14  C   UNL     1      -0.555   2.446  23.489  0.00  0.00    +0.005 A 
ATOM     15  C   UNL     1       1.123   0.755  23.086  0.00  0.00    -0.018 A 
ATOM     16  C   UNL     1       0.240   0.078  22.245  0.00  0.00    +0.009 A 
ATOM     17  C   UNL     1       0.725   1.939  23.709  0.00  0.00    +0.009 A 
BRANCH  15  19
ATOM     19  C   UNL     1       2.452   0.230  23.314  0.00  0.00    -0.018 A 
ATOM     21  C   UNL     1       2.618  -1.096  23.714  0.00  0.00    +0.008 A 
ATOM     22  C   UNL     1       3.567   1.049  23.133  0.00  0.00    +0.008 A 
ATOM     23  C   UNL     1       3.900  -1.602  23.934  0.00  0.00    +0.001 A 
ATOM     24  C   UNL     1       4.847   0.543  23.353  0.00  0.00    +0.001 A 
ATOM     26  C   UNL     1       5.014  -0.784  23.753  0.00  0.00    +0.000 A 
ENDBRANCH  15  19
ENDBRANCH   9  12
ENDBRANCH   3   9
TORSDOF 5
ENDMDL
MODEL 7
REMARK VINA RESULT:       0.6      1.278      2.235
REMARK  Name = 75536926
REMARK  5 active torsions:
REMARK  status: ('A' for Active; 'I' for Inactive)
REMARK    1  A    between atoms: O_2  and  C_7
REMARK    2  A    between atoms: O_2  and  C_18
REMARK    3  A    between atoms: N_3  and  C_9
REMARK    4  A    between atoms: C_9  and  C_12
REMARK    5  A    between atoms: C_15  and  C_19
REMARK                            x       y       z     vdW  Elec       q    Type
REMARK                         _______ _______ _______ _____ _____    ______ ____
ROOT
ATOM      1  O   UNL     1      14.202  -9.703  25.279  0.00  0.00    -0.375 OA
ATOM      3  N   UNL     1      16.167  -8.292  26.839  0.00  0.00    -0.292 NA
ATOM      6  C   UNL     1      15.330  -8.811  27.919  0.00  0.00    +0.131 C 
ATOM      7  C   UNL     1      14.841 -10.231  27.602  0.00  0.00    +0.215 C 
ATOM      8  C   UNL     1      15.424  -7.642  25.753  0.00  0.00    +0.113 C 
ATOM     10  C   UNL     1      13.802 -10.334  26.489  0.00  0.00    +0.205 C 
ATOM     11  C   UNL     1      14.099  -8.286  25.352  0.00  0.00    +0.175 C 
ENDROOT
BRANCH   7   2
ATOM      2  O   UNL     1      14.284 -10.781  28.796  0.00  0.00    -0.468 OA
BRANCH   2  18
ATOM      4  N   UNL     1      15.147  -9.543  30.564  0.00  0.00    -0.219 NA
ATOM      5  N   UNL     1      12.570  -8.582  31.111  0.00  0.00    -0.256 NA
ATOM     18  C   UNL     1      14.078  -9.912  29.831  0.00  0.00    +0.234 A 
ATOM     20  C   UNL     1      12.812  -9.440  30.100  0.00  0.00    +0.177 A 
ATOM     25  C   UNL     1      14.905  -8.686  31.575  0.00  0.00    +0.134 A 
ATOM     27  C   UNL     1      13.639  -8.215  31.844  0.00  0.00    +0.130 A 
ENDBRANCH   2  18
ENDBRANCH   7   2
BRANCH   3   9
ATOM      9  C   UNL     1      17.201  -7.390  27.348  0.00  0.00    +0.119 C 
BRANCH   9  12
ATOM     12  C   UNL     1      17.193  -6.066  26.630  0.00  0.00    -0.033 A 
ATOM     13  C   UNL     1      16.978  -6.020  25.253  0.00  0.00    +0.005 A 
ATOM     14  C   UNL     1      17.404  -4.885  27.343  0.00  0.00    +0.005 A 
ATOM     15  C   UNL     1      17.182  -3.613  25.301  0.00  0.00    -0.018 A 
ATOM     16  C   UNL     1      16.973  -4.794  24.589  0.00  0.00    +0.009 A 
ATOM     17  C   UNL     1      17.399  -3.659  26.679  0.00  0.00    +0.009 A 
BRANCH  15  19
ATOM     19  C   UNL     1      17.176  -2.341  24.612  0.00  0.00    -0.018 A 
ATOM     21  C   UNL     1      17.081  -1.155  25.340  0.00  0.00    +0.008 A 
ATOM     22  C   UNL     1      17.265  -2.301  23.220  0.00  0.00    +0.008 A 
ATOM     23  C   UNL     1      17.074   0.072  24.675  0.00  0.00    +0.001 A 
ATOM     24  C   UNL     1      17.259  -1.075  22.557  0.00  0.00    +0.001 A 
ATOM     26  C   UNL     1      17.164   0.113  23.284  0.00  0.00    +0.000 A 
ENDBRANCH  15  19
ENDBRANCH   9  12
ENDBRANCH   3   9
TORSDOF 5
ENDMDL
