MODEL 1
REMARK VINA RESULT:      -6.4      0.000      0.000
REMARK  Name = 75536938
REMARK  4 active torsions:
REMARK  status: ('A' for Active; 'I' for Inactive)
REMARK    1  A    between atoms: O_2  and  C_6
REMARK    2  A    between atoms: O_2  and  C_12
REMARK    3  A    between atoms: N_3  and  C_9
REMARK    4  A    between atoms: C_9  and  C_11
REMARK                            x       y       z     vdW  Elec       q    Type
REMARK                         _______ _______ _______ _____ _____    ______ ____
ROOT
ATOM      1  O   UNL     1      -1.934   4.854  25.763  0.00  0.00    -0.376 OA
ATOM      3  N   UNL     1      -2.078   2.088  24.330  0.00  0.00    -0.292 NA
ATOM      5  C   UNL     1      -3.513   2.382  24.403  0.00  0.00    +0.118 C 
ATOM      6  C   UNL     1      -3.940   3.729  25.007  0.00  0.00    +0.157 C 
ATOM      7  C   UNL     1      -1.240   3.247  24.019  0.00  0.00    +0.113 C 
ATOM      8  C   UNL     1      -3.106   4.174  26.201  0.00  0.00    +0.192 C 
ATOM     10  C   UNL     1      -0.894   4.001  25.304  0.00  0.00    +0.175 C 
ENDROOT
BRANCH   6   2
ATOM      2  O   UNL     1      -5.297   3.613  25.437  0.00  0.00    -0.376 OA
ATOM     12  C   UNL     1      -5.719   2.258  25.449  0.00  0.00    +0.194 C 
ENDBRANCH   6   2
BRANCH   3   9
ATOM      9  C   UNL     1      -1.837   0.987  23.398  0.00  0.00    +0.140 C 
BRANCH   9  11
ATOM      4  N   UNL     1      -1.546  -1.119  24.585  0.00  0.00    -0.259 NA
ATOM     11  C   UNL     1      -2.397  -0.314  23.910  0.00  0.00    +0.055 A 
ATOM     13  C   UNL     1      -3.728  -0.619  23.672  0.00  0.00    +0.024 A 
ATOM     14  C   UNL     1      -4.215  -1.827  24.158  0.00  0.00    +0.003 A 
ATOM     15  C   UNL     1      -2.055  -2.284  25.042  0.00  0.00    +0.111 A 
ATOM     16  C   UNL     1      -3.369  -2.682  24.857  0.00  0.00    +0.020 A 
ENDBRANCH   9  11
ENDBRANCH   3   9
TORSDOF 3
ENDMDL
MODEL 2
REMARK VINA RESULT:      -6.1      1.723      2.954
REMARK  Name = 75536938
REMARK  4 active torsions:
REMARK  status: ('A' for Active; 'I' for Inactive)
REMARK    1  A    between atoms: O_2  and  C_6
REMARK    2  A    between atoms: O_2  and  C_12
REMARK    3  A    between atoms: N_3  and  C_9
REMARK    4  A    between atoms: C_9  and  C_11
REMARK                            x       y       z     vdW  Elec       q    Type
REMARK                         _______ _______ _______ _____ _____    ______ ____
ROOT
ATOM      1  O   UNL     1      -0.980   4.440  25.172  0.00  0.00    -0.376 OA
ATOM      3  N   UNL     1      -3.188   2.272  24.783  0.00  0.00    -0.292 NA
ATOM      5  C   UNL     1      -2.003   1.419  24.641  0.00  0.00    +0.118 C 
ATOM      6  C   UNL     1      -0.623   2.071  24.822  0.00  0.00    +0.157 C 
ATOM      7  C   UNL     1      -3.072   3.297  25.821  0.00  0.00    +0.113 C 
ATOM      8  C   UNL     1      -0.510   3.473  24.238  0.00  0.00    +0.192 C 
ATOM     10  C   UNL     1      -2.394   4.544  25.251  0.00  0.00    +0.175 C 
ENDROOT
BRANCH   6   2
ATOM      2  O   UNL     1       0.346   1.245  24.176  0.00  0.00    -0.376 OA
ATOM     12  C   UNL     1      -0.167  -0.055  23.928  0.00  0.00    +0.194 C 
ENDBRANCH   6   2
BRANCH   3   9
ATOM      9  C   UNL     1      -4.381   1.448  24.973  0.00  0.00    +0.140 C 
BRANCH   9  11
ATOM      4  N   UNL     1      -3.457  -0.560  25.991  0.00  0.00    -0.259 NA
ATOM     11  C   UNL     1      -4.064  -0.023  24.909  0.00  0.00    +0.055 A 
ATOM     13  C   UNL     1      -4.401  -0.740  23.773  0.00  0.00    +0.024 A 
ATOM     14  C   UNL     1      -4.096  -2.096  23.745  0.00  0.00    +0.003 A 
ATOM     15  C   UNL     1      -3.176  -1.881  25.929  0.00  0.00    +0.111 A 
ATOM     16  C   UNL     1      -3.471  -2.686  24.839  0.00  0.00    +0.020 A 
ENDBRANCH   9  11
ENDBRANCH   3   9
TORSDOF 3
ENDMDL
MODEL 3
REMARK VINA RESULT:      -6.0      0.949      2.617
REMARK  Name = 75536938
REMARK  4 active torsions:
REMARK  status: ('A' for Active; 'I' for Inactive)
REMARK    1  A    between atoms: O_2  and  C_6
REMARK    2  A    between atoms: O_2  and  C_12
REMARK    3  A    between atoms: N_3  and  C_9
REMARK    4  A    between atoms: C_9  and  C_11
REMARK                            x       y       z     vdW  Elec       q    Type
REMARK                         _______ _______ _______ _____ _____    ______ ____
ROOT
ATOM      1  O   UNL     1      -5.530   3.197  26.257  0.00  0.00    -0.376 OA
ATOM      3  N   UNL     1      -3.811   1.910  23.996  0.00  0.00    -0.292 NA
ATOM      5  C   UNL     1      -2.812   2.835  24.543  0.00  0.00    +0.118 C 
ATOM      6  C   UNL     1      -3.209   3.678  25.766  0.00  0.00    +0.157 C 
ATOM      7  C   UNL     1      -4.646   1.258  25.006  0.00  0.00    +0.113 C 
ATOM      8  C   UNL     1      -4.645   4.185  25.739  0.00  0.00    +0.192 C 
ATOM     10  C   UNL     1      -5.841   2.150  25.349  0.00  0.00    +0.175 C 
ENDROOT
BRANCH   6   2
ATOM      2  O   UNL     1      -2.343   4.812  25.822  0.00  0.00    -0.376 OA
ATOM     12  C   UNL     1      -1.147   4.584  25.092  0.00  0.00    +0.194 C 
ENDBRANCH   6   2
BRANCH   3   9
ATOM      9  C   UNL     1      -3.164   0.931  23.123  0.00  0.00    +0.140 C 
BRANCH   9  11
ATOM      4  N   UNL     1      -1.832  -0.592  24.475  0.00  0.00    -0.259 NA
ATOM     11  C   UNL     1      -2.990  -0.401  23.804  0.00  0.00    +0.055 A 
ATOM     13  C   UNL     1      -4.000  -1.346  23.715  0.00  0.00    +0.024 A 
ATOM     14  C   UNL     1      -3.809  -2.564  24.356  0.00  0.00    +0.003 A 
ATOM     15  C   UNL     1      -1.681  -1.789  25.086  0.00  0.00    +0.111 A 
ATOM     16  C   UNL     1      -2.630  -2.799  25.057  0.00  0.00    +0.020 A 
ENDBRANCH   9  11
ENDBRANCH   3   9
TORSDOF 3
ENDMDL
MODEL 4
REMARK VINA RESULT:      -5.9      2.570      5.020
REMARK  Name = 75536938
REMARK  4 active torsions:
REMARK  status: ('A' for Active; 'I' for Inactive)
REMARK    1  A    between atoms: O_2  and  C_6
REMARK    2  A    between atoms: O_2  and  C_12
REMARK    3  A    between atoms: N_3  and  C_9
REMARK    4  A    between atoms: C_9  and  C_11
REMARK                            x       y       z     vdW  Elec       q    Type
REMARK                         _______ _______ _______ _____ _____    ______ ____
ROOT
ATOM      1  O   UNL     1      -0.062  -1.424  24.734  0.00  0.00    -0.376 OA
ATOM      3  N   UNL     1      -1.934   0.746  23.507  0.00  0.00    -0.292 NA
ATOM      5  C   UNL     1      -2.922   0.025  24.317  0.00  0.00    +0.118 C 
ATOM      6  C   UNL     1      -2.424  -1.144  25.183  0.00  0.00    +0.157 C 
ATOM      7  C   UNL     1      -0.629   0.908  24.149  0.00  0.00    +0.113 C 
ATOM      8  C   UNL     1      -1.348  -1.998  24.525  0.00  0.00    +0.192 C 
ATOM     10  C   UNL     1       0.238  -0.324  23.887  0.00  0.00    +0.175 C 
ENDROOT
BRANCH   6   2
ATOM      2  O   UNL     1      -3.539  -1.987  25.473  0.00  0.00    -0.376 OA
ATOM     12  C   UNL     1      -3.891  -2.781  24.351  0.00  0.00    +0.194 C 
ENDBRANCH   6   2
BRANCH   3   9
ATOM      9  C   UNL     1      -2.482   2.032  23.074  0.00  0.00    +0.140 C 
BRANCH   9  11
ATOM      4  N   UNL     1      -4.448   2.708  24.339  0.00  0.00    -0.259 NA
ATOM     11  C   UNL     1      -3.104   2.791  24.216  0.00  0.00    +0.055 A 
ATOM     13  C   UNL     1      -2.291   3.520  25.068  0.00  0.00    +0.024 A 
ATOM     14  C   UNL     1      -2.896   4.208  26.114  0.00  0.00    +0.003 A 
ATOM     15  C   UNL     1      -5.001   3.390  25.366  0.00  0.00    +0.111 A 
ATOM     16  C   UNL     1      -4.277   4.148  26.273  0.00  0.00    +0.020 A 
ENDBRANCH   9  11
ENDBRANCH   3   9
TORSDOF 3
ENDMDL
MODEL 5
REMARK VINA RESULT:      -5.4      2.161      5.060
REMARK  Name = 75536938
REMARK  4 active torsions:
REMARK  status: ('A' for Active; 'I' for Inactive)
REMARK    1  A    between atoms: O_2  and  C_6
REMARK    2  A    between atoms: O_2  and  C_12
REMARK    3  A    between atoms: N_3  and  C_9
REMARK    4  A    between atoms: C_9  and  C_11
REMARK                            x       y       z     vdW  Elec       q    Type
REMARK                         _______ _______ _______ _____ _____    ______ ____
ROOT
ATOM      1  O   UNL     1      -3.517  -2.228  24.434  0.00  0.00    -0.376 OA
ATOM      3  N   UNL     1      -1.662   0.226  24.944  0.00  0.00    -0.292 NA
ATOM      5  C   UNL     1      -2.963   0.891  25.080  0.00  0.00    +0.118 C 
ATOM      6  C   UNL     1      -4.228   0.026  24.960  0.00  0.00    +0.157 C 
ATOM      7  C   UNL     1      -1.605  -1.112  25.532  0.00  0.00    +0.113 C 
ATOM      8  C   UNL     1      -4.143  -1.065  23.901  0.00  0.00    +0.192 C 
ATOM     10  C   UNL     1      -2.101  -2.148  24.521  0.00  0.00    +0.175 C 
ENDROOT
BRANCH   6   2
ATOM      2  O   UNL     1      -5.321   0.881  24.625  0.00  0.00    -0.376 OA
ATOM     12  C   UNL     1      -5.062   2.222  25.010  0.00  0.00    +0.194 C 
ENDBRANCH   6   2
BRANCH   3   9
ATOM      9  C   UNL     1      -0.601   1.087  25.466  0.00  0.00    +0.140 C 
BRANCH   9  11
ATOM      4  N   UNL     1      -1.850   3.060  26.152  0.00  0.00    -0.259 NA
ATOM     11  C   UNL     1      -0.931   2.547  25.303  0.00  0.00    +0.055 A 
ATOM     13  C   UNL     1      -0.293   3.281  24.316  0.00  0.00    +0.024 A 
ATOM     14  C   UNL     1      -0.619   4.627  24.192  0.00  0.00    +0.003 A 
ATOM     15  C   UNL     1      -2.142   4.371  26.002  0.00  0.00    +0.111 A 
ATOM     16  C   UNL     1      -1.561   5.190  25.048  0.00  0.00    +0.020 A 
ENDBRANCH   9  11
ENDBRANCH   3   9
TORSDOF 3
ENDMDL
MODEL 6
REMARK VINA RESULT:      -5.2      1.655      2.651
REMARK  Name = 75536938
REMARK  4 active torsions:
REMARK  status: ('A' for Active; 'I' for Inactive)
REMARK    1  A    between atoms: O_2  and  C_6
REMARK    2  A    between atoms: O_2  and  C_12
REMARK    3  A    between atoms: N_3  and  C_9
REMARK    4  A    between atoms: C_9  and  C_11
REMARK                            x       y       z     vdW  Elec       q    Type
REMARK                         _______ _______ _______ _____ _____    ______ ____
ROOT
ATOM      1  O   UNL     1       0.506   2.318  24.482  0.00  0.00    -0.376 OA
ATOM      3  N   UNL     1      -2.503   1.531  24.715  0.00  0.00    -0.292 NA
ATOM      5  C   UNL     1      -2.637   2.986  24.848  0.00  0.00    +0.118 C 
ATOM      6  C   UNL     1      -1.362   3.838  24.733  0.00  0.00    +0.157 C 
ATOM      7  C   UNL     1      -1.510   1.105  23.727  0.00  0.00    +0.113 C 
ATOM      8  C   UNL     1      -0.132   3.218  25.383  0.00  0.00    +0.192 C 
ATOM     10  C   UNL     1      -0.124   1.050  24.372  0.00  0.00    +0.175 C 
ENDROOT
BRANCH   6   2
ATOM      2  O   UNL     1      -1.609   5.094  25.365  0.00  0.00    -0.376 OA
ATOM     12  C   UNL     1      -2.868   5.103  26.020  0.00  0.00    +0.194 C 
ENDBRANCH   6   2
BRANCH   3   9
ATOM      9  C   UNL     1      -3.810   0.928  24.456  0.00  0.00    +0.140 C 
BRANCH   9  11
ATOM      4  N   UNL     1      -4.258  -1.269  23.508  0.00  0.00    -0.259 NA
ATOM     11  C   UNL     1      -3.765  -0.574  24.557  0.00  0.00    +0.055 A 
ATOM     13  C   UNL     1      -3.231  -1.161  25.694  0.00  0.00    +0.024 A 
ATOM     14  C   UNL     1      -3.203  -2.549  25.757  0.00  0.00    +0.003 A 
ATOM     15  C   UNL     1      -4.214  -2.616  23.604  0.00  0.00    +0.111 A 
ATOM     16  C   UNL     1      -3.702  -3.299  24.696  0.00  0.00    +0.020 A 
ENDBRANCH   9  11
ENDBRANCH   3   9
TORSDOF 3
ENDMDL
MODEL 7
REMARK VINA RESULT:      -5.0      2.737      4.596
REMARK  Name = 75536938
REMARK  4 active torsions:
REMARK  status: ('A' for Active; 'I' for Inactive)
REMARK    1  A    between atoms: O_2  and  C_6
REMARK    2  A    between atoms: O_2  and  C_12
REMARK    3  A    between atoms: N_3  and  C_9
REMARK    4  A    between atoms: C_9  and  C_11
REMARK                            x       y       z     vdW  Elec       q    Type
REMARK                         _______ _______ _______ _____ _____    ______ ____
ROOT
ATOM      1  O   UNL     1       0.555   2.394  25.587  0.00  0.00    -0.376 OA
ATOM      3  N   UNL     1      -1.901   2.380  23.665  0.00  0.00    -0.292 NA
ATOM      5  C   UNL     1      -1.403   1.025  23.408  0.00  0.00    +0.118 C 
ATOM      6  C   UNL     1      -0.183   0.544  24.210  0.00  0.00    +0.157 C 
ATOM      7  C   UNL     1      -1.827   2.794  25.066  0.00  0.00    +0.113 C 
ATOM      8  C   UNL     1       0.877   1.612  24.440  0.00  0.00    +0.192 C 
ATOM     10  C   UNL     1      -0.445   3.378  25.366  0.00  0.00    +0.175 C 
ENDROOT
BRANCH   6   2
ATOM      2  O   UNL     1       0.424  -0.532  23.494  0.00  0.00    -0.376 OA
ATOM     12  C   UNL     1       1.394  -0.056  22.574  0.00  0.00    +0.194 C 
ENDBRANCH   6   2
BRANCH   3   9
ATOM      9  C   UNL     1      -3.255   2.528  23.132  0.00  0.00    +0.140 C 
BRANCH   9  11
ATOM      4  N   UNL     1      -4.701   3.589  24.778  0.00  0.00    -0.259 NA
ATOM     11  C   UNL     1      -4.298   2.428  24.215  0.00  0.00    +0.055 A 
ATOM     13  C   UNL     1      -4.784   1.181  24.574  0.00  0.00    +0.024 A 
ATOM     14  C   UNL     1      -5.746   1.122  25.576  0.00  0.00    +0.003 A 
ATOM     15  C   UNL     1      -5.638   3.493  25.748  0.00  0.00    +0.111 A 
ATOM     16  C   UNL     1      -6.187   2.296  26.180  0.00  0.00    +0.020 A 
ENDBRANCH   9  11
ENDBRANCH   3   9
TORSDOF 3
ENDMDL
MODEL 8
REMARK VINA RESULT:      -5.0      2.715      5.781
REMARK  Name = 75536938
REMARK  4 active torsions:
REMARK  status: ('A' for Active; 'I' for Inactive)
REMARK    1  A    between atoms: O_2  and  C_6
REMARK    2  A    between atoms: O_2  and  C_12
REMARK    3  A    between atoms: N_3  and  C_9
REMARK    4  A    between atoms: C_9  and  C_11
REMARK                            x       y       z     vdW  Elec       q    Type
REMARK                         _______ _______ _______ _____ _____    ______ ____
ROOT
ATOM      1  O   UNL     1      -2.441  -2.920  24.656  0.00  0.00    -0.376 OA
ATOM      3  N   UNL     1      -3.224   0.096  24.562  0.00  0.00    -0.292 NA
ATOM      5  C   UNL     1      -1.809   0.217  24.194  0.00  0.00    +0.118 C 
ATOM      6  C   UNL     1      -0.992  -1.077  24.051  0.00  0.00    +0.157 C 
ATOM      7  C   UNL     1      -3.907  -1.053  23.968  0.00  0.00    +0.113 C 
ATOM      8  C   UNL     1      -1.325  -2.146  25.083  0.00  0.00    +0.192 C 
ATOM     10  C   UNL     1      -3.701  -2.292  24.843  0.00  0.00    +0.175 C 
ENDROOT
BRANCH   6   2
ATOM      2  O   UNL     1       0.390  -0.747  24.188  0.00  0.00    -0.376 OA
ATOM     12  C   UNL     1       0.861  -0.024  23.062  0.00  0.00    +0.194 C 
ENDBRANCH   6   2
BRANCH   3   9
ATOM      9  C   UNL     1      -3.927   1.346  24.272  0.00  0.00    +0.140 C 
BRANCH   9  11
ATOM      4  N   UNL     1      -3.668   3.310  25.686  0.00  0.00    -0.259 NA
ATOM     11  C   UNL     1      -3.133   2.550  24.704  0.00  0.00    +0.055 A 
ATOM     13  C   UNL     1      -1.920   2.818  24.090  0.00  0.00    +0.024 A 
ATOM     14  C   UNL     1      -1.210   3.936  24.512  0.00  0.00    +0.003 A 
ATOM     15  C   UNL     1      -2.950   4.389  26.070  0.00  0.00    +0.111 A 
ATOM     16  C   UNL     1      -1.728   4.743  25.520  0.00  0.00    +0.020 A 
ENDBRANCH   9  11
ENDBRANCH   3   9
TORSDOF 3
ENDMDL
MODEL 9
REMARK VINA RESULT:      -4.4      3.093      5.649
REMARK  Name = 75536938
REMARK  4 active torsions:
REMARK  status: ('A' for Active; 'I' for Inactive)
REMARK    1  A    between atoms: O_2  and  C_6
REMARK    2  A    between atoms: O_2  and  C_12
REMARK    3  A    between atoms: N_3  and  C_9
REMARK    4  A    between atoms: C_9  and  C_11
REMARK                            x       y       z     vdW  Elec       q    Type
REMARK                         _______ _______ _______ _____ _____    ______ ____
ROOT
ATOM      1  O   UNL     1      -0.796  -1.621  24.905  0.00  0.00    -0.376 OA
ATOM      3  N   UNL     1      -0.401   1.468  25.067  0.00  0.00    -0.292 NA
ATOM      5  C   UNL     1       0.242   1.224  23.772  0.00  0.00    +0.118 C 
ATOM      6  C   UNL     1       0.238  -0.214  23.228  0.00  0.00    +0.157 C 
ATOM      7  C   UNL     1      -1.611   0.678  25.298  0.00  0.00    +0.113 C 
ATOM      8  C   UNL     1       0.444  -1.287  24.289  0.00  0.00    +0.192 C 
ATOM     10  C   UNL     1      -1.240  -0.688  25.879  0.00  0.00    +0.175 C 
ENDROOT
BRANCH   6   2
ATOM      2  O   UNL     1       1.293  -0.331  22.273  0.00  0.00    -0.376 OA
ATOM     12  C   UNL     1       2.492   0.256  22.756  0.00  0.00    +0.194 C 
ENDBRANCH   6   2
BRANCH   3   9
ATOM      9  C   UNL     1      -0.653   2.898  25.242  0.00  0.00    +0.140 C 
BRANCH   9  11
ATOM      4  N   UNL     1      -2.738   2.941  23.986  0.00  0.00    -0.259 NA
ATOM     11  C   UNL     1      -2.121   3.225  25.155  0.00  0.00    +0.055 A 
ATOM     13  C   UNL     1      -2.756   3.786  26.251  0.00  0.00    +0.024 A 
ATOM     14  C   UNL     1      -4.112   4.075  26.139  0.00  0.00    +0.003 A 
ATOM     15  C   UNL     1      -4.055   3.235  23.914  0.00  0.00    +0.111 A 
ATOM     16  C   UNL     1      -4.782   3.797  24.952  0.00  0.00    +0.020 A 
ENDBRANCH   9  11
ENDBRANCH   3   9
TORSDOF 3
ENDMDL
MODEL 10
REMARK VINA RESULT:      -4.2      1.652      2.212
REMARK  Name = 75536938
REMARK  4 active torsions:
REMARK  status: ('A' for Active; 'I' for Inactive)
REMARK    1  A    between atoms: O_2  and  C_6
REMARK    2  A    between atoms: O_2  and  C_12
REMARK    3  A    between atoms: N_3  and  C_9
REMARK    4  A    between atoms: C_9  and  C_11
REMARK                            x       y       z     vdW  Elec       q    Type
REMARK                         _______ _______ _______ _____ _____    ______ ____
ROOT
ATOM      1  O   UNL     1      -2.807   4.716  25.261  0.00  0.00    -0.376 OA
ATOM      3  N   UNL     1      -1.838   1.759  25.460  0.00  0.00    -0.292 NA
ATOM      5  C   UNL     1      -2.166   1.795  24.031  0.00  0.00    +0.118 C 
ATOM      6  C   UNL     1      -2.651   3.129  23.439  0.00  0.00    +0.157 C 
ATOM      7  C   UNL     1      -1.200   2.976  25.963  0.00  0.00    +0.113 C 
ATOM      8  C   UNL     1      -3.571   3.924  24.356  0.00  0.00    +0.192 C 
ATOM     10  C   UNL     1      -2.266   3.998  26.361  0.00  0.00    +0.175 C 
ENDROOT
BRANCH   6   2
ATOM      2  O   UNL     1      -3.365   2.847  22.236  0.00  0.00    -0.376 OA
ATOM     12  C   UNL     1      -2.612   2.007  21.374  0.00  0.00    +0.194 C 
ENDBRANCH   6   2
BRANCH   3   9
ATOM      9  C   UNL     1      -1.040   0.571  25.762  0.00  0.00    +0.140 C 
BRANCH   9  11
ATOM      4  N   UNL     1      -1.028  -1.548  24.564  0.00  0.00    -0.259 NA
ATOM     11  C   UNL     1      -1.736  -0.696  25.339  0.00  0.00    +0.055 A 
ATOM     13  C   UNL     1      -3.038  -0.924  25.753  0.00  0.00    +0.024 A 
ATOM     14  C   UNL     1      -3.653  -2.103  25.347  0.00  0.00    +0.003 A 
ATOM     15  C   UNL     1      -1.657  -2.683  24.188  0.00  0.00    +0.111 A 
ATOM     16  C   UNL     1      -2.956  -3.005  24.548  0.00  0.00    +0.020 A 
ENDBRANCH   9  11
ENDBRANCH   3   9
TORSDOF 3
ENDMDL
