MODEL 1
REMARK VINA RESULT:      -5.8      0.000      0.000
REMARK  Name = 86769012
REMARK  2 active torsions:
REMARK  status: ('A' for Active; 'I' for Inactive)
REMARK    1  A    between atoms: N_6  and  C_14
REMARK    2  A    between atoms: C_14  and  C_15
REMARK                            x       y       z     vdW  Elec       q    Type
REMARK                         _______ _______ _______ _____ _____    ______ ____
ROOT
ATOM      1  O   UNL     1      -5.441   2.732  26.115  0.00  0.00    -0.253 OA
ATOM      2  O   UNL     1      -0.499  -1.496  23.729  0.00  0.00    -0.253 OA
ATOM      3  N   UNL     1      -3.424   2.035  25.123  0.00  0.00    -0.278 N 
ATOM      4  N   UNL     1      -1.138   0.506  24.707  0.00  0.00    -0.282 N 
ATOM      5  N   UNL     1      -3.714   4.220  25.557  0.00  0.00    -0.297 N 
ATOM      6  N   UNL     1       0.749   0.375  23.288  0.00  0.00    -0.295 N 
ATOM      7  C   UNL     1      -2.255   2.683  24.553  0.00  0.00    +0.112 C 
ATOM      8  C   UNL     1      -0.986   1.951  24.979  0.00  0.00    +0.133 C 
ATOM      9  C   UNL     1      -2.364   4.121  25.052  0.00  0.00    +0.129 C 
ATOM     10  C   UNL     1      -3.587   0.596  25.002  0.00  0.00    +0.128 C 
ATOM     11  C   UNL     1      -2.288  -0.111  25.388  0.00  0.00    +0.128 C 
ATOM     12  C   UNL     1      -4.332   2.959  25.651  0.00  0.00    +0.303 C 
ATOM     13  C   UNL     1      -0.309  -0.287  23.898  0.00  0.00    +0.303 C 
ATOM     21  H   UNL     1      -4.141   5.081  25.884  0.00  0.00    +0.150 HD
ATOM     22  H   UNL     1       0.875   1.373  23.379  0.00  0.00    +0.151 HD
ENDROOT
BRANCH   6  14
ATOM     14  C   UNL     1       1.684  -0.309  22.423  0.00  0.00    +0.141 C 
BRANCH  14  15
ATOM     15  C   UNL     1       3.088  -0.249  22.954  0.00  0.00    -0.030 A 
ATOM     16  C   UNL     1       3.645  -1.367  23.576  0.00  0.00    +0.005 A 
ATOM     17  C   UNL     1       3.833   0.922  22.826  0.00  0.00    +0.005 A 
ATOM     18  C   UNL     1       4.949  -1.312  24.069  0.00  0.00    +0.000 A 
ATOM     19  C   UNL     1       5.136   0.977  23.320  0.00  0.00    +0.000 A 
ATOM     20  C   UNL     1       5.694  -0.140  23.941  0.00  0.00    +0.000 A 
ENDBRANCH  14  15
ENDBRANCH   6  14
TORSDOF 2
ENDMDL
