MODEL 1
REMARK VINA RESULT:      -0.6      0.000      0.000
REMARK  Name = 75536947
REMARK  4 active torsions:
REMARK  status: ('A' for Active; 'I' for Inactive)
REMARK    1  A    between atoms: O_2  and  C_9
REMARK    2  A    between atoms: O_2  and  C_18
REMARK    3  A    between atoms: O_5  and  C_23
REMARK    4  A    between atoms: O_5  and  C_24
REMARK                            x       y       z     vdW  Elec       q    Type
REMARK                         _______ _______ _______ _____ _____    ______ ____
ROOT
ATOM      1  O   UNL     1      -1.270  -1.627  25.877  0.00  0.00    -0.375 OA
ATOM      3  O   UNL     1      -6.172   3.815  25.925  0.00  0.00    -0.377 OA
ATOM      4  O   UNL     1      -3.099   1.711  22.628  0.00  0.00    -0.252 OA
ATOM      6  N   UNL     1      -3.167   0.131  24.316  0.00  0.00    -0.280 N 
ATOM      7  N   UNL     1      -4.451   2.149  24.437  0.00  0.00    -0.281 N 
ATOM      8  C   UNL     1      -2.614  -0.927  23.458  0.00  0.00    +0.156 C 
ATOM      9  C   UNL     1      -1.087  -1.008  23.462  0.00  0.00    +0.216 C 
ATOM     10  C   UNL     1      -3.109  -0.083  25.769  0.00  0.00    +0.137 C 
ATOM     11  C   UNL     1      -0.464  -1.653  24.705  0.00  0.00    +0.206 C 
ATOM     12  C   UNL     1      -3.544   1.352  23.726  0.00  0.00    +0.305 C 
ATOM     13  C   UNL     1      -5.749   1.656  24.915  0.00  0.00    +0.137 C 
ATOM     14  C   UNL     1      -4.395   3.601  24.288  0.00  0.00    +0.137 C 
ATOM     15  C   UNL     1      -1.691  -0.328  26.272  0.00  0.00    +0.179 C 
ATOM     16  C   UNL     1      -6.168   2.405  26.171  0.00  0.00    +0.179 C 
ATOM     17  C   UNL     1      -4.869   4.281  25.565  0.00  0.00    +0.179 C 
ENDROOT
BRANCH   9   2
ATOM      2  O   UNL     1      -0.540   0.295  23.261  0.00  0.00    -0.485 OA
BRANCH   2  18
ATOM     18  C   UNL     1       0.806   0.364  23.034  0.00  0.00    +0.121 A 
ATOM     19  C   UNL     1       1.593   1.255  23.764  0.00  0.00    +0.049 A 
ATOM     20  C   UNL     1       1.392  -0.457  22.071  0.00  0.00    +0.049 A 
ATOM     21  C   UNL     1       2.966   1.326  23.530  0.00  0.00    +0.049 A 
ATOM     22  C   UNL     1       2.766  -0.386  21.837  0.00  0.00    +0.049 A 
ATOM     23  C   UNL     1       3.552   0.504  22.567  0.00  0.00    +0.120 A 
BRANCH  23   5
ATOM      5  O   UNL     1       4.893   0.573  22.340  0.00  0.00    -0.495 OA
ATOM     24  C   UNL     1       5.752   0.108  23.381  0.00  0.00    +0.277 C 
ENDBRANCH  23   5
ENDBRANCH   2  18
ENDBRANCH   9   2
TORSDOF 3
ENDMDL
MODEL 2
REMARK VINA RESULT:       2.5      2.635      7.280
REMARK  Name = 75536947
REMARK  4 active torsions:
REMARK  status: ('A' for Active; 'I' for Inactive)
REMARK    1  A    between atoms: O_2  and  C_9
REMARK    2  A    between atoms: O_2  and  C_18
REMARK    3  A    between atoms: O_5  and  C_23
REMARK    4  A    between atoms: O_5  and  C_24
REMARK                            x       y       z     vdW  Elec       q    Type
REMARK                         _______ _______ _______ _____ _____    ______ ____
ROOT
ATOM      1  O   UNL     1      -0.664   3.539  25.694  0.00  0.00    -0.375 OA
ATOM      3  O   UNL     1       5.031  -0.178  22.975  0.00  0.00    -0.377 OA
ATOM      4  O   UNL     1       0.102  -0.777  23.280  0.00  0.00    -0.252 OA
ATOM      6  N   UNL     1       0.354   1.477  23.735  0.00  0.00    -0.280 N 
ATOM      7  N   UNL     1       2.234   0.086  23.219  0.00  0.00    -0.281 N 
ATOM      8  C   UNL     1      -1.067   1.767  23.492  0.00  0.00    +0.156 C 
ATOM      9  C   UNL     1      -1.958   1.630  24.727  0.00  0.00    +0.216 C 
ATOM     10  C   UNL     1       1.124   2.475  24.492  0.00  0.00    +0.137 C 
ATOM     11  C   UNL     1      -1.868   2.781  25.736  0.00  0.00    +0.206 C 
ATOM     12  C   UNL     1       0.850   0.202  23.403  0.00  0.00    +0.305 C 
ATOM     13  C   UNL     1       2.992   0.932  22.289  0.00  0.00    +0.137 C 
ATOM     14  C   UNL     1       2.892  -1.181  23.527  0.00  0.00    +0.137 C 
ATOM     15  C   UNL     1       0.520   2.772  25.859  0.00  0.00    +0.179 C 
ATOM     16  C   UNL     1       4.423   1.103  22.776  0.00  0.00    +0.179 C 
ATOM     17  C   UNL     1       4.329  -0.935  23.965  0.00  0.00    +0.179 C 
ENDROOT
BRANCH   9   2
ATOM      2  O   UNL     1      -1.686   0.389  25.377  0.00  0.00    -0.485 OA
BRANCH   2  18
ATOM     18  C   UNL     1      -2.404  -0.693  24.950  0.00  0.00    +0.121 A 
ATOM     19  C   UNL     1      -3.654  -0.512  24.358  0.00  0.00    +0.049 A 
ATOM     20  C   UNL     1      -1.887  -1.979  25.108  0.00  0.00    +0.049 A 
ATOM     21  C   UNL     1      -4.387  -1.617  23.925  0.00  0.00    +0.049 A 
ATOM     22  C   UNL     1      -2.620  -3.084  24.675  0.00  0.00    +0.049 A 
ATOM     23  C   UNL     1      -3.869  -2.903  24.083  0.00  0.00    +0.120 A 
BRANCH  23   5
ATOM      5  O   UNL     1      -4.585  -3.981  23.659  0.00  0.00    -0.495 OA
ATOM     24  C   UNL     1      -5.728  -3.721  22.844  0.00  0.00    +0.277 C 
ENDBRANCH  23   5
ENDBRANCH   2  18
ENDBRANCH   9   2
TORSDOF 3
ENDMDL
MODEL 3
REMARK VINA RESULT:       2.7      2.417      4.867
REMARK  Name = 75536947
REMARK  4 active torsions:
REMARK  status: ('A' for Active; 'I' for Inactive)
REMARK    1  A    between atoms: O_2  and  C_9
REMARK    2  A    between atoms: O_2  and  C_18
REMARK    3  A    between atoms: O_5  and  C_23
REMARK    4  A    between atoms: O_5  and  C_24
REMARK                            x       y       z     vdW  Elec       q    Type
REMARK                         _______ _______ _______ _____ _____    ______ ____
ROOT
ATOM      1  O   UNL     1      -0.517   0.716  22.345  0.00  0.00    -0.375 OA
ATOM      3  O   UNL     1      -5.857   4.788  25.269  0.00  0.00    -0.377 OA
ATOM      4  O   UNL     1      -1.370   3.137  26.642  0.00  0.00    -0.252 OA
ATOM      6  N   UNL     1      -1.330   2.825  24.350  0.00  0.00    -0.280 N 
ATOM      7  N   UNL     1      -3.223   3.798  25.449  0.00  0.00    -0.281 N 
ATOM      8  C   UNL     1       0.132   2.680  24.314  0.00  0.00    +0.156 C 
ATOM      9  C   UNL     1       0.627   1.245  24.504  0.00  0.00    +0.216 C 
ATOM     10  C   UNL     1      -2.084   2.332  23.187  0.00  0.00    +0.137 C 
ATOM     11  C   UNL     1       0.479   0.328  23.285  0.00  0.00    +0.206 C 
ATOM     12  C   UNL     1      -1.938   3.247  25.547  0.00  0.00    +0.305 C 
ATOM     13  C   UNL     1      -3.547   4.921  24.560  0.00  0.00    +0.137 C 
ATOM     14  C   UNL     1      -4.152   3.649  26.566  0.00  0.00    +0.137 C 
ATOM     15  C   UNL     1      -1.820   0.860  22.895  0.00  0.00    +0.179 C 
ATOM     16  C   UNL     1      -5.002   4.846  24.123  0.00  0.00    +0.179 C 
ATOM     17  C   UNL     1      -5.587   3.625  26.058  0.00  0.00    +0.179 C 
ENDROOT
BRANCH   9   2
ATOM      2  O   UNL     1      -0.022   0.663  25.635  0.00  0.00    -0.485 OA
BRANCH   2  18
ATOM     18  C   UNL     1      -0.931  -0.324  25.375  0.00  0.00    +0.121 A 
ATOM     19  C   UNL     1      -0.518  -1.515  24.780  0.00  0.00    +0.049 A 
ATOM     20  C   UNL     1      -2.274  -0.138  25.705  0.00  0.00    +0.049 A 
ATOM     21  C   UNL     1      -1.446  -2.521  24.513  0.00  0.00    +0.049 A 
ATOM     22  C   UNL     1      -3.203  -1.145  25.439  0.00  0.00    +0.049 A 
ATOM     23  C   UNL     1      -2.789  -2.336  24.844  0.00  0.00    +0.120 A 
BRANCH  23   5
ATOM      5  O   UNL     1      -3.695  -3.318  24.585  0.00  0.00    -0.495 OA
ATOM     24  C   UNL     1      -4.642  -3.070  23.546  0.00  0.00    +0.277 C 
ENDBRANCH  23   5
ENDBRANCH   2  18
ENDBRANCH   9   2
TORSDOF 3
ENDMDL
MODEL 4
REMARK VINA RESULT:       3.2      2.215      4.958
REMARK  Name = 75536947
REMARK  4 active torsions:
REMARK  status: ('A' for Active; 'I' for Inactive)
REMARK    1  A    between atoms: O_2  and  C_9
REMARK    2  A    between atoms: O_2  and  C_18
REMARK    3  A    between atoms: O_5  and  C_23
REMARK    4  A    between atoms: O_5  and  C_24
REMARK                            x       y       z     vdW  Elec       q    Type
REMARK                         _______ _______ _______ _____ _____    ______ ____
ROOT
ATOM      1  O   UNL     1      -3.502   3.380  22.628  0.00  0.00    -0.375 OA
ATOM      3  O   UNL     1      -3.361  -3.797  24.083  0.00  0.00    -0.377 OA
ATOM      4  O   UNL     1      -4.392   0.399  26.548  0.00  0.00    -0.252 OA
ATOM      6  N   UNL     1      -4.474   1.090  24.342  0.00  0.00    -0.280 N 
ATOM      7  N   UNL     1      -4.035  -1.191  24.924  0.00  0.00    -0.281 N 
ATOM      8  C   UNL     1      -5.194   2.328  24.673  0.00  0.00    +0.156 C 
ATOM      9  C   UNL     1      -4.287   3.517  24.998  0.00  0.00    +0.216 C 
ATOM     10  C   UNL     1      -3.804   1.031  23.035  0.00  0.00    +0.137 C 
ATOM     11  C   UNL     1      -3.626   4.192  23.790  0.00  0.00    +0.206 C 
ATOM     12  C   UNL     1      -4.306   0.117  25.345  0.00  0.00    +0.305 C 
ATOM     13  C   UNL     1      -4.882  -1.917  23.969  0.00  0.00    +0.137 C 
ATOM     14  C   UNL     1      -3.232  -2.065  25.776  0.00  0.00    +0.137 C 
ATOM     15  C   UNL     1      -2.802   2.161  22.835  0.00  0.00    +0.179 C 
ATOM     16  C   UNL     1      -4.052  -2.922  23.185  0.00  0.00    +0.179 C 
ATOM     17  C   UNL     1      -2.466  -3.069  24.927  0.00  0.00    +0.179 C 
ENDROOT
BRANCH   9   2
ATOM      2  O   UNL     1      -3.292   3.113  25.938  0.00  0.00    -0.485 OA
BRANCH   2  18
ATOM     18  C   UNL     1      -2.057   2.820  25.430  0.00  0.00    +0.121 A 
ATOM     19  C   UNL     1      -1.267   3.832  24.885  0.00  0.00    +0.049 A 
ATOM     20  C   UNL     1      -1.586   1.507  25.458  0.00  0.00    +0.049 A 
ATOM     21  C   UNL     1      -0.008   3.532  24.366  0.00  0.00    +0.049 A 
ATOM     22  C   UNL     1      -0.326   1.207  24.938  0.00  0.00    +0.049 A 
ATOM     23  C   UNL     1       0.462   2.219  24.393  0.00  0.00    +0.120 A 
BRANCH  23   5
ATOM      5  O   UNL     1       1.692   1.927  23.888  0.00  0.00    -0.495 OA
ATOM     24  C   UNL     1       1.828   0.691  23.187  0.00  0.00    +0.277 C 
ENDBRANCH  23   5
ENDBRANCH   2  18
ENDBRANCH   9   2
TORSDOF 3
ENDMDL
