MODEL 1
REMARK VINA RESULT:       7.2      0.000      0.000
REMARK  Name = 23899975
REMARK  12 active torsions:
REMARK  status: ('A' for Active; 'I' for Inactive)
REMARK    1  A    between atoms: O_3  and  C_17
REMARK    2  A    between atoms: O_3  and  C_27
REMARK    3  A    between atoms: O_4  and  C_18
REMARK    4  A    between atoms: O_5  and  C_23
REMARK    5  A    between atoms: O_8  and  C_31
REMARK    6  A    between atoms: N_10  and  C_32
REMARK    7  A    between atoms: C_11  and  C_21
REMARK    8  A    between atoms: C_13  and  C_23
REMARK    9  A    between atoms: C_13  and  C_24
REMARK   10  A    between atoms: C_14  and  C_22
REMARK   11  A    between atoms: C_22  and  C_25
REMARK   12  A    between atoms: C_26  and  C_31
REMARK                            x       y       z     vdW  Elec       q    Type
REMARK                         _______ _______ _______ _____ _____    ______ ____
ROOT
ATOM     11  C   UNL     1      -3.939   1.465  25.015  0.00  0.00    -0.023 C 
ATOM     12  C   UNL     1      -4.595   0.214  24.312  0.00  0.00    +0.007 C 
ATOM     13  C   UNL     1      -3.696  -1.074  24.176  0.00  0.00    +0.031 C 
ATOM     14  C   UNL     1      -4.894   2.701  24.747  0.00  0.00    +0.032 C 
ATOM     15  C   UNL     1      -2.560   1.733  24.355  0.00  0.00    +0.011 C 
ATOM     16  C   UNL     1      -6.015  -0.046  24.863  0.00  0.00    +0.007 C 
ATOM     17  C   UNL     1      -2.316  -0.664  23.578  0.00  0.00    +0.186 C 
ATOM     18  C   UNL     1      -6.354   2.460  25.198  0.00  0.00    +0.119 C 
ATOM     19  C   UNL     1      -1.656   0.507  24.299  0.00  0.00    +0.046 C 
ATOM     20  C   UNL     1      -6.926   1.161  24.639  0.00  0.00    +0.032 C 
ATOM     21  C   UNL     1      -3.713   1.274  26.535  0.00  0.00    +0.012 C 
ATOM     24  C   UNL     1      -4.364  -2.058  23.172  0.00  0.00    +0.017 C 
ENDROOT
BRANCH  18   4
ATOM      4  O   UNL     1      -6.452   2.457  26.619  0.00  0.00    -0.391 OA
ATOM     38  H   UNL     1      -6.113   3.309  26.941  0.00  0.00    +0.210 HD
ENDBRANCH  18   4
BRANCH  17   3
ATOM      3  O   UNL     1      -1.385  -1.747  23.600  0.00  0.00    -0.446 OA
BRANCH   3  27
ATOM      7  O   UNL     1       0.174  -1.671  25.271  0.00  0.00    -0.226 OA
ATOM     10  N   UNL     1       0.644  -0.943  23.096  0.00  0.00    -0.251 N 
ATOM     27  C   UNL     1      -0.140  -1.467  24.105  0.00  0.00    +0.405 C 
ATOM     40  H   UNL     1       0.201  -0.850  22.185  0.00  0.00    +0.158 HD
BRANCH  10  32
ATOM      1 CL   UNL     1       5.483  -2.119  24.231  0.00  0.00    -0.082 Cl
ATOM      2 CL   UNL     1       6.271   0.907  23.394  0.00  0.00    -0.082 Cl
ATOM     32  C   UNL     1       1.990  -0.517  23.172  0.00  0.00    +0.038 A 
ATOM     33  C   UNL     1       2.978  -1.400  23.606  0.00  0.00    +0.044 A 
ATOM     34  C   UNL     1       2.330   0.787  22.812  0.00  0.00    +0.025 A 
ATOM     35  C   UNL     1       4.305  -0.980  23.682  0.00  0.00    +0.061 A 
ATOM     36  C   UNL     1       3.657   1.208  22.887  0.00  0.00    +0.023 A 
ATOM     37  C   UNL     1       4.645   0.324  23.322  0.00  0.00    +0.059 A 
ENDBRANCH  10  32
ENDBRANCH   3  27
ENDBRANCH  17   3
BRANCH  14  22
ATOM     22  C   UNL     1      -4.391   4.042  25.305  0.00  0.00    +0.102 C 
BRANCH  22  25
ATOM      6  O   UNL     1      -3.357   5.092  23.435  0.00  0.00    -0.276 OA
ATOM      9  N   UNL     1      -1.961   4.233  25.069  0.00  0.00    -0.296 N 
ATOM     25  C   UNL     1      -3.198   4.509  24.509  0.00  0.00    +0.216 C 
ATOM     26  C   UNL     1      -0.705   4.700  24.478  0.00  0.00    +0.101 C 
ATOM     28  C   UNL     1      -1.726   3.547  26.337  0.00  0.00    +0.108 C 
ATOM     29  C   UNL     1       0.308   4.560  25.618  0.00  0.00    +0.026 C 
ATOM     30  C   UNL     1      -0.217   3.369  26.411  0.00  0.00    +0.021 C 
BRANCH  26  31
ATOM     31  C   UNL     1      -0.318   3.868  23.257  0.00  0.00    +0.178 C 
BRANCH  31   8
ATOM      8  O   UNL     1       0.645   2.910  23.654  0.00  0.00    -0.393 OA
ATOM     41  H   UNL     1       1.462   3.104  23.163  0.00  0.00    +0.209 HD
ENDBRANCH  31   8
ENDBRANCH  26  31
ENDBRANCH  22  25
ENDBRANCH  14  22
BRANCH  13  23
ATOM     23  C   UNL     1      -3.528  -1.866  25.489  0.00  0.00    +0.166 C 
BRANCH  23   5
ATOM      5  O   UNL     1      -3.401  -3.232  25.158  0.00  0.00    -0.394 OA
ATOM     39  H   UNL     1      -3.804  -3.356  24.281  0.00  0.00    +0.209 HD
ENDBRANCH  23   5
ENDBRANCH  13  23
TORSDOF 10
ENDMDL
MODEL 2
REMARK VINA RESULT:       8.6      1.157      1.797
REMARK  Name = 23899975
REMARK  12 active torsions:
REMARK  status: ('A' for Active; 'I' for Inactive)
REMARK    1  A    between atoms: O_3  and  C_17
REMARK    2  A    between atoms: O_3  and  C_27
REMARK    3  A    between atoms: O_4  and  C_18
REMARK    4  A    between atoms: O_5  and  C_23
REMARK    5  A    between atoms: O_8  and  C_31
REMARK    6  A    between atoms: N_10  and  C_32
REMARK    7  A    between atoms: C_11  and  C_21
REMARK    8  A    between atoms: C_13  and  C_23
REMARK    9  A    between atoms: C_13  and  C_24
REMARK   10  A    between atoms: C_14  and  C_22
REMARK   11  A    between atoms: C_22  and  C_25
REMARK   12  A    between atoms: C_26  and  C_31
REMARK                            x       y       z     vdW  Elec       q    Type
REMARK                         _______ _______ _______ _____ _____    ______ ____
ROOT
ATOM     11  C   UNL     1      -3.735   1.486  24.471  0.00  0.00    -0.023 C 
ATOM     12  C   UNL     1      -4.507   0.112  24.405  0.00  0.00    +0.007 C 
ATOM     13  C   UNL     1      -3.641  -1.195  24.582  0.00  0.00    +0.031 C 
ATOM     14  C   UNL     1      -4.735   2.603  23.955  0.00  0.00    +0.032 C 
ATOM     15  C   UNL     1      -2.516   1.412  23.514  0.00  0.00    +0.011 C 
ATOM     16  C   UNL     1      -5.788   0.157  25.267  0.00  0.00    +0.007 C 
ATOM     17  C   UNL     1      -2.409  -1.114  23.630  0.00  0.00    +0.186 C 
ATOM     18  C   UNL     1      -6.075   2.633  24.726  0.00  0.00    +0.119 C 
ATOM     19  C   UNL     1      -1.630   0.192  23.741  0.00  0.00    +0.046 C 
ATOM     20  C   UNL     1      -6.736   1.260  24.794  0.00  0.00    +0.032 C 
ATOM     21  C   UNL     1      -3.213   1.837  25.886  0.00  0.00    +0.012 C 
ATOM     24  C   UNL     1      -4.486  -2.427  24.146  0.00  0.00    +0.017 C 
ENDROOT
BRANCH  18   4
ATOM      4  O   UNL     1      -5.892   3.145  26.043  0.00  0.00    -0.391 OA
ATOM     38  H   UNL     1      -5.325   3.932  25.979  0.00  0.00    +0.210 HD
ENDBRANCH  18   4
BRANCH  17   3
ATOM      3  O   UNL     1      -1.484  -2.176  23.870  0.00  0.00    -0.446 OA
BRANCH   3  27
ATOM      7  O   UNL     1       0.044  -1.841  25.539  0.00  0.00    -0.226 OA
ATOM     10  N   UNL     1       0.544  -1.421  23.291  0.00  0.00    -0.251 N 
ATOM     27  C   UNL     1      -0.252  -1.809  24.351  0.00  0.00    +0.405 C 
ATOM     40  H   UNL     1       0.117  -1.464  22.369  0.00  0.00    +0.158 HD
BRANCH  10  32
ATOM      1 CL   UNL     1       3.857   2.338  22.298  0.00  0.00    -0.082 Cl
ATOM      2 CL   UNL     1       6.181   0.416  23.474  0.00  0.00    -0.082 Cl
ATOM     32  C   UNL     1       1.883  -0.968  23.328  0.00  0.00    +0.038 A 
ATOM     33  C   UNL     1       2.202   0.306  22.860  0.00  0.00    +0.044 A 
ATOM     34  C   UNL     1       2.885  -1.797  23.834  0.00  0.00    +0.025 A 
ATOM     35  C   UNL     1       3.524   0.751  22.896  0.00  0.00    +0.061 A 
ATOM     36  C   UNL     1       4.206  -1.351  23.871  0.00  0.00    +0.023 A 
ATOM     37  C   UNL     1       4.525  -0.077  23.402  0.00  0.00    +0.059 A 
ENDBRANCH  10  32
ENDBRANCH   3  27
ENDBRANCH  17   3
BRANCH  14  22
ATOM     22  C   UNL     1      -4.142   4.020  23.884  0.00  0.00    +0.102 C 
BRANCH  22  25
ATOM      6  O   UNL     1      -3.300   4.530  26.052  0.00  0.00    -0.276 OA
ATOM      9  N   UNL     1      -1.767   3.859  24.455  0.00  0.00    -0.296 N 
ATOM     25  C   UNL     1      -3.041   4.163  24.905  0.00  0.00    +0.216 C 
ATOM     26  C   UNL     1      -0.599   3.851  25.338  0.00  0.00    +0.101 C 
ATOM     28  C   UNL     1      -1.413   3.420  23.107  0.00  0.00    +0.108 C 
ATOM     29  C   UNL     1       0.449   3.059  24.550  0.00  0.00    +0.026 C 
ATOM     30  C   UNL     1       0.107   3.372  23.097  0.00  0.00    +0.021 C 
BRANCH  26  31
ATOM     31  C   UNL     1      -0.129   5.269  25.656  0.00  0.00    +0.178 C 
BRANCH  31   8
ATOM      8  O   UNL     1      -0.925   6.181  24.923  0.00  0.00    -0.393 OA
ATOM     41  H   UNL     1      -0.508   7.056  25.003  0.00  0.00    +0.209 HD
ENDBRANCH  31   8
ENDBRANCH  26  31
ENDBRANCH  22  25
ENDBRANCH  14  22
BRANCH  13  23
ATOM     23  C   UNL     1      -3.213  -1.474  26.037  0.00  0.00    +0.166 C 
BRANCH  23   5
ATOM      5  O   UNL     1      -3.179  -2.873  26.217  0.00  0.00    -0.394 OA
ATOM     39  H   UNL     1      -3.462  -3.280  25.381  0.00  0.00    +0.209 HD
ENDBRANCH  23   5
ENDBRANCH  13  23
TORSDOF 10
ENDMDL
MODEL 3
REMARK VINA RESULT:       9.4      1.945      4.760
REMARK  Name = 23899975
REMARK  12 active torsions:
REMARK  status: ('A' for Active; 'I' for Inactive)
REMARK    1  A    between atoms: O_3  and  C_17
REMARK    2  A    between atoms: O_3  and  C_27
REMARK    3  A    between atoms: O_4  and  C_18
REMARK    4  A    between atoms: O_5  and  C_23
REMARK    5  A    between atoms: O_8  and  C_31
REMARK    6  A    between atoms: N_10  and  C_32
REMARK    7  A    between atoms: C_11  and  C_21
REMARK    8  A    between atoms: C_13  and  C_23
REMARK    9  A    between atoms: C_13  and  C_24
REMARK   10  A    between atoms: C_14  and  C_22
REMARK   11  A    between atoms: C_22  and  C_25
REMARK   12  A    between atoms: C_26  and  C_31
REMARK                            x       y       z     vdW  Elec       q    Type
REMARK                         _______ _______ _______ _____ _____    ______ ____
ROOT
ATOM     11  C   UNL     1      -3.418   1.498  24.902  0.00  0.00    -0.023 C 
ATOM     12  C   UNL     1      -2.988   3.009  25.052  0.00  0.00    +0.007 C 
ATOM     13  C   UNL     1      -1.665   3.445  24.314  0.00  0.00    +0.031 C 
ATOM     14  C   UNL     1      -4.562   1.235  25.968  0.00  0.00    +0.032 C 
ATOM     15  C   UNL     1      -2.195   0.604  25.235  0.00  0.00    +0.011 C 
ATOM     16  C   UNL     1      -4.192   3.950  24.826  0.00  0.00    +0.007 C 
ATOM     17  C   UNL     1      -0.536   2.427  24.663  0.00  0.00    +0.186 C 
ATOM     18  C   UNL     1      -5.756   2.211  25.843  0.00  0.00    +0.119 C 
ATOM     19  C   UNL     1      -0.935   0.970  24.458  0.00  0.00    +0.046 C 
ATOM     20  C   UNL     1      -5.312   3.670  25.828  0.00  0.00    +0.032 C 
ATOM     21  C   UNL     1      -3.907   1.132  23.480  0.00  0.00    +0.012 C 
ATOM     24  C   UNL     1      -1.218   4.836  24.849  0.00  0.00    +0.017 C 
ENDROOT
BRANCH  18   4
ATOM      4  O   UNL     1      -6.522   1.929  24.677  0.00  0.00    -0.391 OA
ATOM     38  H   UNL     1      -6.829   2.776  24.312  0.00  0.00    +0.210 HD
ENDBRANCH  18   4
BRANCH  17   3
ATOM      3  O   UNL     1       0.640   2.653  23.885  0.00  0.00    -0.446 OA
BRANCH   3  27
ATOM      7  O   UNL     1       0.850   0.455  23.290  0.00  0.00    -0.226 OA
ATOM     10  N   UNL     1       2.706   1.861  23.535  0.00  0.00    -0.251 N 
ATOM     27  C   UNL     1       1.363   1.538  23.541  0.00  0.00    +0.405 C 
ATOM     40  H   UNL     1       2.938   2.822  23.773  0.00  0.00    +0.158 HD
BRANCH  10  32
ATOM      1 CL   UNL     1       6.528  -1.030  25.303  0.00  0.00    -0.082 Cl
ATOM      2 CL   UNL     1       7.292  -1.664  22.222  0.00  0.00    -0.082 Cl
ATOM     32  C   UNL     1       3.802   1.018  23.238  0.00  0.00    +0.038 A 
ATOM     33  C   UNL     1       4.553   0.460  24.272  0.00  0.00    +0.044 A 
ATOM     34  C   UNL     1       4.132   0.745  21.910  0.00  0.00    +0.025 A 
ATOM     35  C   UNL     1       5.634  -0.371  23.979  0.00  0.00    +0.061 A 
ATOM     36  C   UNL     1       5.213  -0.086  21.617  0.00  0.00    +0.023 A 
ATOM     37  C   UNL     1       5.964  -0.644  22.651  0.00  0.00    +0.059 A 
ENDBRANCH  10  32
ENDBRANCH   3  27
ENDBRANCH  17   3
BRANCH  14  22
ATOM     22  C   UNL     1      -5.076  -0.213  26.021  0.00  0.00    +0.102 C 
BRANCH  22  25
ATOM      6  O   UNL     1      -3.083  -1.155  26.922  0.00  0.00    -0.276 OA
ATOM      9  N   UNL     1      -3.849  -2.024  24.920  0.00  0.00    -0.296 N 
ATOM     25  C   UNL     1      -3.908  -1.169  26.007  0.00  0.00    +0.216 C 
ATOM     26  C   UNL     1      -2.840  -3.077  24.797  0.00  0.00    +0.101 C 
ATOM     28  C   UNL     1      -4.804  -2.076  23.815  0.00  0.00    +0.108 C 
ATOM     29  C   UNL     1      -3.412  -4.008  23.725  0.00  0.00    +0.026 C 
ATOM     30  C   UNL     1      -4.205  -3.065  22.827  0.00  0.00    +0.021 C 
BRANCH  26  31
ATOM     31  C   UNL     1      -1.481  -2.505  24.398  0.00  0.00    +0.178 C 
BRANCH  31   8
ATOM      8  O   UNL     1      -0.679  -2.402  25.560  0.00  0.00    -0.393 OA
ATOM     41  H   UNL     1       0.246  -2.344  25.267  0.00  0.00    +0.209 HD
ENDBRANCH  31   8
ENDBRANCH  26  31
ENDBRANCH  22  25
ENDBRANCH  14  22
BRANCH  13  23
ATOM     23  C   UNL     1      -1.820   3.613  22.789  0.00  0.00    +0.166 C 
BRANCH  23   5
ATOM      5  O   UNL     1      -1.629   2.349  22.192  0.00  0.00    -0.394 OA
ATOM     39  H   UNL     1      -2.483   2.075  21.816  0.00  0.00    +0.209 HD
ENDBRANCH  23   5
ENDBRANCH  13  23
TORSDOF 10
ENDMDL
MODEL 4
REMARK VINA RESULT:      10.6      1.701      4.790
REMARK  Name = 23899975
REMARK  12 active torsions:
REMARK  status: ('A' for Active; 'I' for Inactive)
REMARK    1  A    between atoms: O_3  and  C_17
REMARK    2  A    between atoms: O_3  and  C_27
REMARK    3  A    between atoms: O_4  and  C_18
REMARK    4  A    between atoms: O_5  and  C_23
REMARK    5  A    between atoms: O_8  and  C_31
REMARK    6  A    between atoms: N_10  and  C_32
REMARK    7  A    between atoms: C_11  and  C_21
REMARK    8  A    between atoms: C_13  and  C_23
REMARK    9  A    between atoms: C_13  and  C_24
REMARK   10  A    between atoms: C_14  and  C_22
REMARK   11  A    between atoms: C_22  and  C_25
REMARK   12  A    between atoms: C_26  and  C_31
REMARK                            x       y       z     vdW  Elec       q    Type
REMARK                         _______ _______ _______ _____ _____    ______ ____
ROOT
ATOM     11  C   UNL     1      -4.220   1.966  24.472  0.00  0.00    -0.023 C 
ATOM     12  C   UNL     1      -3.983   3.178  25.454  0.00  0.00    +0.007 C 
ATOM     13  C   UNL     1      -2.862   4.210  25.047  0.00  0.00    +0.031 C 
ATOM     14  C   UNL     1      -5.138   0.924  25.237  0.00  0.00    +0.032 C 
ATOM     15  C   UNL     1      -2.849   1.309  24.163  0.00  0.00    +0.011 C 
ATOM     16  C   UNL     1      -5.325   3.817  25.876  0.00  0.00    +0.007 C 
ATOM     17  C   UNL     1      -1.565   3.426  24.684  0.00  0.00    +0.186 C 
ATOM     18  C   UNL     1      -6.459   1.535  25.761  0.00  0.00    +0.119 C 
ATOM     19  C   UNL     1      -1.788   2.294  23.687  0.00  0.00    +0.046 C 
ATOM     20  C   UNL     1      -6.226   2.801  26.578  0.00  0.00    +0.032 C 
ATOM     21  C   UNL     1      -4.869   2.376  23.128  0.00  0.00    +0.012 C 
ATOM     24  C   UNL     1      -2.533   5.113  26.271  0.00  0.00    +0.017 C 
ENDROOT
BRANCH  18   4
ATOM      4  O   UNL     1      -7.351   1.812  24.687  0.00  0.00    -0.391 OA
ATOM     38  H   UNL     1      -7.861   2.606  24.922  0.00  0.00    +0.210 HD
ENDBRANCH  18   4
BRANCH  17   3
ATOM      3  O   UNL     1      -0.566   4.283  24.128  0.00  0.00    -0.446 OA
BRANCH   3  27
ATOM      7  O   UNL     1       1.257   4.220  22.749  0.00  0.00    -0.226 OA
ATOM     10  N   UNL     1       0.569   2.356  23.987  0.00  0.00    -0.251 N 
ATOM     27  C   UNL     1       0.506   3.661  23.539  0.00  0.00    +0.405 C 
ATOM     40  H   UNL     1      -0.150   2.074  24.648  0.00  0.00    +0.158 HD
BRANCH  10  32
ATOM      1 CL   UNL     1       5.483   1.017  23.595  0.00  0.00    -0.082 Cl
ATOM      2 CL   UNL     1       4.471  -1.859  22.510  0.00  0.00    -0.082 Cl
ATOM     32  C   UNL     1       1.511   1.361  23.639  0.00  0.00    +0.038 A 
ATOM     33  C   UNL     1       2.876   1.619  23.765  0.00  0.00    +0.044 A 
ATOM     34  C   UNL     1       1.076   0.122  23.171  0.00  0.00    +0.025 A 
ATOM     35  C   UNL     1       3.806   0.637  23.421  0.00  0.00    +0.061 A 
ATOM     36  C   UNL     1       2.005  -0.860  22.828  0.00  0.00    +0.023 A 
ATOM     37  C   UNL     1       3.370  -0.602  22.953  0.00  0.00    +0.059 A 
ENDBRANCH  10  32
ENDBRANCH   3  27
ENDBRANCH  17   3
BRANCH  14  22
ATOM     22  C   UNL     1      -5.434  -0.370  24.460  0.00  0.00    +0.102 C 
BRANCH  22  25
ATOM      6  O   UNL     1      -4.014  -1.212  22.745  0.00  0.00    -0.276 OA
ATOM      9  N   UNL     1      -3.166  -1.183  24.897  0.00  0.00    -0.296 N 
ATOM     25  C   UNL     1      -4.145  -0.959  23.943  0.00  0.00    +0.216 C 
ATOM     26  C   UNL     1      -1.825  -1.659  24.554  0.00  0.00    +0.101 C 
ATOM     28  C   UNL     1      -3.277  -0.899  26.325  0.00  0.00    +0.108 C 
ATOM     29  C   UNL     1      -0.995  -1.338  25.800  0.00  0.00    +0.026 C 
ATOM     30  C   UNL     1      -2.004  -1.462  26.937  0.00  0.00    +0.021 C 
BRANCH  26  31
ATOM     31  C   UNL     1      -1.826  -3.152  24.231  0.00  0.00    +0.178 C 
BRANCH  31   8
ATOM      8  O   UNL     1      -3.163  -3.615  24.259  0.00  0.00    -0.393 OA
ATOM     41  H   UNL     1      -3.671  -2.995  24.809  0.00  0.00    +0.209 HD
ENDBRANCH  31   8
ENDBRANCH  26  31
ENDBRANCH  22  25
ENDBRANCH  14  22
BRANCH  13  23
ATOM     23  C   UNL     1      -3.274   5.173  23.915  0.00  0.00    +0.166 C 
BRANCH  23   5
ATOM      5  O   UNL     1      -2.440   6.309  23.988  0.00  0.00    -0.394 OA
ATOM     39  H   UNL     1      -2.986   7.049  24.305  0.00  0.00    +0.209 HD
ENDBRANCH  23   5
ENDBRANCH  13  23
TORSDOF 10
ENDMDL
