MODEL 1
REMARK VINA RESULT:       2.7      0.000      0.000
REMARK  Name = 25338610
REMARK  5 active torsions:
REMARK  status: ('A' for Active; 'I' for Inactive)
REMARK    1  A    between atoms: N_5  and  C_14
REMARK    2  A    between atoms: N_6  and  C_9
REMARK    3  A    between atoms: C_10  and  C_13
REMARK    4  A    between atoms: C_15  and  C_17
REMARK    5  A    between atoms: C_16  and  C_18
REMARK                            x       y       z     vdW  Elec       q    Type
REMARK                         _______ _______ _______ _____ _____    ______ ____
ROOT
ATOM      5  N   UNL     1      -2.269  -2.182  25.344  0.00  0.00    -0.293 NA
ATOM      9  C   UNL     1      -4.185  -1.712  24.101  0.00  0.00    +0.089 C 
ATOM     10  C   UNL     1      -1.784  -2.139  23.952  0.00  0.00    +0.147 C 
ATOM     11  C   UNL     1      -3.004  -1.681  23.130  0.00  0.00    +0.052 C 
ATOM     12  C   UNL     1      -3.685  -2.556  25.264  0.00  0.00    +0.107 C 
ATOM     14  C   UNL     1      -1.512  -3.097  26.189  0.00  0.00    +0.105 C 
ENDROOT
BRANCH  10  13
ATOM      3  O   UNL     1      -0.835   0.084  23.598  0.00  0.00    -0.336 OA
ATOM      7  N   UNL     1       0.690  -1.552  23.720  0.00  0.00    -0.190 NA
ATOM      8  N   UNL     1       0.413   0.701  23.437  0.00  0.00    -0.056 NA
ATOM     13  C   UNL     1      -0.581  -1.240  23.759  0.00  0.00    +0.245 A 
ATOM     16  C   UNL     1       1.260  -0.328  23.521  0.00  0.00    +0.202 A 
BRANCH  16  18
ATOM      2  F   UNL     1       6.772   0.291  23.098  0.00  0.00    -0.205 F 
ATOM     18  C   UNL     1       2.682  -0.168  23.411  0.00  0.00    +0.023 A 
ATOM     21  C   UNL     1       3.533  -1.186  23.842  0.00  0.00    +0.014 A 
ATOM     22  C   UNL     1       3.213   1.005  22.876  0.00  0.00    +0.014 A 
ATOM     26  C   UNL     1       4.915  -1.031  23.735  0.00  0.00    +0.039 A 
ATOM     27  C   UNL     1       4.595   1.161  22.770  0.00  0.00    +0.039 A 
ATOM     28  C   UNL     1       5.446   0.143  23.200  0.00  0.00    +0.123 A 
ENDBRANCH  16  18
ENDBRANCH  10  13
BRANCH   9   6
ATOM      4  O   UNL     1      -3.392   0.766  22.890  0.00  0.00    -0.270 OA
ATOM      6  N   UNL     1      -4.553  -0.385  24.533  0.00  0.00    -0.307 N 
ATOM     15  C   UNL     1      -4.118   0.757  23.880  0.00  0.00    +0.244 C 
ATOM     29  H   UNL     1      -5.060  -0.313  25.410  0.00  0.00    +0.149 HD
BRANCH  15  17
ATOM      1  F   UNL     1      -5.801   5.636  26.092  0.00  0.00    -0.205 F 
ATOM     17  C   UNL     1      -4.563   2.048  24.466  0.00  0.00    +0.037 A 
ATOM     19  C   UNL     1      -3.801   3.201  24.273  0.00  0.00    +0.016 A 
ATOM     20  C   UNL     1      -5.743   2.108  25.209  0.00  0.00    +0.016 A 
ATOM     23  C   UNL     1      -4.219   4.412  24.823  0.00  0.00    +0.039 A 
ATOM     24  C   UNL     1      -6.161   3.320  25.758  0.00  0.00    +0.039 A 
ATOM     25  C   UNL     1      -5.399   4.472  25.565  0.00  0.00    +0.123 A 
ENDBRANCH  15  17
ENDBRANCH   9   6
TORSDOF 4
ENDMDL
MODEL 2
REMARK VINA RESULT:       2.7      0.012      1.292
REMARK  Name = 25338610
REMARK  5 active torsions:
REMARK  status: ('A' for Active; 'I' for Inactive)
REMARK    1  A    between atoms: N_5  and  C_14
REMARK    2  A    between atoms: N_6  and  C_9
REMARK    3  A    between atoms: C_10  and  C_13
REMARK    4  A    between atoms: C_15  and  C_17
REMARK    5  A    between atoms: C_16  and  C_18
REMARK                            x       y       z     vdW  Elec       q    Type
REMARK                         _______ _______ _______ _____ _____    ______ ____
ROOT
ATOM      5  N   UNL     1      -2.284  -2.179  25.345  0.00  0.00    -0.293 NA
ATOM      9  C   UNL     1      -4.194  -1.710  24.094  0.00  0.00    +0.089 C 
ATOM     10  C   UNL     1      -1.793  -2.137  23.955  0.00  0.00    +0.147 C 
ATOM     11  C   UNL     1      -3.010  -1.679  23.128  0.00  0.00    +0.052 C 
ATOM     12  C   UNL     1      -3.698  -2.553  25.260  0.00  0.00    +0.107 C 
ATOM     14  C   UNL     1      -1.529  -3.095  26.193  0.00  0.00    +0.105 C 
ENDROOT
BRANCH  10  13
ATOM      3  O   UNL     1      -0.841   0.088  23.619  0.00  0.00    -0.336 OA
ATOM      7  N   UNL     1       0.682  -1.552  23.719  0.00  0.00    -0.190 NA
ATOM      8  N   UNL     1       0.407   0.704  23.459  0.00  0.00    -0.056 NA
ATOM     13  C   UNL     1      -0.590  -1.239  23.765  0.00  0.00    +0.245 A 
ATOM     16  C   UNL     1       1.253  -0.327  23.530  0.00  0.00    +0.202 A 
BRANCH  16  18
ATOM      2  F   UNL     1       6.765   0.286  23.090  0.00  0.00    -0.205 F 
ATOM     18  C   UNL     1       2.674  -0.169  23.417  0.00  0.00    +0.023 A 
ATOM     21  C   UNL     1       3.206   1.007  22.886  0.00  0.00    +0.014 A 
ATOM     22  C   UNL     1       3.526  -1.191  23.836  0.00  0.00    +0.014 A 
ATOM     26  C   UNL     1       4.587   1.160  22.776  0.00  0.00    +0.039 A 
ATOM     27  C   UNL     1       4.907  -1.038  23.727  0.00  0.00    +0.039 A 
ATOM     28  C   UNL     1       5.439   0.138  23.196  0.00  0.00    +0.123 A 
ENDBRANCH  16  18
ENDBRANCH  10  13
BRANCH   9   6
ATOM      4  O   UNL     1      -3.373   0.769  22.903  0.00  0.00    -0.270 OA
ATOM      6  N   UNL     1      -4.564  -0.383  24.525  0.00  0.00    -0.307 N 
ATOM     15  C   UNL     1      -4.114   0.760  23.882  0.00  0.00    +0.244 C 
ATOM     29  H   UNL     1      -5.084  -0.311  25.394  0.00  0.00    +0.149 HD
BRANCH  15  17
ATOM      1  F   UNL     1      -5.809   5.637  26.087  0.00  0.00    -0.205 F 
ATOM     17  C   UNL     1      -4.563   2.051  24.465  0.00  0.00    +0.037 A 
ATOM     19  C   UNL     1      -5.743   2.108  25.207  0.00  0.00    +0.016 A 
ATOM     20  C   UNL     1      -3.804   3.206  24.271  0.00  0.00    +0.016 A 
ATOM     23  C   UNL     1      -6.164   3.320  25.754  0.00  0.00    +0.039 A 
ATOM     24  C   UNL     1      -4.226   4.417  24.819  0.00  0.00    +0.039 A 
ATOM     25  C   UNL     1      -5.405   4.474  25.561  0.00  0.00    +0.123 A 
ENDBRANCH  15  17
ENDBRANCH   9   6
TORSDOF 4
ENDMDL
MODEL 3
REMARK VINA RESULT:       3.4      2.102      7.014
REMARK  Name = 25338610
REMARK  5 active torsions:
REMARK  status: ('A' for Active; 'I' for Inactive)
REMARK    1  A    between atoms: N_5  and  C_14
REMARK    2  A    between atoms: N_6  and  C_9
REMARK    3  A    between atoms: C_10  and  C_13
REMARK    4  A    between atoms: C_15  and  C_17
REMARK    5  A    between atoms: C_16  and  C_18
REMARK                            x       y       z     vdW  Elec       q    Type
REMARK                         _______ _______ _______ _____ _____    ______ ____
ROOT
ATOM      5  N   UNL     1      -3.746  -1.878  24.047  0.00  0.00    -0.293 NA
ATOM      9  C   UNL     1      -1.848  -2.545  25.224  0.00  0.00    +0.089 C 
ATOM     10  C   UNL     1      -3.866  -1.172  25.336  0.00  0.00    +0.147 C 
ATOM     11  C   UNL     1      -2.546  -1.480  26.070  0.00  0.00    +0.052 C 
ATOM     12  C   UNL     1      -2.949  -3.078  24.318  0.00  0.00    +0.107 C 
ATOM     14  C   UNL     1      -5.036  -2.206  23.450  0.00  0.00    +0.105 C 
ENDROOT
BRANCH  10  13
ATOM      3  O   UNL     1      -5.400   0.730  25.359  0.00  0.00    -0.336 OA
ATOM      7  N   UNL     1      -3.272   1.276  24.921  0.00  0.00    -0.190 NA
ATOM      8  N   UNL     1      -5.383   2.119  25.178  0.00  0.00    -0.056 NA
ATOM     13  C   UNL     1      -4.118   0.313  25.191  0.00  0.00    +0.245 A 
ATOM     16  C   UNL     1      -4.095   2.365  24.923  0.00  0.00    +0.202 A 
BRANCH  16  18
ATOM      2  F   UNL     1      -2.164   7.488  23.937  0.00  0.00    -0.205 F 
ATOM     18  C   UNL     1      -3.597   3.686  24.669  0.00  0.00    +0.023 A 
ATOM     21  C   UNL     1      -2.459   4.143  25.334  0.00  0.00    +0.014 A 
ATOM     22  C   UNL     1      -4.251   4.514  23.756  0.00  0.00    +0.014 A 
ATOM     26  C   UNL     1      -1.975   5.427  25.086  0.00  0.00    +0.039 A 
ATOM     27  C   UNL     1      -3.767   5.798  23.509  0.00  0.00    +0.039 A 
ATOM     28  C   UNL     1      -2.629   6.255  24.174  0.00  0.00    +0.123 A 
ENDBRANCH  16  18
ENDBRANCH  10  13
BRANCH   9   6
ATOM      4  O   UNL     1      -0.748   0.093  25.480  0.00  0.00    -0.270 OA
ATOM      6  N   UNL     1      -0.760  -1.987  24.457  0.00  0.00    -0.307 N 
ATOM     15  C   UNL     1      -0.297  -0.696  24.655  0.00  0.00    +0.244 C 
ATOM     29  H   UNL     1      -0.413  -2.543  23.682  0.00  0.00    +0.149 HD
BRANCH  15  17
ATOM      1  F   UNL     1       3.895   0.943  21.297  0.00  0.00    -0.205 F 
ATOM     17  C   UNL     1       0.812  -0.261  23.766  0.00  0.00    +0.037 A 
ATOM     19  C   UNL     1       1.606   0.828  24.123  0.00  0.00    +0.016 A 
ATOM     20  C   UNL     1       1.059  -0.944  22.574  0.00  0.00    +0.016 A 
ATOM     23  C   UNL     1       2.646   1.236  23.289  0.00  0.00    +0.039 A 
ATOM     24  C   UNL     1       2.101  -0.537  21.740  0.00  0.00    +0.039 A 
ATOM     25  C   UNL     1       2.895   0.553  22.098  0.00  0.00    +0.123 A 
ENDBRANCH  15  17
ENDBRANCH   9   6
TORSDOF 4
ENDMDL
MODEL 4
REMARK VINA RESULT:       4.0      1.597      1.892
REMARK  Name = 25338610
REMARK  5 active torsions:
REMARK  status: ('A' for Active; 'I' for Inactive)
REMARK    1  A    between atoms: N_5  and  C_14
REMARK    2  A    between atoms: N_6  and  C_9
REMARK    3  A    between atoms: C_10  and  C_13
REMARK    4  A    between atoms: C_15  and  C_17
REMARK    5  A    between atoms: C_16  and  C_18
REMARK                            x       y       z     vdW  Elec       q    Type
REMARK                         _______ _______ _______ _____ _____    ______ ____
ROOT
ATOM      5  N   UNL     1      -1.762  -1.306  25.451  0.00  0.00    -0.293 NA
ATOM      9  C   UNL     1      -3.660  -0.277  24.570  0.00  0.00    +0.089 C 
ATOM     10  C   UNL     1      -1.650  -1.545  24.000  0.00  0.00    +0.147 C 
ATOM     11  C   UNL     1      -2.814  -0.743  23.384  0.00  0.00    +0.052 C 
ATOM     12  C   UNL     1      -3.195  -1.154  25.723  0.00  0.00    +0.107 C 
ATOM     14  C   UNL     1      -1.165  -2.366  26.255  0.00  0.00    +0.105 C 
ENDROOT
BRANCH  10  13
ATOM      3  O   UNL     1      -0.273  -0.873  22.096  0.00  0.00    -0.336 OA
ATOM      7  N   UNL     1       0.853  -1.041  24.025  0.00  0.00    -0.190 NA
ATOM      8  N   UNL     1       1.056  -0.543  21.802  0.00  0.00    -0.056 NA
ATOM     13  C   UNL     1      -0.306  -1.152  23.425  0.00  0.00    +0.245 A 
ATOM     16  C   UNL     1       1.657  -0.666  22.988  0.00  0.00    +0.202 A 
BRANCH  16  18
ATOM      2  F   UNL     1       7.089   0.293  23.707  0.00  0.00    -0.205 F 
ATOM     18  C   UNL     1       3.058  -0.418  23.173  0.00  0.00    +0.023 A 
ATOM     21  C   UNL     1       3.871  -1.400  23.741  0.00  0.00    +0.014 A 
ATOM     22  C   UNL     1       3.608   0.804  22.787  0.00  0.00    +0.014 A 
ATOM     26  C   UNL     1       5.233  -1.160  23.921  0.00  0.00    +0.039 A 
ATOM     27  C   UNL     1       4.970   1.044  22.967  0.00  0.00    +0.039 A 
ATOM     28  C   UNL     1       5.782   0.063  23.534  0.00  0.00    +0.123 A 
ENDBRANCH  16  18
ENDBRANCH  10  13
BRANCH   9   6
ATOM      4  O   UNL     1      -2.034   1.552  23.071  0.00  0.00    -0.270 OA
ATOM      6  N   UNL     1      -3.450   1.122  24.855  0.00  0.00    -0.307 N 
ATOM     15  C   UNL     1      -2.642   1.928  24.069  0.00  0.00    +0.244 C 
ATOM     29  H   UNL     1      -3.833   1.474  25.727  0.00  0.00    +0.149 HD
BRANCH  15  17
ATOM      1  F   UNL     1      -2.135   7.265  25.741  0.00  0.00    -0.205 F 
ATOM     17  C   UNL     1      -2.508   3.340  24.512  0.00  0.00    +0.037 A 
ATOM     19  C   UNL     1      -1.254   3.949  24.529  0.00  0.00    +0.016 A 
ATOM     20  C   UNL     1      -3.637   4.057  24.911  0.00  0.00    +0.016 A 
ATOM     23  C   UNL     1      -1.127   5.275  24.945  0.00  0.00    +0.039 A 
ATOM     24  C   UNL     1      -3.511   5.383  25.327  0.00  0.00    +0.039 A 
ATOM     25  C   UNL     1      -2.256   5.992  25.343  0.00  0.00    +0.123 A 
ENDBRANCH  15  17
ENDBRANCH   9   6
TORSDOF 4
ENDMDL
MODEL 5
REMARK VINA RESULT:       4.5      2.969      5.178
REMARK  Name = 25338610
REMARK  5 active torsions:
REMARK  status: ('A' for Active; 'I' for Inactive)
REMARK    1  A    between atoms: N_5  and  C_14
REMARK    2  A    between atoms: N_6  and  C_9
REMARK    3  A    between atoms: C_10  and  C_13
REMARK    4  A    between atoms: C_15  and  C_17
REMARK    5  A    between atoms: C_16  and  C_18
REMARK                            x       y       z     vdW  Elec       q    Type
REMARK                         _______ _______ _______ _____ _____    ______ ____
ROOT
ATOM      5  N   UNL     1      -3.999   3.792  24.000  0.00  0.00    -0.293 NA
ATOM      9  C   UNL     1      -4.871   2.699  25.866  0.00  0.00    +0.089 C 
ATOM     10  C   UNL     1      -2.994   4.036  25.052  0.00  0.00    +0.147 C 
ATOM     11  C   UNL     1      -3.476   3.195  26.250  0.00  0.00    +0.052 C 
ATOM     12  C   UNL     1      -5.272   3.591  24.700  0.00  0.00    +0.107 C 
ATOM     14  C   UNL     1      -4.081   4.872  23.024  0.00  0.00    +0.105 C 
ENDROOT
BRANCH  10  13
ATOM      3  O   UNL     1      -0.687   4.712  24.616  0.00  0.00    -0.336 OA
ATOM      7  N   UNL     1      -1.083   2.535  24.268  0.00  0.00    -0.190 NA
ATOM      8  N   UNL     1       0.529   4.156  24.198  0.00  0.00    -0.056 NA
ATOM     13  C   UNL     1      -1.582   3.691  24.630  0.00  0.00    +0.245 A 
ATOM     16  C   UNL     1       0.214   2.872  24.012  0.00  0.00    +0.202 A 
BRANCH  16  18
ATOM      2  F   UNL     1       3.929  -0.905  22.314  0.00  0.00    -0.205 F 
ATOM     18  C   UNL     1       1.173   1.898  23.574  0.00  0.00    +0.023 A 
ATOM     21  C   UNL     1       0.789   0.567  23.409  0.00  0.00    +0.014 A 
ATOM     22  C   UNL     1       2.488   2.281  23.314  0.00  0.00    +0.014 A 
ATOM     26  C   UNL     1       1.720  -0.380  22.982  0.00  0.00    +0.039 A 
ATOM     27  C   UNL     1       3.420   1.335  22.888  0.00  0.00    +0.039 A 
ATOM     28  C   UNL     1       3.036   0.004  22.723  0.00  0.00    +0.123 A 
ENDBRANCH  16  18
ENDBRANCH  10  13
BRANCH   9   6
ATOM      4  O   UNL     1      -2.580   0.972  25.788  0.00  0.00    -0.270 OA
ATOM      6  N   UNL     1      -4.854   1.308  25.482  0.00  0.00    -0.307 N 
ATOM     15  C   UNL     1      -3.691   0.553  25.476  0.00  0.00    +0.244 C 
ATOM     29  H   UNL     1      -5.716   0.925  25.106  0.00  0.00    +0.149 HD
BRANCH  15  17
ATOM      1  F   UNL     1      -4.238  -4.774  23.787  0.00  0.00    -0.205 F 
ATOM     17  C   UNL     1      -3.837  -0.857  25.029  0.00  0.00    +0.037 A 
ATOM     19  C   UNL     1      -4.573  -1.153  23.882  0.00  0.00    +0.016 A 
ATOM     20  C   UNL     1      -3.236  -1.885  25.757  0.00  0.00    +0.016 A 
ATOM     23  C   UNL     1      -4.709  -2.476  23.463  0.00  0.00    +0.039 A 
ATOM     24  C   UNL     1      -3.372  -3.208  25.337  0.00  0.00    +0.039 A 
ATOM     25  C   UNL     1      -4.108  -3.504  24.190  0.00  0.00    +0.123 A 
ENDBRANCH  15  17
ENDBRANCH   9   6
TORSDOF 4
ENDMDL
MODEL 6
REMARK VINA RESULT:       5.0      2.958      7.672
REMARK  Name = 25338610
REMARK  5 active torsions:
REMARK  status: ('A' for Active; 'I' for Inactive)
REMARK    1  A    between atoms: N_5  and  C_14
REMARK    2  A    between atoms: N_6  and  C_9
REMARK    3  A    between atoms: C_10  and  C_13
REMARK    4  A    between atoms: C_15  and  C_17
REMARK    5  A    between atoms: C_16  and  C_18
REMARK                            x       y       z     vdW  Elec       q    Type
REMARK                         _______ _______ _______ _____ _____    ______ ____
ROOT
ATOM      5  N   UNL     1      -2.145   4.010  25.985  0.00  0.00    -0.293 NA
ATOM      9  C   UNL     1      -1.016   4.704  24.066  0.00  0.00    +0.089 C 
ATOM     10  C   UNL     1      -3.141   3.840  24.910  0.00  0.00    +0.147 C 
ATOM     11  C   UNL     1      -2.367   4.149  23.613  0.00  0.00    +0.052 C 
ATOM     12  C   UNL     1      -1.237   5.067  25.528  0.00  0.00    +0.107 C 
ATOM     14  C   UNL     1      -2.742   4.328  27.276  0.00  0.00    +0.105 C 
ENDROOT
BRANCH  10  13
ATOM      3  O   UNL     1      -5.122   2.424  25.114  0.00  0.00    -0.336 OA
ATOM      7  N   UNL     1      -3.232   1.298  24.694  0.00  0.00    -0.190 NA
ATOM      8  N   UNL     1      -5.480   1.071  25.052  0.00  0.00    -0.056 NA
ATOM     13  C   UNL     1      -3.782   2.470  24.892  0.00  0.00    +0.245 A 
ATOM     16  C   UNL     1      -4.313   0.472  24.801  0.00  0.00    +0.202 A 
BRANCH  16  18
ATOM      2  F   UNL     1      -3.843  -5.040  24.217  0.00  0.00    -0.205 F 
ATOM     18  C   UNL     1      -4.192  -0.950  24.651  0.00  0.00    +0.023 A 
ATOM     21  C   UNL     1      -3.468  -1.691  25.585  0.00  0.00    +0.014 A 
ATOM     22  C   UNL     1      -4.797  -1.591  23.569  0.00  0.00    +0.014 A 
ATOM     26  C   UNL     1      -3.351  -3.073  25.438  0.00  0.00    +0.039 A 
ATOM     27  C   UNL     1      -4.679  -2.973  23.423  0.00  0.00    +0.039 A 
ATOM     28  C   UNL     1      -3.956  -3.714  24.357  0.00  0.00    +0.123 A 
ENDBRANCH  16  18
ENDBRANCH  10  13
BRANCH   9   6
ATOM      4  O   UNL     1      -1.270   2.063  22.972  0.00  0.00    -0.270 OA
ATOM      6  N   UNL     1       0.036   3.727  23.920  0.00  0.00    -0.307 N 
ATOM     15  C   UNL     1      -0.186   2.471  23.377  0.00  0.00    +0.244 C 
ATOM     29  H   UNL     1       0.934   3.955  24.335  0.00  0.00    +0.149 HD
BRANCH  15  17
ATOM      1  F   UNL     1       4.278  -0.928  23.160  0.00  0.00    -0.205 F 
ATOM     17  C   UNL     1       0.996   1.572  23.320  0.00  0.00    +0.037 A 
ATOM     19  C   UNL     1       0.825   0.191  23.411  0.00  0.00    +0.016 A 
ATOM     20  C   UNL     1       2.276   2.109  23.175  0.00  0.00    +0.016 A 
ATOM     23  C   UNL     1       1.934  -0.654  23.358  0.00  0.00    +0.039 A 
ATOM     24  C   UNL     1       3.384   1.264  23.122  0.00  0.00    +0.039 A 
ATOM     25  C   UNL     1       3.214  -0.117  23.212  0.00  0.00    +0.123 A 
ENDBRANCH  15  17
ENDBRANCH   9   6
TORSDOF 4
ENDMDL
MODEL 7
REMARK VINA RESULT:       6.6      4.429      7.306
REMARK  Name = 25338610
REMARK  5 active torsions:
REMARK  status: ('A' for Active; 'I' for Inactive)
REMARK    1  A    between atoms: N_5  and  C_14
REMARK    2  A    between atoms: N_6  and  C_9
REMARK    3  A    between atoms: C_10  and  C_13
REMARK    4  A    between atoms: C_15  and  C_17
REMARK    5  A    between atoms: C_16  and  C_18
REMARK                            x       y       z     vdW  Elec       q    Type
REMARK                         _______ _______ _______ _____ _____    ______ ____
ROOT
ATOM      5  N   UNL     1      -3.296   4.490  25.316  0.00  0.00    -0.293 NA
ATOM      9  C   UNL     1      -1.044   4.894  24.865  0.00  0.00    +0.089 C 
ATOM     10  C   UNL     1      -3.000   3.601  24.176  0.00  0.00    +0.147 C 
ATOM     11  C   UNL     1      -1.480   3.740  23.961  0.00  0.00    +0.052 C 
ATOM     12  C   UNL     1      -2.345   5.601  25.215  0.00  0.00    +0.107 C 
ATOM     14  C   UNL     1      -4.677   4.956  25.337  0.00  0.00    +0.105 C 
ENDROOT
BRANCH  10  13
ATOM      3  O   UNL     1      -4.461   1.970  25.260  0.00  0.00    -0.336 OA
ATOM      7  N   UNL     1      -2.938   1.065  23.889  0.00  0.00    -0.190 NA
ATOM      8  N   UNL     1      -4.667   0.585  25.307  0.00  0.00    -0.056 NA
ATOM     13  C   UNL     1      -3.426   2.167  24.403  0.00  0.00    +0.245 A 
ATOM     16  C   UNL     1      -3.731   0.122  24.474  0.00  0.00    +0.202 A 
BRANCH  16  18
ATOM      2  F   UNL     1      -3.081  -5.302  23.420  0.00  0.00    -0.205 F 
ATOM     18  C   UNL     1      -3.564  -1.277  24.203  0.00  0.00    +0.023 A 
ATOM     21  C   UNL     1      -2.345  -1.900  24.475  0.00  0.00    +0.014 A 
ATOM     22  C   UNL     1      -4.619  -2.015  23.665  0.00  0.00    +0.014 A 
ATOM     26  C   UNL     1      -2.182  -3.259  24.211  0.00  0.00    +0.039 A 
ATOM     27  C   UNL     1      -4.456  -3.375  23.401  0.00  0.00    +0.039 A 
ATOM     28  C   UNL     1      -3.237  -3.997  23.674  0.00  0.00    +0.123 A 
ENDBRANCH  16  18
ENDBRANCH  10  13
BRANCH   9   6
ATOM      4  O   UNL     1       0.182   2.323  25.219  0.00  0.00    -0.270 OA
ATOM      6  N   UNL     1      -0.370   4.416  26.049  0.00  0.00    -0.307 N 
ATOM     15  C   UNL     1       0.193   3.152  26.124  0.00  0.00    +0.244 C 
ATOM     29  H   UNL     1      -0.420   5.005  26.874  0.00  0.00    +0.149 HD
BRANCH  15  17
ATOM      1  F   UNL     1       2.586   1.830  31.029  0.00  0.00    -0.205 F 
ATOM     17  C   UNL     1       0.827   2.801  27.422  0.00  0.00    +0.037 A 
ATOM     19  C   UNL     1       2.190   3.025  27.616  0.00  0.00    +0.016 A 
ATOM     20  C   UNL     1       0.058   2.249  28.447  0.00  0.00    +0.016 A 
ATOM     23  C   UNL     1       2.784   2.696  28.833  0.00  0.00    +0.039 A 
ATOM     24  C   UNL     1       0.653   1.921  29.665  0.00  0.00    +0.039 A 
ATOM     25  C   UNL     1       2.015   2.145  29.859  0.00  0.00    +0.123 A 
ENDBRANCH  15  17
ENDBRANCH   9   6
TORSDOF 4
ENDMDL
