MODEL 1
REMARK VINA RESULT:       0.0      0.000      0.000
REMARK  Name = 51138039
REMARK  9 active torsions:
REMARK  status: ('A' for Active; 'I' for Inactive)
REMARK    1  A    between atoms: N_3  and  C_19
REMARK    2  A    between atoms: N_4  and  C_24
REMARK    3  A    between atoms: C_6  and  C_10
REMARK    4  A    between atoms: C_9  and  C_17
REMARK    5  A    between atoms: C_10  and  C_14
REMARK    6  A    between atoms: C_14  and  C_21
REMARK    7  A    between atoms: C_14  and  C_22
REMARK    8  A    between atoms: C_19  and  C_23
REMARK    9  A    between atoms: C_24  and  C_27
REMARK                            x       y       z     vdW  Elec       q    Type
REMARK                         _______ _______ _______ _____ _____    ______ ____
ROOT
ATOM      2  N   UNL     1      -4.953 -10.757  11.755  0.00  0.00    -0.299 NA
ATOM      3  N   UNL     1      -9.411 -10.356  14.095  0.00  0.00    -0.342 N 
ATOM      6  C   UNL     1      -5.832 -10.042  10.818  0.00  0.00    +0.085 C 
ATOM      7  C   UNL     1      -7.307  -9.952  11.221  0.00  0.00    -0.021 A 
ATOM      8  C   UNL     1      -7.816 -10.189  12.531  0.00  0.00    +0.008 A 
ATOM      9  C   UNL     1      -4.824 -10.133  13.064  0.00  0.00    +0.145 C 
ATOM     11  C   UNL     1      -7.214 -10.539  13.789  0.00  0.00    -0.020 A 
ATOM     12  C   UNL     1      -5.769 -10.766  14.082  0.00  0.00    +0.065 C 
ATOM     13  C   UNL     1      -9.189 -10.060  12.771  0.00  0.00    +0.050 A 
ATOM     15  C   UNL     1      -8.230 -10.639  14.718  0.00  0.00    +0.091 A 
ATOM     16  C   UNL     1      -8.251  -9.527  10.251  0.00  0.00    +0.006 A 
ATOM     18  C   UNL     1     -10.109  -9.686  11.790  0.00  0.00    +0.026 A 
ATOM     20  C   UNL     1      -9.611  -9.409  10.523  0.00  0.00    +0.002 A 
ATOM     35  H   UNL     1      -5.229 -11.734  11.838  0.00  0.00    +0.123 HD
ENDROOT
BRANCH   9  17
ATOM      1  O   UNL     1      -3.097 -10.533  14.662  0.00  0.00    -0.274 OA
ATOM      4  N   UNL     1      -2.540 -10.416  12.405  0.00  0.00    -0.310 N 
ATOM     17  C   UNL     1      -3.408 -10.389  13.483  0.00  0.00    +0.231 C 
ATOM     36  H   UNL     1      -2.908 -10.310  11.464  0.00  0.00    +0.149 HD
BRANCH   4  24
ATOM     24  C   UNL     1      -1.116 -10.623  12.543  0.00  0.00    +0.139 C 
BRANCH  24  27
ATOM     27  C   UNL     1      -0.337  -9.364  12.293  0.00  0.00    -0.030 A 
ATOM     30  C   UNL     1      -0.339  -8.343  13.243  0.00  0.00    +0.005 A 
ATOM     31  C   UNL     1       0.390  -9.217  11.112  0.00  0.00    +0.005 A 
ATOM     32  C   UNL     1       0.385  -7.174  13.013  0.00  0.00    +0.000 A 
ATOM     33  C   UNL     1       1.115  -8.047  10.881  0.00  0.00    +0.000 A 
ATOM     34  C   UNL     1       1.112  -7.026  11.830  0.00  0.00    +0.000 A 
ENDBRANCH  24  27
ENDBRANCH   4  24
ENDBRANCH   9  17
BRANCH   6  10
ATOM     10  C   UNL     1      -5.630 -10.758   9.472  0.00  0.00    +0.026 C 
BRANCH  10  14
ATOM     14  C   UNL     1      -4.690 -10.003   8.526  0.00  0.00    -0.015 C 
ATOM     21  C   UNL     1      -3.317  -9.859   9.187  0.00  0.00    +0.007 C 
ATOM     22  C   UNL     1      -5.226  -8.623   8.142  0.00  0.00    +0.007 C 
ENDBRANCH  10  14
ENDBRANCH   6  10
BRANCH   3  19
ATOM     19  C   UNL     1     -10.698 -10.354  14.755  0.00  0.00    +0.157 C 
BRANCH  19  23
ATOM      5  N   UNL     1     -10.530  -8.945  18.818  0.00  0.00    -0.263 NA
ATOM     23  C   UNL     1     -10.640  -9.860  16.179  0.00  0.00    -0.025 A 
ATOM     25  C   UNL     1     -10.508  -8.501  16.442  0.00  0.00    +0.025 A 
ATOM     26  C   UNL     1     -10.716 -10.762  17.234  0.00  0.00    +0.025 A 
ATOM     28  C   UNL     1     -10.458  -8.099  17.767  0.00  0.00    +0.111 A 
ATOM     29  C   UNL     1     -10.657 -10.259  18.524  0.00  0.00    +0.111 A 
ENDBRANCH  19  23
ENDBRANCH   3  19
TORSDOF 7
ENDMDL
