MODEL 1
REMARK VINA RESULT:       2.7      0.000      0.000
REMARK  Name = 26742072
REMARK  7 active torsions:
REMARK  status: ('A' for Active; 'I' for Inactive)
REMARK    1  A    between atoms: O_1  and  C_9
REMARK    2  A    between atoms: O_4  and  C_25
REMARK    3  A    between atoms: O_4  and  C_29
REMARK    4  A    between atoms: N_6  and  C_8
REMARK    5  A    between atoms: N_7  and  C_17
REMARK    6  A    between atoms: C_15  and  C_16
REMARK    7  A    between atoms: C_17  and  C_18
REMARK                            x       y       z     vdW  Elec       q    Type
REMARK                         _______ _______ _______ _____ _____    ______ ____
ROOT
ATOM      2  O   UNL     1       0.122   0.549  24.890  0.00  0.00    -0.253 OA
ATOM      5  N   UNL     1      -0.789  -1.583  25.018  0.00  0.00    -0.284 N 
ATOM      7  N   UNL     1       0.691  -0.985  23.276  0.00  0.00    -0.295 N 
ATOM      8  C   UNL     1      -2.977  -0.645  25.805  0.00  0.00    +0.119 C 
ATOM      9  C   UNL     1      -3.661  -1.221  24.551  0.00  0.00    +0.136 C 
ATOM     10  C   UNL     1      -3.500  -2.730  24.335  0.00  0.00    +0.035 C 
ATOM     11  C   UNL     1      -1.610  -1.235  26.177  0.00  0.00    +0.134 C 
ATOM     12  C   UNL     1      -2.188  -3.107  23.642  0.00  0.00    +0.022 C 
ATOM     13  C   UNL     1      -0.954  -2.952  24.521  0.00  0.00    +0.109 C 
ATOM     14  C   UNL     1       0.020  -0.593  24.429  0.00  0.00    +0.303 C 
ATOM     32  H   UNL     1       0.504  -1.880  22.844  0.00  0.00    +0.151 HD
ENDROOT
BRANCH   8   6
ATOM      3  O   UNL     1      -2.880   0.839  23.349  0.00  0.00    -0.270 OA
ATOM      6  N   UNL     1      -2.876   0.796  25.667  0.00  0.00    -0.305 N 
ATOM     15  C   UNL     1      -2.837   1.417  24.432  0.00  0.00    +0.244 C 
ATOM     30  H   UNL     1      -2.825   1.338  26.523  0.00  0.00    +0.149 HD
BRANCH  15  16
ATOM     16  C   UNL     1      -2.705   2.896  24.459  0.00  0.00    +0.037 A 
ATOM     19  C   UNL     1      -1.537   3.485  24.944  0.00  0.00    +0.016 A 
ATOM     20  C   UNL     1      -3.751   3.698  24.003  0.00  0.00    +0.016 A 
ATOM     21  C   UNL     1      -1.414   4.874  24.972  0.00  0.00    +0.046 A 
ATOM     22  C   UNL     1      -3.628   5.087  24.031  0.00  0.00    +0.046 A 
ATOM     25  C   UNL     1      -2.461   5.675  24.515  0.00  0.00    +0.120 A 
BRANCH  25   4
ATOM      4  O   UNL     1      -2.341   7.031  24.542  0.00  0.00    -0.495 OA
ATOM     29  C   UNL     1      -2.540   7.724  23.310  0.00  0.00    +0.277 C 
ENDBRANCH  25   4
ENDBRANCH  15  16
ENDBRANCH   8   6
BRANCH   9   1
ATOM      1  O   UNL     1      -5.062  -0.938  24.679  0.00  0.00    -0.390 OA
ATOM     31  H   UNL     1      -5.211  -0.035  24.351  0.00  0.00    +0.210 HD
ENDBRANCH   9   1
BRANCH   7  17
ATOM     17  C   UNL     1       1.552  -0.084  22.543  0.00  0.00    +0.141 C 
BRANCH  17  18
ATOM     18  C   UNL     1       2.981  -0.179  22.998  0.00  0.00    -0.030 A 
ATOM     23  C   UNL     1       3.461  -1.368  23.549  0.00  0.00    +0.005 A 
ATOM     24  C   UNL     1       3.827   0.922  22.869  0.00  0.00    +0.005 A 
ATOM     26  C   UNL     1       4.787  -1.454  23.971  0.00  0.00    +0.000 A 
ATOM     27  C   UNL     1       5.154   0.834  23.290  0.00  0.00    +0.000 A 
ATOM     28  C   UNL     1       5.634  -0.354  23.841  0.00  0.00    +0.000 A 
ENDBRANCH  17  18
ENDBRANCH   7  17
TORSDOF 6
ENDMDL
MODEL 2
REMARK VINA RESULT:       2.8      1.304      1.406
REMARK  Name = 26742072
REMARK  7 active torsions:
REMARK  status: ('A' for Active; 'I' for Inactive)
REMARK    1  A    between atoms: O_1  and  C_9
REMARK    2  A    between atoms: O_4  and  C_25
REMARK    3  A    between atoms: O_4  and  C_29
REMARK    4  A    between atoms: N_6  and  C_8
REMARK    5  A    between atoms: N_7  and  C_17
REMARK    6  A    between atoms: C_15  and  C_16
REMARK    7  A    between atoms: C_17  and  C_18
REMARK                            x       y       z     vdW  Elec       q    Type
REMARK                         _______ _______ _______ _____ _____    ______ ____
ROOT
ATOM      2  O   UNL     1      -0.234   0.747  24.627  0.00  0.00    -0.253 OA
ATOM      5  N   UNL     1      -0.816  -1.443  25.131  0.00  0.00    -0.284 N 
ATOM      7  N   UNL     1       0.806  -0.954  23.485  0.00  0.00    -0.295 N 
ATOM      8  C   UNL     1      -3.218  -0.782  25.421  0.00  0.00    +0.119 C 
ATOM      9  C   UNL     1      -3.603  -1.718  24.260  0.00  0.00    +0.136 C 
ATOM     10  C   UNL     1      -3.181  -3.184  24.416  0.00  0.00    +0.035 C 
ATOM     11  C   UNL     1      -1.851  -1.022  26.075  0.00  0.00    +0.134 C 
ATOM     12  C   UNL     1      -1.735  -3.448  23.986  0.00  0.00    +0.022 C 
ATOM     13  C   UNL     1      -0.691  -2.892  24.945  0.00  0.00    +0.109 C 
ATOM     14  C   UNL     1      -0.088  -0.464  24.430  0.00  0.00    +0.303 C 
ATOM     32  H   UNL     1       0.828  -1.938  23.250  0.00  0.00    +0.151 HD
ENDROOT
BRANCH   8   6
ATOM      3  O   UNL     1      -5.497   0.946  25.681  0.00  0.00    -0.270 OA
ATOM      6  N   UNL     1      -3.319   0.594  24.970  0.00  0.00    -0.305 N 
ATOM     15  C   UNL     1      -4.467   1.345  25.144  0.00  0.00    +0.244 C 
ATOM     30  H   UNL     1      -2.507   0.987  24.506  0.00  0.00    +0.149 HD
BRANCH  15  16
ATOM     16  C   UNL     1      -4.420   2.727  24.603  0.00  0.00    +0.037 A 
ATOM     19  C   UNL     1      -3.832   2.972  23.362  0.00  0.00    +0.016 A 
ATOM     20  C   UNL     1      -4.961   3.783  25.337  0.00  0.00    +0.016 A 
ATOM     21  C   UNL     1      -3.786   4.271  22.855  0.00  0.00    +0.046 A 
ATOM     22  C   UNL     1      -4.915   5.081  24.831  0.00  0.00    +0.046 A 
ATOM     25  C   UNL     1      -4.328   5.326  23.590  0.00  0.00    +0.120 A 
BRANCH  25   4
ATOM      4  O   UNL     1      -4.283   6.593  23.095  0.00  0.00    -0.495 OA
ATOM     29  C   UNL     1      -3.003   7.221  23.037  0.00  0.00    +0.277 C 
ENDBRANCH  25   4
ENDBRANCH  15  16
ENDBRANCH   8   6
BRANCH   9   1
ATOM      1  O   UNL     1      -5.033  -1.677  24.155  0.00  0.00    -0.390 OA
ATOM     31  H   UNL     1      -5.291  -2.259  23.421  0.00  0.00    +0.210 HD
ENDBRANCH   9   1
BRANCH   7  17
ATOM     17  C   UNL     1       1.622  -0.081  22.671  0.00  0.00    +0.141 C 
BRANCH  17  18
ATOM     18  C   UNL     1       3.070  -0.138  23.065  0.00  0.00    -0.030 A 
ATOM     23  C   UNL     1       3.601  -1.311  23.604  0.00  0.00    +0.005 A 
ATOM     24  C   UNL     1       3.884   0.981  22.891  0.00  0.00    +0.005 A 
ATOM     26  C   UNL     1       4.947  -1.363  23.969  0.00  0.00    +0.000 A 
ATOM     27  C   UNL     1       5.229   0.927  23.255  0.00  0.00    +0.000 A 
ATOM     28  C   UNL     1       5.761  -0.244  23.794  0.00  0.00    +0.000 A 
ENDBRANCH  17  18
ENDBRANCH   7  17
TORSDOF 6
ENDMDL
MODEL 3
REMARK VINA RESULT:       3.9      2.538      4.073
REMARK  Name = 26742072
REMARK  7 active torsions:
REMARK  status: ('A' for Active; 'I' for Inactive)
REMARK    1  A    between atoms: O_1  and  C_9
REMARK    2  A    between atoms: O_4  and  C_25
REMARK    3  A    between atoms: O_4  and  C_29
REMARK    4  A    between atoms: N_6  and  C_8
REMARK    5  A    between atoms: N_7  and  C_17
REMARK    6  A    between atoms: C_15  and  C_16
REMARK    7  A    between atoms: C_17  and  C_18
REMARK                            x       y       z     vdW  Elec       q    Type
REMARK                         _______ _______ _______ _____ _____    ______ ____
ROOT
ATOM      2  O   UNL     1      -1.199   0.694  26.040  0.00  0.00    -0.253 OA
ATOM      5  N   UNL     1      -0.889  -1.540  25.491  0.00  0.00    -0.284 N 
ATOM      7  N   UNL     1       0.372   0.164  24.449  0.00  0.00    -0.295 N 
ATOM      8  C   UNL     1      -3.351  -1.973  25.689  0.00  0.00    +0.119 C 
ATOM      9  C   UNL     1      -3.389  -2.369  24.200  0.00  0.00    +0.136 C 
ATOM     10  C   UNL     1      -2.437  -3.497  23.785  0.00  0.00    +0.035 C 
ATOM     11  C   UNL     1      -1.975  -1.976  26.368  0.00  0.00    +0.134 C 
ATOM     12  C   UNL     1      -1.014  -3.013  23.493  0.00  0.00    +0.022 C 
ATOM     13  C   UNL     1      -0.229  -2.608  24.733  0.00  0.00    +0.109 C 
ATOM     14  C   UNL     1      -0.610  -0.166  25.377  0.00  0.00    +0.303 C 
ATOM     32  H   UNL     1       0.758  -0.535  23.829  0.00  0.00    +0.151 HD
ENDROOT
BRANCH   8   6
ATOM      3  O   UNL     1      -3.853  -0.047  23.619  0.00  0.00    -0.270 OA
ATOM      6  N   UNL     1      -3.982  -0.675  25.847  0.00  0.00    -0.305 N 
ATOM     15  C   UNL     1      -4.179   0.183  24.781  0.00  0.00    +0.244 C 
ATOM     30  H   UNL     1      -4.268  -0.414  26.784  0.00  0.00    +0.149 HD
BRANCH  15  16
ATOM     16  C   UNL     1      -4.813   1.485  25.112  0.00  0.00    +0.037 A 
ATOM     19  C   UNL     1      -6.119   1.750  24.700  0.00  0.00    +0.016 A 
ATOM     20  C   UNL     1      -4.102   2.444  25.832  0.00  0.00    +0.016 A 
ATOM     21  C   UNL     1      -6.713   2.973  25.008  0.00  0.00    +0.046 A 
ATOM     22  C   UNL     1      -4.696   3.668  26.141  0.00  0.00    +0.046 A 
ATOM     25  C   UNL     1      -6.001   3.932  25.729  0.00  0.00    +0.120 A 
BRANCH  25   4
ATOM      4  O   UNL     1      -6.582   5.126  26.030  0.00  0.00    -0.495 OA
ATOM     29  C   UNL     1      -6.558   6.133  25.018  0.00  0.00    +0.277 C 
ENDBRANCH  25   4
ENDBRANCH  15  16
ENDBRANCH   8   6
BRANCH   9   1
ATOM      1  O   UNL     1      -4.730  -2.794  23.921  0.00  0.00    -0.390 OA
ATOM     31  H   UNL     1      -5.156  -2.097  23.395  0.00  0.00    +0.210 HD
ENDBRANCH   9   1
BRANCH   7  17
ATOM     17  C   UNL     1       0.768   1.532  24.202  0.00  0.00    +0.141 C 
BRANCH  17  18
ATOM     18  C   UNL     1      -0.417   2.441  24.046  0.00  0.00    -0.030 A 
ATOM     23  C   UNL     1      -1.410   2.140  23.112  0.00  0.00    +0.005 A 
ATOM     24  C   UNL     1      -0.525   3.586  24.834  0.00  0.00    +0.005 A 
ATOM     26  C   UNL     1      -2.510   2.985  22.968  0.00  0.00    +0.000 A 
ATOM     27  C   UNL     1      -1.627   4.430  24.690  0.00  0.00    +0.000 A 
ATOM     28  C   UNL     1      -2.619   4.129  23.757  0.00  0.00    +0.000 A 
ENDBRANCH  17  18
ENDBRANCH   7  17
TORSDOF 6
ENDMDL
MODEL 4
REMARK VINA RESULT:       4.3      1.920      6.759
REMARK  Name = 26742072
REMARK  7 active torsions:
REMARK  status: ('A' for Active; 'I' for Inactive)
REMARK    1  A    between atoms: O_1  and  C_9
REMARK    2  A    between atoms: O_4  and  C_25
REMARK    3  A    between atoms: O_4  and  C_29
REMARK    4  A    between atoms: N_6  and  C_8
REMARK    5  A    between atoms: N_7  and  C_17
REMARK    6  A    between atoms: C_15  and  C_16
REMARK    7  A    between atoms: C_17  and  C_18
REMARK                            x       y       z     vdW  Elec       q    Type
REMARK                         _______ _______ _______ _____ _____    ______ ____
ROOT
ATOM      2  O   UNL     1      -2.259   0.706  25.306  0.00  0.00    -0.253 OA
ATOM      5  N   UNL     1      -3.333   2.702  25.806  0.00  0.00    -0.284 N 
ATOM      7  N   UNL     1      -4.272   1.150  24.292  0.00  0.00    -0.295 N 
ATOM      8  C   UNL     1      -1.139   3.914  25.878  0.00  0.00    +0.119 C 
ATOM      9  C   UNL     1      -1.605   4.802  24.708  0.00  0.00    +0.136 C 
ATOM     10  C   UNL     1      -2.917   5.564  24.931  0.00  0.00    +0.035 C 
ATOM     11  C   UNL     1      -2.232   3.162  26.650  0.00  0.00    +0.134 C 
ATOM     12  C   UNL     1      -4.163   4.728  24.630  0.00  0.00    +0.022 C 
ATOM     13  C   UNL     1      -4.447   3.644  25.661  0.00  0.00    +0.109 C 
ATOM     14  C   UNL     1      -3.223   1.462  25.148  0.00  0.00    +0.303 C 
ATOM     32  H   UNL     1      -4.992   1.829  24.081  0.00  0.00    +0.151 HD
ENDROOT
BRANCH   8   6
ATOM      3  O   UNL     1      -0.945   2.844  23.220  0.00  0.00    -0.270 OA
ATOM      6  N   UNL     1      -0.141   2.978  25.390  0.00  0.00    -0.305 N 
ATOM     15  C   UNL     1      -0.135   2.522  24.084  0.00  0.00    +0.244 C 
ATOM     30  H   UNL     1       0.555   2.660  26.054  0.00  0.00    +0.149 HD
BRANCH  15  16
ATOM     16  C   UNL     1       0.935   1.548  23.748  0.00  0.00    +0.037 A 
ATOM     19  C   UNL     1       0.667   0.180  23.776  0.00  0.00    +0.016 A 
ATOM     20  C   UNL     1       2.209   2.002  23.408  0.00  0.00    +0.016 A 
ATOM     21  C   UNL     1       1.673  -0.734  23.463  0.00  0.00    +0.046 A 
ATOM     22  C   UNL     1       3.215   1.088  23.095  0.00  0.00    +0.046 A 
ATOM     25  C   UNL     1       2.947  -0.280  23.122  0.00  0.00    +0.120 A 
BRANCH  25   4
ATOM      4  O   UNL     1       3.928  -1.173  22.816  0.00  0.00    -0.495 OA
ATOM     29  C   UNL     1       4.937  -1.390  23.802  0.00  0.00    +0.277 C 
ENDBRANCH  25   4
ENDBRANCH  15  16
ENDBRANCH   8   6
BRANCH   9   1
ATOM      1  O   UNL     1      -0.565   5.763  24.482  0.00  0.00    -0.390 OA
ATOM     31  H   UNL     1       0.086   5.358  23.885  0.00  0.00    +0.210 HD
ENDBRANCH   9   1
BRANCH   7  17
ATOM     17  C   UNL     1      -4.306  -0.079  23.532  0.00  0.00    +0.141 C 
BRANCH  17  18
ATOM     18  C   UNL     1      -3.478  -1.157  24.171  0.00  0.00    -0.030 A 
ATOM     23  C   UNL     1      -2.246  -1.512  23.618  0.00  0.00    +0.005 A 
ATOM     24  C   UNL     1      -3.940  -1.803  25.317  0.00  0.00    +0.005 A 
ATOM     26  C   UNL     1      -1.479  -2.513  24.212  0.00  0.00    +0.000 A 
ATOM     27  C   UNL     1      -3.171  -2.804  25.911  0.00  0.00    +0.000 A 
ATOM     28  C   UNL     1      -1.940  -3.159  25.358  0.00  0.00    +0.000 A 
ENDBRANCH  17  18
ENDBRANCH   7  17
TORSDOF 6
ENDMDL
MODEL 5
REMARK VINA RESULT:       4.6      2.864      6.318
REMARK  Name = 26742072
REMARK  7 active torsions:
REMARK  status: ('A' for Active; 'I' for Inactive)
REMARK    1  A    between atoms: O_1  and  C_9
REMARK    2  A    between atoms: O_4  and  C_25
REMARK    3  A    between atoms: O_4  and  C_29
REMARK    4  A    between atoms: N_6  and  C_8
REMARK    5  A    between atoms: N_7  and  C_17
REMARK    6  A    between atoms: C_15  and  C_16
REMARK    7  A    between atoms: C_17  and  C_18
REMARK                            x       y       z     vdW  Elec       q    Type
REMARK                         _______ _______ _______ _____ _____    ______ ____
ROOT
ATOM      2  O   UNL     1      -2.042   2.053  23.092  0.00  0.00    -0.253 OA
ATOM      5  N   UNL     1      -2.803   4.092  23.902  0.00  0.00    -0.284 N 
ATOM      7  N   UNL     1      -0.568   3.399  24.232  0.00  0.00    -0.295 N 
ATOM      8  C   UNL     1      -5.018   3.077  24.495  0.00  0.00    +0.119 C 
ATOM      9  C   UNL     1      -4.760   3.414  25.977  0.00  0.00    +0.136 C 
ATOM     10  C   UNL     1      -4.478   4.888  26.287  0.00  0.00    +0.035 C 
ATOM     11  C   UNL     1      -4.172   3.832  23.461  0.00  0.00    +0.134 C 
ATOM     12  C   UNL     1      -3.015   5.284  26.071  0.00  0.00    +0.022 C 
ATOM     13  C   UNL     1      -2.602   5.361  24.608  0.00  0.00    +0.109 C 
ATOM     14  C   UNL     1      -1.817   3.108  23.695  0.00  0.00    +0.303 C 
ATOM     32  H   UNL     1      -0.431   4.207  24.825  0.00  0.00    +0.151 HD
ENDROOT
BRANCH   8   6
ATOM      3  O   UNL     1      -3.411   1.292  26.070  0.00  0.00    -0.270 OA
ATOM      6  N   UNL     1      -4.873   1.645  24.306  0.00  0.00    -0.305 N 
ATOM     15  C   UNL     1      -4.070   0.871  25.124  0.00  0.00    +0.244 C 
ATOM     30  H   UNL     1      -5.383   1.229  23.534  0.00  0.00    +0.149 HD
BRANCH  15  16
ATOM     16  C   UNL     1      -4.008  -0.574  24.783  0.00  0.00    +0.037 A 
ATOM     19  C   UNL     1      -3.585  -1.499  25.737  0.00  0.00    +0.016 A 
ATOM     20  C   UNL     1      -4.369  -1.006  23.507  0.00  0.00    +0.016 A 
ATOM     21  C   UNL     1      -3.524  -2.854  25.417  0.00  0.00    +0.046 A 
ATOM     22  C   UNL     1      -4.309  -2.362  23.186  0.00  0.00    +0.046 A 
ATOM     25  C   UNL     1      -3.886  -3.286  24.140  0.00  0.00    +0.120 A 
BRANCH  25   4
ATOM      4  O   UNL     1      -3.827  -4.609  23.827  0.00  0.00    -0.495 OA
ATOM     29  C   UNL     1      -3.046  -4.972  22.688  0.00  0.00    +0.277 C 
ENDBRANCH  25   4
ENDBRANCH  15  16
ENDBRANCH   8   6
BRANCH   9   1
ATOM      1  O   UNL     1      -5.939   3.026  26.697  0.00  0.00    -0.390 OA
ATOM     31  H   UNL     1      -6.396   3.838  26.973  0.00  0.00    +0.210 HD
ENDBRANCH   9   1
BRANCH   7  17
ATOM     17  C   UNL     1       0.549   2.488  24.119  0.00  0.00    +0.141 C 
BRANCH  17  18
ATOM     18  C   UNL     1       0.174   1.088  24.513  0.00  0.00    -0.030 A 
ATOM     23  C   UNL     1       0.364   0.035  23.616  0.00  0.00    +0.005 A 
ATOM     24  C   UNL     1      -0.363   0.840  25.775  0.00  0.00    +0.005 A 
ATOM     26  C   UNL     1       0.016  -1.264  23.983  0.00  0.00    +0.000 A 
ATOM     27  C   UNL     1      -0.710  -0.460  26.142  0.00  0.00    +0.000 A 
ATOM     28  C   UNL     1      -0.520  -1.513  25.246  0.00  0.00    +0.000 A 
ENDBRANCH  17  18
ENDBRANCH   7  17
TORSDOF 6
ENDMDL
MODEL 6
REMARK VINA RESULT:       6.5      3.345      6.636
REMARK  Name = 26742072
REMARK  7 active torsions:
REMARK  status: ('A' for Active; 'I' for Inactive)
REMARK    1  A    between atoms: O_1  and  C_9
REMARK    2  A    between atoms: O_4  and  C_25
REMARK    3  A    between atoms: O_4  and  C_29
REMARK    4  A    between atoms: N_6  and  C_8
REMARK    5  A    between atoms: N_7  and  C_17
REMARK    6  A    between atoms: C_15  and  C_16
REMARK    7  A    between atoms: C_17  and  C_18
REMARK                            x       y       z     vdW  Elec       q    Type
REMARK                         _______ _______ _______ _____ _____    ______ ____
ROOT
ATOM      2  O   UNL     1      -1.097   2.138  23.996  0.00  0.00    -0.253 OA
ATOM      5  N   UNL     1      -2.257   4.071  24.551  0.00  0.00    -0.284 N 
ATOM      7  N   UNL     1      -0.336   3.406  25.755  0.00  0.00    -0.295 N 
ATOM      8  C   UNL     1      -4.445   2.949  24.058  0.00  0.00    +0.119 C 
ATOM      9  C   UNL     1      -4.864   3.150  25.527  0.00  0.00    +0.136 C 
ATOM     10  C   UNL     1      -4.835   4.595  26.038  0.00  0.00    +0.035 C 
ATOM     11  C   UNL     1      -3.290   3.820  23.546  0.00  0.00    +0.134 C 
ATOM     12  C   UNL     1      -3.447   5.046  26.502  0.00  0.00    +0.022 C 
ATOM     13  C   UNL     1      -2.456   5.272  25.368  0.00  0.00    +0.109 C 
ATOM     14  C   UNL     1      -1.217   3.136  24.714  0.00  0.00    +0.303 C 
ATOM     32  H   UNL     1      -0.516   4.157  26.408  0.00  0.00    +0.151 HD
ENDROOT
BRANCH   8   6
ATOM      3  O   UNL     1      -3.543   1.066  26.029  0.00  0.00    -0.270 OA
ATOM      6  N   UNL     1      -4.143   1.546  23.842  0.00  0.00    -0.305 N 
ATOM     15  C   UNL     1      -3.713   0.718  24.863  0.00  0.00    +0.244 C 
ATOM     30  H   UNL     1      -4.252   1.191  22.898  0.00  0.00    +0.149 HD
BRANCH  15  16
ATOM     16  C   UNL     1      -3.421  -0.685  24.475  0.00  0.00    +0.037 A 
ATOM     19  C   UNL     1      -2.131  -1.195  24.620  0.00  0.00    +0.016 A 
ATOM     20  C   UNL     1      -4.436  -1.493  23.963  0.00  0.00    +0.016 A 
ATOM     21  C   UNL     1      -1.856  -2.512  24.253  0.00  0.00    +0.046 A 
ATOM     22  C   UNL     1      -4.161  -2.810  23.596  0.00  0.00    +0.046 A 
ATOM     25  C   UNL     1      -2.872  -3.320  23.740  0.00  0.00    +0.120 A 
BRANCH  25   4
ATOM      4  O   UNL     1      -2.603  -4.606  23.383  0.00  0.00    -0.495 OA
ATOM     29  C   UNL     1      -3.377  -5.157  22.317  0.00  0.00    +0.277 C 
ENDBRANCH  25   4
ENDBRANCH  15  16
ENDBRANCH   8   6
BRANCH   9   1
ATOM      1  O   UNL     1      -6.210   2.666  25.640  0.00  0.00    -0.390 OA
ATOM     31  H   UNL     1      -6.746   3.376  26.032  0.00  0.00    +0.210 HD
ENDBRANCH   9   1
BRANCH   7  17
ATOM     17  C   UNL     1       0.778   2.538  26.064  0.00  0.00    +0.141 C 
BRANCH  17  18
ATOM     18  C   UNL     1       1.159   2.608  27.516  0.00  0.00    -0.030 A 
ATOM     23  C   UNL     1       2.475   2.899  27.879  0.00  0.00    +0.005 A 
ATOM     24  C   UNL     1       0.197   2.382  28.500  0.00  0.00    +0.005 A 
ATOM     26  C   UNL     1       2.827   2.964  29.227  0.00  0.00    +0.000 A 
ATOM     27  C   UNL     1       0.550   2.448  29.847  0.00  0.00    +0.000 A 
ATOM     28  C   UNL     1       1.865   2.739  30.211  0.00  0.00    +0.000 A 
ENDBRANCH  17  18
ENDBRANCH   7  17
TORSDOF 6
ENDMDL
