MODEL 1
REMARK VINA RESULT:      -6.7      0.000      0.000
REMARK  Name = 75367678
REMARK  3 active torsions:
REMARK  status: ('A' for Active; 'I' for Inactive)
REMARK    1  A    between atoms: O_3  and  C_14
REMARK    2  A    between atoms: O_3  and  C_17
REMARK    3  A    between atoms: C_5  and  C_11
REMARK                            x       y       z     vdW  Elec       q    Type
REMARK                         _______ _______ _______ _____ _____    ______ ____
ROOT
ATOM      1  O   UNL     1       0.448   3.063  24.212  0.00  0.00    -0.375 OA
ATOM      2  O   UNL     1      -0.581  -1.630  25.220  0.00  0.00    -0.275 OA
ATOM      4  N   UNL     1      -1.264   0.419  24.342  0.00  0.00    -0.295 N 
ATOM     11  C   UNL     1      -1.454  -0.776  25.049  0.00  0.00    +0.219 C 
ATOM     12  C   UNL     1      -2.335   1.401  24.150  0.00  0.00    +0.154 C 
ATOM     13  C   UNL     1       0.052   0.692  23.760  0.00  0.00    +0.136 C 
ATOM     14  C   UNL     1      -1.924   2.803  23.690  0.00  0.00    +0.216 C 
ATOM     15  C   UNL     1       0.810   1.735  24.571  0.00  0.00    +0.179 C 
ATOM     16  C   UNL     1      -0.871   3.443  24.591  0.00  0.00    +0.206 C 
ENDROOT
BRANCH  11   5
ATOM      5  C   UNL     1      -2.821  -0.998  25.631  0.00  0.00    +0.075 C 
ATOM      6  C   UNL     1      -3.021  -2.480  25.953  0.00  0.00    +0.013 C 
ATOM      7  C   UNL     1      -3.908  -0.441  24.709  0.00  0.00    +0.013 C 
ATOM      8  C   UNL     1      -3.286  -3.332  24.714  0.00  0.00    +0.001 C 
ATOM      9  C   UNL     1      -4.180  -1.320  23.488  0.00  0.00    +0.001 C 
ATOM     10  C   UNL     1      -4.433  -2.772  23.879  0.00  0.00    +0.000 C 
ENDBRANCH  11   5
BRANCH  14   3
ATOM      3  O   UNL     1      -3.087   3.633  23.724  0.00  0.00    -0.485 OA
BRANCH   3  17
ATOM     17  C   UNL     1      -4.124   3.197  24.502  0.00  0.00    +0.121 A 
ATOM     18  C   UNL     1      -4.231   3.624  25.825  0.00  0.00    +0.045 A 
ATOM     19  C   UNL     1      -5.074   2.323  23.971  0.00  0.00    +0.045 A 
ATOM     20  C   UNL     1      -5.289   3.178  26.618  0.00  0.00    +0.004 A 
ATOM     21  C   UNL     1      -6.132   1.878  24.764  0.00  0.00    +0.004 A 
ATOM     22  C   UNL     1      -6.239   2.306  26.088  0.00  0.00    +0.000 A 
ENDBRANCH   3  17
ENDBRANCH  14   3
TORSDOF 3
ENDMDL
MODEL 2
REMARK VINA RESULT:      -5.3      1.703      4.982
REMARK  Name = 75367678
REMARK  3 active torsions:
REMARK  status: ('A' for Active; 'I' for Inactive)
REMARK    1  A    between atoms: O_3  and  C_14
REMARK    2  A    between atoms: O_3  and  C_17
REMARK    3  A    between atoms: C_5  and  C_11
REMARK                            x       y       z     vdW  Elec       q    Type
REMARK                         _______ _______ _______ _____ _____    ______ ____
ROOT
ATOM      1  O   UNL     1      -5.653   3.947  25.378  0.00  0.00    -0.375 OA
ATOM      2  O   UNL     1      -0.805   4.302  24.688  0.00  0.00    -0.275 OA
ATOM      4  N   UNL     1      -2.722   2.975  24.745  0.00  0.00    -0.295 N 
ATOM     11  C   UNL     1      -1.364   3.240  24.972  0.00  0.00    +0.219 C 
ATOM     12  C   UNL     1      -3.343   1.691  25.084  0.00  0.00    +0.154 C 
ATOM     13  C   UNL     1      -3.551   4.015  24.131  0.00  0.00    +0.136 C 
ATOM     14  C   UNL     1      -4.873   1.645  25.131  0.00  0.00    +0.216 C 
ATOM     15  C   UNL     1      -4.455   4.681  25.160  0.00  0.00    +0.179 C 
ATOM     16  C   UNL     1      -5.475   2.704  26.050  0.00  0.00    +0.206 C 
ENDROOT
BRANCH  11   5
ATOM      5  C   UNL     1      -0.566   2.140  25.611  0.00  0.00    +0.075 C 
ATOM      6  C   UNL     1       0.889   2.206  25.144  0.00  0.00    +0.013 C 
ATOM      7  C   UNL     1      -1.208   0.775  25.355  0.00  0.00    +0.013 C 
ATOM      8  C   UNL     1       1.087   1.678  23.725  0.00  0.00    +0.001 C 
ATOM      9  C   UNL     1      -0.977   0.250  23.939  0.00  0.00    +0.001 C 
ATOM     10  C   UNL     1       0.499   0.282  23.555  0.00  0.00    +0.000 C 
ENDBRANCH  11   5
BRANCH  14   3
ATOM      3  O   UNL     1      -5.256   0.364  25.634  0.00  0.00    -0.485 OA
BRANCH   3  17
ATOM     17  C   UNL     1      -4.504  -0.702  25.224  0.00  0.00    +0.121 A 
ATOM     18  C   UNL     1      -4.611  -1.168  23.914  0.00  0.00    +0.045 A 
ATOM     19  C   UNL     1      -3.631  -1.324  26.116  0.00  0.00    +0.045 A 
ATOM     20  C   UNL     1      -3.844  -2.257  23.496  0.00  0.00    +0.004 A 
ATOM     21  C   UNL     1      -2.864  -2.411  25.699  0.00  0.00    +0.004 A 
ATOM     22  C   UNL     1      -2.971  -2.878  24.387  0.00  0.00    +0.000 A 
ENDBRANCH   3  17
ENDBRANCH  14   3
TORSDOF 3
ENDMDL
MODEL 3
REMARK VINA RESULT:      -5.3      1.650      4.909
REMARK  Name = 75367678
REMARK  3 active torsions:
REMARK  status: ('A' for Active; 'I' for Inactive)
REMARK    1  A    between atoms: O_3  and  C_14
REMARK    2  A    between atoms: O_3  and  C_17
REMARK    3  A    between atoms: C_5  and  C_11
REMARK                            x       y       z     vdW  Elec       q    Type
REMARK                         _______ _______ _______ _____ _____    ______ ____
ROOT
ATOM      1  O   UNL     1       0.904  -0.288  23.156  0.00  0.00    -0.375 OA
ATOM      2  O   UNL     1      -0.381   4.184  24.723  0.00  0.00    -0.275 OA
ATOM      4  N   UNL     1      -0.289   1.885  25.104  0.00  0.00    -0.295 N 
ATOM     11  C   UNL     1      -0.891   3.149  25.162  0.00  0.00    +0.219 C 
ATOM     12  C   UNL     1      -0.924   0.683  25.652  0.00  0.00    +0.154 C 
ATOM     13  C   UNL     1       1.033   1.761  24.485  0.00  0.00    +0.136 C 
ATOM     14  C   UNL     1      -0.353  -0.670  25.215  0.00  0.00    +0.216 C 
ATOM     15  C   UNL     1       0.939   1.133  23.100  0.00  0.00    +0.179 C 
ATOM     16  C   UNL     1      -0.295  -0.832  23.698  0.00  0.00    +0.206 C 
ENDROOT
BRANCH  11   5
ATOM      5  C   UNL     1      -2.249   3.214  25.800  0.00  0.00    +0.075 C 
ATOM      6  C   UNL     1      -3.190   2.206  25.137  0.00  0.00    +0.013 C 
ATOM      7  C   UNL     1      -2.799   4.641  25.777  0.00  0.00    +0.013 C 
ATOM      8  C   UNL     1      -3.687   2.663  23.767  0.00  0.00    +0.001 C 
ATOM      9  C   UNL     1      -3.318   5.072  24.405  0.00  0.00    +0.001 C 
ATOM     10  C   UNL     1      -4.299   4.058  23.825  0.00  0.00    +0.000 C 
ENDBRANCH  11   5
BRANCH  14   3
ATOM      3  O   UNL     1      -1.211  -1.692  25.729  0.00  0.00    -0.485 OA
BRANCH   3  17
ATOM     17  C   UNL     1      -2.385  -1.896  25.059  0.00  0.00    +0.121 A 
ATOM     18  C   UNL     1      -2.643  -3.129  24.461  0.00  0.00    +0.045 A 
ATOM     19  C   UNL     1      -3.326  -0.869  24.972  0.00  0.00    +0.045 A 
ATOM     20  C   UNL     1      -3.841  -3.337  23.777  0.00  0.00    +0.004 A 
ATOM     21  C   UNL     1      -4.524  -1.076  24.289  0.00  0.00    +0.004 A 
ATOM     22  C   UNL     1      -4.781  -2.311  23.691  0.00  0.00    +0.000 A 
ENDBRANCH   3  17
ENDBRANCH  14   3
TORSDOF 3
ENDMDL
MODEL 4
REMARK VINA RESULT:      -5.0      2.498      6.606
REMARK  Name = 75367678
REMARK  3 active torsions:
REMARK  status: ('A' for Active; 'I' for Inactive)
REMARK    1  A    between atoms: O_3  and  C_14
REMARK    2  A    between atoms: O_3  and  C_17
REMARK    3  A    between atoms: C_5  and  C_11
REMARK                            x       y       z     vdW  Elec       q    Type
REMARK                         _______ _______ _______ _____ _____    ______ ____
ROOT
ATOM      1  O   UNL     1       0.135  -1.785  25.161  0.00  0.00    -0.375 OA
ATOM      2  O   UNL     1      -4.032   0.808  25.050  0.00  0.00    -0.275 OA
ATOM      4  N   UNL     1      -2.043   0.180  24.007  0.00  0.00    -0.295 N 
ATOM     11  C   UNL     1      -3.051   1.089  24.357  0.00  0.00    +0.219 C 
ATOM     12  C   UNL     1      -0.901   0.552  23.168  0.00  0.00    +0.154 C 
ATOM     13  C   UNL     1      -2.141  -1.201  24.486  0.00  0.00    +0.136 C 
ATOM     14  C   UNL     1       0.298  -0.400  23.155  0.00  0.00    +0.216 C 
ATOM     15  C   UNL     1      -1.168  -1.461  25.629  0.00  0.00    +0.179 C 
ATOM     16  C   UNL     1       0.834  -0.704  24.552  0.00  0.00    +0.206 C 
ENDROOT
BRANCH  11   5
ATOM      5  C   UNL     1      -2.893   2.491  23.845  0.00  0.00    +0.075 C 
ATOM      6  C   UNL     1      -1.619   3.120  24.414  0.00  0.00    +0.013 C 
ATOM      7  C   UNL     1      -4.143   3.326  24.131  0.00  0.00    +0.013 C 
ATOM      8  C   UNL     1      -1.763   3.548  25.873  0.00  0.00    +0.001 C 
ATOM      9  C   UNL     1      -4.257   3.770  25.590  0.00  0.00    +0.001 C 
ATOM     10  C   UNL     1      -2.979   4.444  26.079  0.00  0.00    +0.000 C 
ENDBRANCH  11   5
BRANCH  14   3
ATOM      3  O   UNL     1       1.347   0.227  22.414  0.00  0.00    -0.485 OA
BRANCH   3  17
ATOM     17  C   UNL     1       2.622   0.006  22.856  0.00  0.00    +0.121 A 
ATOM     18  C   UNL     1       2.991  -1.256  23.321  0.00  0.00    +0.045 A 
ATOM     19  C   UNL     1       3.554   1.044  22.841  0.00  0.00    +0.045 A 
ATOM     20  C   UNL     1       4.292  -1.480  23.773  0.00  0.00    +0.004 A 
ATOM     21  C   UNL     1       4.855   0.820  23.292  0.00  0.00    +0.004 A 
ATOM     22  C   UNL     1       5.224  -0.443  23.758  0.00  0.00    +0.000 A 
ENDBRANCH   3  17
ENDBRANCH  14   3
TORSDOF 3
ENDMDL
MODEL 5
REMARK VINA RESULT:      -4.9      1.409      4.762
REMARK  Name = 75367678
REMARK  3 active torsions:
REMARK  status: ('A' for Active; 'I' for Inactive)
REMARK    1  A    between atoms: O_3  and  C_14
REMARK    2  A    between atoms: O_3  and  C_17
REMARK    3  A    between atoms: C_5  and  C_11
REMARK                            x       y       z     vdW  Elec       q    Type
REMARK                         _______ _______ _______ _____ _____    ______ ____
ROOT
ATOM      1  O   UNL     1       1.098   2.055  25.167  0.00  0.00    -0.375 OA
ATOM      2  O   UNL     1      -2.943   4.687  26.090  0.00  0.00    -0.275 OA
ATOM      4  N   UNL     1      -1.982   2.650  25.487  0.00  0.00    -0.295 N 
ATOM     11  C   UNL     1      -2.957   3.654  25.416  0.00  0.00    +0.219 C 
ATOM     12  C   UNL     1      -2.046   1.429  24.677  0.00  0.00    +0.154 C 
ATOM     13  C   UNL     1      -0.862   2.818  26.416  0.00  0.00    +0.136 C 
ATOM     14  C   UNL     1      -0.766   0.594  24.570  0.00  0.00    +0.216 C 
ATOM     15  C   UNL     1       0.417   3.195  25.679  0.00  0.00    +0.179 C 
ATOM     16  C   UNL     1       0.436   1.401  24.089  0.00  0.00    +0.206 C 
ENDROOT
BRANCH  11   5
ATOM      5  C   UNL     1      -4.077   3.430  24.440  0.00  0.00    +0.075 C 
ATOM      6  C   UNL     1      -5.333   4.173  24.901  0.00  0.00    +0.013 C 
ATOM      7  C   UNL     1      -4.321   1.937  24.217  0.00  0.00    +0.013 C 
ATOM      8  C   UNL     1      -6.050   3.477  26.056  0.00  0.00    +0.001 C 
ATOM      9  C   UNL     1      -5.064   1.262  25.370  0.00  0.00    +0.001 C 
ATOM     10  C   UNL     1      -6.338   2.014  25.741  0.00  0.00    +0.000 C 
ENDBRANCH  11   5
BRANCH  14   3
ATOM      3  O   UNL     1      -1.002  -0.445  23.617  0.00  0.00    -0.485 OA
BRANCH   3  17
ATOM     17  C   UNL     1      -2.041  -1.293  23.883  0.00  0.00    +0.121 A 
ATOM     18  C   UNL     1      -3.315  -1.011  23.390  0.00  0.00    +0.045 A 
ATOM     19  C   UNL     1      -1.827  -2.439  24.649  0.00  0.00    +0.045 A 
ATOM     20  C   UNL     1      -4.375  -1.877  23.662  0.00  0.00    +0.004 A 
ATOM     21  C   UNL     1      -2.886  -3.304  24.921  0.00  0.00    +0.004 A 
ATOM     22  C   UNL     1      -4.161  -3.022  24.428  0.00  0.00    +0.000 A 
ENDBRANCH   3  17
ENDBRANCH  14   3
TORSDOF 3
ENDMDL
MODEL 6
REMARK VINA RESULT:      -4.4     14.583     17.254
REMARK  Name = 75367678
REMARK  3 active torsions:
REMARK  status: ('A' for Active; 'I' for Inactive)
REMARK    1  A    between atoms: O_3  and  C_14
REMARK    2  A    between atoms: O_3  and  C_17
REMARK    3  A    between atoms: C_5  and  C_11
REMARK                            x       y       z     vdW  Elec       q    Type
REMARK                         _______ _______ _______ _____ _____    ______ ____
ROOT
ATOM      1  O   UNL     1      -5.926  -9.496  11.729  0.00  0.00    -0.375 OA
ATOM      2  O   UNL     1      -8.001 -10.162  16.128  0.00  0.00    -0.275 OA
ATOM      4  N   UNL     1      -8.112 -10.404  13.812  0.00  0.00    -0.295 N 
ATOM     11  C   UNL     1      -8.650 -10.142  15.079  0.00  0.00    +0.219 C 
ATOM     12  C   UNL     1      -8.923 -10.385  12.590  0.00  0.00    +0.154 C 
ATOM     13  C   UNL     1      -6.686 -10.724  13.703  0.00  0.00    +0.136 C 
ATOM     14  C   UNL     1      -8.175 -10.324  11.255  0.00  0.00    +0.216 C 
ATOM     15  C   UNL     1      -5.895  -9.545  13.151  0.00  0.00    +0.179 C 
ATOM     16  C   UNL     1      -7.193  -9.158  11.173  0.00  0.00    +0.206 C 
ENDROOT
BRANCH  11   5
ATOM      5  C   UNL     1     -10.114  -9.813  15.128  0.00  0.00    +0.075 C 
ATOM      6  C   UNL     1     -10.333  -8.339  14.781  0.00  0.00    +0.013 C 
ATOM      7  C   UNL     1     -10.720 -10.198  16.479  0.00  0.00    +0.013 C 
ATOM      8  C   UNL     1      -9.966  -7.393  15.923  0.00  0.00    +0.001 C 
ATOM      9  C   UNL     1     -10.365  -9.226  17.605  0.00  0.00    +0.001 C 
ATOM     10  C   UNL     1     -10.664  -7.781  17.222  0.00  0.00    +0.000 C 
ENDBRANCH  11   5
BRANCH  14   3
ATOM      3  O   UNL     1      -9.144 -10.150  10.219  0.00  0.00    -0.485 OA
BRANCH   3  17
ATOM     17  C   UNL     1      -9.171  -8.926   9.609  0.00  0.00    +0.121 A 
ATOM     18  C   UNL     1      -8.138  -8.554   8.748  0.00  0.00    +0.045 A 
ATOM     19  C   UNL     1     -10.230  -8.051   9.848  0.00  0.00    +0.045 A 
ATOM     20  C   UNL     1      -8.166  -7.305   8.125  0.00  0.00    +0.004 A 
ATOM     21  C   UNL     1     -10.258  -6.803   9.226  0.00  0.00    +0.004 A 
ATOM     22  C   UNL     1      -9.224  -6.430   8.364  0.00  0.00    +0.000 A 
ENDBRANCH   3  17
ENDBRANCH  14   3
TORSDOF 3
ENDMDL
MODEL 7
REMARK VINA RESULT:      -4.1     19.107     21.404
REMARK  Name = 75367678
REMARK  3 active torsions:
REMARK  status: ('A' for Active; 'I' for Inactive)
REMARK    1  A    between atoms: O_3  and  C_14
REMARK    2  A    between atoms: O_3  and  C_17
REMARK    3  A    between atoms: C_5  and  C_11
REMARK                            x       y       z     vdW  Elec       q    Type
REMARK                         _______ _______ _______ _____ _____    ______ ____
ROOT
ATOM      1  O   UNL     1      16.285  -7.504  25.962  0.00  0.00    -0.375 OA
ATOM      2  O   UNL     1      16.427  -4.490  29.835  0.00  0.00    -0.275 OA
ATOM      4  N   UNL     1      16.720  -6.632  28.960  0.00  0.00    -0.295 N 
ATOM     11  C   UNL     1      16.325  -5.715  29.944  0.00  0.00    +0.219 C 
ATOM     12  C   UNL     1      16.595  -8.082  29.137  0.00  0.00    +0.154 C 
ATOM     13  C   UNL     1      17.292  -6.124  27.711  0.00  0.00    +0.136 C 
ATOM     14  C   UNL     1      16.712  -8.952  27.882  0.00  0.00    +0.216 C 
ATOM     15  C   UNL     1      16.292  -6.216  26.566  0.00  0.00    +0.179 C 
ATOM     16  C   UNL     1      15.744  -8.539  26.777  0.00  0.00    +0.206 C 
ENDROOT
BRANCH  11   5
ATOM      5  C   UNL     1      15.738  -6.293  31.199  0.00  0.00    +0.075 C 
ATOM      6  C   UNL     1      14.387  -6.946  30.896  0.00  0.00    +0.013 C 
ATOM      7  C   UNL     1      15.649  -5.237  32.302  0.00  0.00    +0.013 C 
ATOM      8  C   UNL     1      13.262  -5.931  30.702  0.00  0.00    +0.001 C 
ATOM      9  C   UNL     1      14.501  -4.247  32.107  0.00  0.00    +0.001 C 
ATOM     10  C   UNL     1      13.173  -4.958  31.871  0.00  0.00    +0.000 C 
ENDBRANCH  11   5
BRANCH  14   3
ATOM      3  O   UNL     1      16.401 -10.297  28.253  0.00  0.00    -0.485 OA
BRANCH   3  17
ATOM     17  C   UNL     1      15.580 -10.456  29.334  0.00  0.00    +0.121 A 
ATOM     18  C   UNL     1      14.195 -10.460  29.164  0.00  0.00    +0.045 A 
ATOM     19  C   UNL     1      16.127 -10.615  30.608  0.00  0.00    +0.045 A 
ATOM     20  C   UNL     1      13.358 -10.623  30.269  0.00  0.00    +0.004 A 
ATOM     21  C   UNL     1      15.290 -10.778  31.711  0.00  0.00    +0.004 A 
ATOM     22  C   UNL     1      13.904 -10.781  31.541  0.00  0.00    +0.000 A 
ENDBRANCH   3  17
ENDBRANCH  14   3
TORSDOF 3
ENDMDL
MODEL 8
REMARK VINA RESULT:      -3.6      1.996      5.564
REMARK  Name = 75367678
REMARK  3 active torsions:
REMARK  status: ('A' for Active; 'I' for Inactive)
REMARK    1  A    between atoms: O_3  and  C_14
REMARK    2  A    between atoms: O_3  and  C_17
REMARK    3  A    between atoms: C_5  and  C_11
REMARK                            x       y       z     vdW  Elec       q    Type
REMARK                         _______ _______ _______ _____ _____    ______ ____
ROOT
ATOM      1  O   UNL     1      -6.253   2.248  26.362  0.00  0.00    -0.375 OA
ATOM      2  O   UNL     1      -2.488   4.864  24.608  0.00  0.00    -0.275 OA
ATOM      4  N   UNL     1      -3.879   3.002  24.429  0.00  0.00    -0.295 N 
ATOM     11  C   UNL     1      -2.649   3.669  24.349  0.00  0.00    +0.219 C 
ATOM     12  C   UNL     1      -4.030   1.582  24.098  0.00  0.00    +0.154 C 
ATOM     13  C   UNL     1      -5.065   3.755  24.847  0.00  0.00    +0.136 C 
ATOM     14  C   UNL     1      -5.313   0.887  24.564  0.00  0.00    +0.216 C 
ATOM     15  C   UNL     1      -5.455   3.422  26.281  0.00  0.00    +0.179 C 
ATOM     16  C   UNL     1      -5.564   1.038  26.062  0.00  0.00    +0.206 C 
ENDROOT
BRANCH  11   5
ATOM      5  C   UNL     1      -1.469   2.845  23.924  0.00  0.00    +0.075 C 
ATOM      6  C   UNL     1      -1.462   1.509  24.671  0.00  0.00    +0.013 C 
ATOM      7  C   UNL     1      -0.163   3.624  24.095  0.00  0.00    +0.013 C 
ATOM      8  C   UNL     1      -0.996   1.636  26.120  0.00  0.00    +0.001 C 
ATOM      9  C   UNL     1       0.304   3.717  25.548  0.00  0.00    +0.001 C 
ATOM     10  C   UNL     1       0.348   2.348  26.219  0.00  0.00    +0.000 C 
ENDBRANCH  11   5
BRANCH  14   3
ATOM      3  O   UNL     1      -5.181  -0.508  24.284  0.00  0.00    -0.485 OA
BRANCH   3  17
ATOM     17  C   UNL     1      -3.997  -1.092  24.640  0.00  0.00    +0.121 A 
ATOM     18  C   UNL     1      -3.230  -1.754  23.682  0.00  0.00    +0.045 A 
ATOM     19  C   UNL     1      -3.558  -1.025  25.962  0.00  0.00    +0.045 A 
ATOM     20  C   UNL     1      -2.022  -2.351  24.047  0.00  0.00    +0.004 A 
ATOM     21  C   UNL     1      -2.350  -1.621  26.327  0.00  0.00    +0.004 A 
ATOM     22  C   UNL     1      -1.582  -2.284  25.368  0.00  0.00    +0.000 A 
ENDBRANCH   3  17
ENDBRANCH  14   3
TORSDOF 3
ENDMDL
MODEL 9
REMARK VINA RESULT:      -3.0     15.504     17.784
REMARK  Name = 75367678
REMARK  3 active torsions:
REMARK  status: ('A' for Active; 'I' for Inactive)
REMARK    1  A    between atoms: O_3  and  C_14
REMARK    2  A    between atoms: O_3  and  C_17
REMARK    3  A    between atoms: C_5  and  C_11
REMARK                            x       y       z     vdW  Elec       q    Type
REMARK                         _______ _______ _______ _____ _____    ______ ____
ROOT
ATOM      1  O   UNL     1      -2.575  -9.330  10.397  0.00  0.00    -0.375 OA
ATOM      2  O   UNL     1      -5.518 -10.452  14.163  0.00  0.00    -0.275 OA
ATOM      4  N   UNL     1      -5.279  -9.931  11.903  0.00  0.00    -0.295 N 
ATOM     11  C   UNL     1      -5.920  -9.879  13.148  0.00  0.00    +0.219 C 
ATOM     12  C   UNL     1      -5.800  -9.246  10.716  0.00  0.00    +0.154 C 
ATOM     13  C   UNL     1      -4.046 -10.713  11.777  0.00  0.00    +0.136 C 
ATOM     14  C   UNL     1      -4.845  -9.073   9.532  0.00  0.00    +0.216 C 
ATOM     15  C   UNL     1      -2.821  -9.809  11.714  0.00  0.00    +0.179 C 
ATOM     16  C   UNL     1      -3.533  -8.393   9.916  0.00  0.00    +0.206 C 
ENDROOT
BRANCH  11   5
ATOM      5  C   UNL     1      -7.174  -9.056  13.219  0.00  0.00    +0.075 C 
ATOM      6  C   UNL     1      -7.773  -9.128  14.625  0.00  0.00    +0.013 C 
ATOM      7  C   UNL     1      -8.167  -9.471  12.132  0.00  0.00    +0.013 C 
ATOM      8  C   UNL     1      -8.488 -10.449  14.904  0.00  0.00    +0.001 C 
ATOM      9  C   UNL     1      -8.894 -10.780  12.439  0.00  0.00    +0.001 C 
ATOM     10  C   UNL     1      -9.522 -10.767  13.829  0.00  0.00    +0.000 C 
ENDBRANCH  11   5
BRANCH  14   3
ATOM      3  O   UNL     1      -5.495  -8.248   8.563  0.00  0.00    -0.485 OA
BRANCH   3  17
ATOM     17  C   UNL     1      -6.849  -8.398   8.446  0.00  0.00    +0.121 A 
ATOM     18  C   UNL     1      -7.405  -9.673   8.346  0.00  0.00    +0.045 A 
ATOM     19  C   UNL     1      -7.675  -7.273   8.425  0.00  0.00    +0.045 A 
ATOM     20  C   UNL     1      -8.787  -9.824   8.226  0.00  0.00    +0.004 A 
ATOM     21  C   UNL     1      -9.056  -7.424   8.305  0.00  0.00    +0.004 A 
ATOM     22  C   UNL     1      -9.612  -8.701   8.205  0.00  0.00    +0.000 A 
ENDBRANCH   3  17
ENDBRANCH  14   3
TORSDOF 3
ENDMDL
MODEL 10
REMARK VINA RESULT:      -2.8     20.054     21.772
REMARK  Name = 75367678
REMARK  3 active torsions:
REMARK  status: ('A' for Active; 'I' for Inactive)
REMARK    1  A    between atoms: O_3  and  C_14
REMARK    2  A    between atoms: O_3  and  C_17
REMARK    3  A    between atoms: C_5  and  C_11
REMARK                            x       y       z     vdW  Elec       q    Type
REMARK                         _______ _______ _______ _____ _____    ______ ____
ROOT
ATOM      1  O   UNL     1      15.725  -7.761  25.018  0.00  0.00    -0.375 OA
ATOM      2  O   UNL     1      17.369  -4.063  27.798  0.00  0.00    -0.275 OA
ATOM      4  N   UNL     1      17.356  -6.344  27.315  0.00  0.00    -0.295 N 
ATOM     11  C   UNL     1      17.377  -5.238  28.175  0.00  0.00    +0.219 C 
ATOM     12  C   UNL     1      17.382  -7.726  27.805  0.00  0.00    +0.154 C 
ATOM     13  C   UNL     1      17.320  -6.113  25.868  0.00  0.00    +0.136 C 
ATOM     14  C   UNL     1      16.992  -8.827  26.814  0.00  0.00    +0.216 C 
ATOM     15  C   UNL     1      15.932  -6.382  25.299  0.00  0.00    +0.179 C 
ATOM     16  C   UNL     1      15.629  -8.595  26.168  0.00  0.00    +0.206 C 
ENDROOT
BRANCH  11   5
ATOM      5  C   UNL     1      17.405  -5.536  29.646  0.00  0.00    +0.075 C 
ATOM      6  C   UNL     1      16.254  -6.473  30.016  0.00  0.00    +0.013 C 
ATOM      7  C   UNL     1      17.405  -4.246  30.469  0.00  0.00    +0.013 C 
ATOM      8  C   UNL     1      14.901  -5.766  30.069  0.00  0.00    +0.001 C 
ATOM      9  C   UNL     1      16.037  -3.566  30.535  0.00  0.00    +0.001 C 
ATOM     10  C   UNL     1      14.943  -4.536  30.968  0.00  0.00    +0.000 C 
ENDBRANCH  11   5
BRANCH  14   3
ATOM      3  O   UNL     1      16.928 -10.059  27.535  0.00  0.00    -0.485 OA
BRANCH   3  17
ATOM     17  C   UNL     1      16.251 -10.037  28.722  0.00  0.00    +0.121 A 
ATOM     18  C   UNL     1      16.951 -10.107  29.926  0.00  0.00    +0.045 A 
ATOM     19  C   UNL     1      14.859  -9.944  28.729  0.00  0.00    +0.045 A 
ATOM     20  C   UNL     1      16.259 -10.085  31.138  0.00  0.00    +0.004 A 
ATOM     21  C   UNL     1      14.167  -9.921  29.940  0.00  0.00    +0.004 A 
ATOM     22  C   UNL     1      14.868  -9.992  31.145  0.00  0.00    +0.000 A 
ENDBRANCH   3  17
ENDBRANCH  14   3
TORSDOF 3
ENDMDL
