MODEL 1
REMARK VINA RESULT:       1.0      0.000      0.000
REMARK  Name = 7134341
REMARK  14 active torsions:
REMARK  status: ('A' for Active; 'I' for Inactive)
REMARK    1  A    between atoms: S_1  and  C_24
REMARK    2  A    between atoms: S_1  and  C_30
REMARK    3  A    between atoms: O_6  and  C_33
REMARK    4  A    between atoms: N_9  and  C_14
REMARK    5  A    between atoms: N_10  and  C_21
REMARK    6  A    between atoms: C_15  and  C_19
REMARK    7  A    between atoms: C_20  and  C_24
REMARK    8  A    between atoms: C_21  and  C_22
REMARK    9  A    between atoms: C_21  and  C_26
REMARK   10  A    between atoms: C_22  and  C_23
REMARK   11  A    between atoms: C_23  and  C_27
REMARK   12  A    between atoms: C_23  and  C_28
REMARK   13  A    between atoms: C_25  and  C_29
REMARK   14  A    between atoms: C_30  and  C_33
REMARK                            x       y       z     vdW  Elec       q    Type
REMARK                         _______ _______ _______ _____ _____    ______ ____
ROOT
ATOM      3  O   UNL     1      -4.565  -0.184  23.145  0.00  0.00    -0.275 OA
ATOM      8  N   UNL     1      -2.698   0.685  24.230  0.00  0.00    -0.289 N 
ATOM     14  C   UNL     1       0.122   1.429  24.111  0.00  0.00    +0.077 C 
ATOM     15  C   UNL     1      -2.018   1.089  25.471  0.00  0.00    +0.164 C 
ATOM     16  C   UNL     1      -0.499   0.911  25.411  0.00  0.00    +0.054 C 
ATOM     17  C   UNL     1      -0.606   0.841  22.905  0.00  0.00    +0.041 C 
ATOM     18  C   UNL     1      -2.097   1.144  22.972  0.00  0.00    +0.110 C 
ATOM     20  C   UNL     1      -3.936   0.034  24.184  0.00  0.00    +0.226 C 
ENDROOT
BRANCH  15  19
ATOM      2  O   UNL     1      -1.845   3.190  26.595  0.00  0.00    -0.274 OA
ATOM     10  N   UNL     1      -3.456   2.930  24.935  0.00  0.00    -0.302 N 
ATOM     19  C   UNL     1      -2.408   2.514  25.737  0.00  0.00    +0.234 C 
ATOM     36  H   UNL     1      -3.763   2.331  24.173  0.00  0.00    +0.150 HD
BRANCH  10  21
ATOM     21  C   UNL     1      -4.034   4.252  25.010  0.00  0.00    +0.159 C 
BRANCH  21  26
ATOM      5  O   UNL     1      -6.227   5.017  25.730  0.00  0.00    -0.274 OA
ATOM     11  N   UNL     1      -5.670   2.813  26.061  0.00  0.00    -0.328 N 
ATOM     26  C   UNL     1      -5.411   4.101  25.642  0.00  0.00    +0.231 C 
ATOM     37  H   UNL     1      -6.558   2.573  26.488  0.00  0.00    +0.145 HD
ATOM     38  H   UNL     1      -4.995   2.061  25.962  0.00  0.00    +0.145 HD
ENDBRANCH  21  26
BRANCH  21  22
ATOM     22  C   UNL     1      -3.173   5.218  25.834  0.00  0.00    +0.034 C 
BRANCH  22  23
ATOM     23  C   UNL     1      -2.151   6.032  25.016  0.00  0.00    -0.015 C 
ATOM     27  C   UNL     1      -0.826   5.291  24.835  0.00  0.00    +0.007 C 
ATOM     28  C   UNL     1      -2.743   6.372  23.644  0.00  0.00    +0.007 C 
ENDBRANCH  22  23
ENDBRANCH  21  22
ENDBRANCH  10  21
ENDBRANCH  15  19
BRANCH  14   9
ATOM      4  O   UNL     1       1.377  -0.555  22.457  0.00  0.00    -0.268 OA
ATOM      9  N   UNL     1       1.531   1.117  24.056  0.00  0.00    -0.307 N 
ATOM     25  C   UNL     1       2.045   0.137  23.221  0.00  0.00    +0.264 C 
ATOM     35  H   UNL     1       2.170   1.666  24.625  0.00  0.00    +0.149 HD
BRANCH  25  29
ATOM     12  N   UNL     1       3.920  -1.294  23.729  0.00  0.00    -0.247 NA
ATOM     13  N   UNL     1       5.739   0.723  23.026  0.00  0.00    -0.259 NA
ATOM     29  C   UNL     1       3.512  -0.081  23.302  0.00  0.00    +0.143 A 
ATOM     31  C   UNL     1       4.405   0.909  22.957  0.00  0.00    +0.143 A 
ATOM     32  C   UNL     1       5.253  -1.479  23.798  0.00  0.00    +0.131 A 
ATOM     34  C   UNL     1       6.147  -0.489  23.453  0.00  0.00    +0.130 A 
ENDBRANCH  25  29
ENDBRANCH  14   9
BRANCH  20  24
ATOM     24  C   UNL     1      -4.508  -0.432  25.500  0.00  0.00    +0.165 C 
BRANCH  24   1
ATOM      1  S   UNL     1      -3.365  -1.629  26.201  0.00  0.00    -0.140 S 
BRANCH   1  30
ATOM     30  C   UNL     1      -3.206  -2.734  24.776  0.00  0.00    +0.189 C 
BRANCH  30  33
ATOM      7  O   UNL     1      -1.388  -3.296  23.297  0.00  0.00    -0.250 OA
ATOM     33  C   UNL     1      -1.770  -2.784  24.341  0.00  0.00    +0.315 C 
BRANCH  33   6
ATOM      6  O   UNL     1      -0.933  -2.184  25.225  0.00  0.00    -0.480 OA
ATOM     39  H   UNL     1      -1.358  -2.049  26.099  0.00  0.00    +0.295 HD
ENDBRANCH  33   6
ENDBRANCH  30  33
ENDBRANCH   1  30
ENDBRANCH  24   1
ENDBRANCH  20  24
TORSDOF 12
ENDMDL
MODEL 2
REMARK VINA RESULT:       1.1      1.974      4.861
REMARK  Name = 7134341
REMARK  14 active torsions:
REMARK  status: ('A' for Active; 'I' for Inactive)
REMARK    1  A    between atoms: S_1  and  C_24
REMARK    2  A    between atoms: S_1  and  C_30
REMARK    3  A    between atoms: O_6  and  C_33
REMARK    4  A    between atoms: N_9  and  C_14
REMARK    5  A    between atoms: N_10  and  C_21
REMARK    6  A    between atoms: C_15  and  C_19
REMARK    7  A    between atoms: C_20  and  C_24
REMARK    8  A    between atoms: C_21  and  C_22
REMARK    9  A    between atoms: C_21  and  C_26
REMARK   10  A    between atoms: C_22  and  C_23
REMARK   11  A    between atoms: C_23  and  C_27
REMARK   12  A    between atoms: C_23  and  C_28
REMARK   13  A    between atoms: C_25  and  C_29
REMARK   14  A    between atoms: C_30  and  C_33
REMARK                            x       y       z     vdW  Elec       q    Type
REMARK                         _______ _______ _______ _____ _____    ______ ____
ROOT
ATOM      3  O   UNL     1      -3.117   4.868  26.855  0.00  0.00    -0.275 OA
ATOM      8  N   UNL     1      -2.161   3.286  25.440  0.00  0.00    -0.289 N 
ATOM     14  C   UNL     1       0.044   1.453  24.892  0.00  0.00    +0.077 C 
ATOM     15  C   UNL     1      -2.107   2.611  24.133  0.00  0.00    +0.164 C 
ATOM     16  C   UNL     1      -0.698   2.151  23.750  0.00  0.00    +0.054 C 
ATOM     17  C   UNL     1       0.008   2.314  26.153  0.00  0.00    +0.041 C 
ATOM     18  C   UNL     1      -1.427   2.648  26.540  0.00  0.00    +0.110 C 
ATOM     20  C   UNL     1      -2.973   4.389  25.727  0.00  0.00    +0.226 C 
ENDROOT
BRANCH  15  19
ATOM      2  O   UNL     1      -4.070   1.422  23.474  0.00  0.00    -0.274 OA
ATOM     10  N   UNL     1      -2.720   0.527  25.145  0.00  0.00    -0.302 N 
ATOM     19  C   UNL     1      -3.076   1.467  24.193  0.00  0.00    +0.234 C 
ATOM     36  H   UNL     1      -1.812   0.600  25.596  0.00  0.00    +0.150 HD
BRANCH  10  21
ATOM     21  C   UNL     1      -3.499  -0.659  25.416  0.00  0.00    +0.159 C 
BRANCH  21  26
ATOM      5  O   UNL     1      -3.991  -1.427  23.162  0.00  0.00    -0.274 OA
ATOM     11  N   UNL     1      -5.691  -0.508  24.404  0.00  0.00    -0.328 N 
ATOM     26  C   UNL     1      -4.384  -0.899  24.200  0.00  0.00    +0.231 C 
ATOM     37  H   UNL     1      -6.389  -0.626  23.677  0.00  0.00    +0.145 HD
ATOM     38  H   UNL     1      -6.007  -0.095  25.276  0.00  0.00    +0.145 HD
ENDBRANCH  21  26
BRANCH  21  22
ATOM     22  C   UNL     1      -2.618  -1.886  25.683  0.00  0.00    +0.034 C 
BRANCH  22  23
ATOM     23  C   UNL     1      -1.338  -1.961  24.826  0.00  0.00    -0.015 C 
ATOM     27  C   UNL     1      -0.078  -2.134  25.674  0.00  0.00    +0.007 C 
ATOM     28  C   UNL     1      -1.452  -3.119  23.830  0.00  0.00    +0.007 C 
ENDBRANCH  22  23
ENDBRANCH  21  22
ENDBRANCH  10  21
ENDBRANCH  15  19
BRANCH  14   9
ATOM      4  O   UNL     1       0.906  -0.399  22.875  0.00  0.00    -0.268 OA
ATOM      9  N   UNL     1       1.406   1.160  24.516  0.00  0.00    -0.307 N 
ATOM     25  C   UNL     1       1.725   0.245  23.524  0.00  0.00    +0.264 C 
ATOM     35  H   UNL     1       2.155   1.675  24.971  0.00  0.00    +0.149 HD
BRANCH  25  29
ATOM     12  N   UNL     1       3.719  -1.091  23.774  0.00  0.00    -0.247 NA
ATOM     13  N   UNL     1       5.236   0.777  22.332  0.00  0.00    -0.259 NA
ATOM     29  C   UNL     1       3.174   0.037  23.273  0.00  0.00    +0.143 A 
ATOM     31  C   UNL     1       3.920   0.954  22.565  0.00  0.00    +0.143 A 
ATOM     32  C   UNL     1       5.034  -1.268  23.540  0.00  0.00    +0.131 A 
ATOM     34  C   UNL     1       5.779  -0.352  22.832  0.00  0.00    +0.130 A 
ENDBRANCH  25  29
ENDBRANCH  14   9
BRANCH  20  24
ATOM     24  C   UNL     1      -3.698   5.019  24.564  0.00  0.00    +0.165 C 
BRANCH  24   1
ATOM      1  S   UNL     1      -5.410   4.473  24.625  0.00  0.00    -0.140 S 
BRANCH   1  30
ATOM     30  C   UNL     1      -5.316   3.418  26.093  0.00  0.00    +0.189 C 
BRANCH  30  33
ATOM      7  O   UNL     1      -6.511   1.452  26.810  0.00  0.00    -0.250 OA
ATOM     33  C   UNL     1      -6.213   2.228  25.911  0.00  0.00    +0.315 C 
BRANCH  33   6
ATOM      6  O   UNL     1      -6.676   2.110  24.641  0.00  0.00    -0.480 OA
ATOM     39  H   UNL     1      -6.994   2.968  24.286  0.00  0.00    +0.295 HD
ENDBRANCH  33   6
ENDBRANCH  30  33
ENDBRANCH   1  30
ENDBRANCH  24   1
ENDBRANCH  20  24
TORSDOF 12
ENDMDL
MODEL 3
REMARK VINA RESULT:       1.4      1.337      2.276
REMARK  Name = 7134341
REMARK  14 active torsions:
REMARK  status: ('A' for Active; 'I' for Inactive)
REMARK    1  A    between atoms: S_1  and  C_24
REMARK    2  A    between atoms: S_1  and  C_30
REMARK    3  A    between atoms: O_6  and  C_33
REMARK    4  A    between atoms: N_9  and  C_14
REMARK    5  A    between atoms: N_10  and  C_21
REMARK    6  A    between atoms: C_15  and  C_19
REMARK    7  A    between atoms: C_20  and  C_24
REMARK    8  A    between atoms: C_21  and  C_22
REMARK    9  A    between atoms: C_21  and  C_26
REMARK   10  A    between atoms: C_22  and  C_23
REMARK   11  A    between atoms: C_23  and  C_27
REMARK   12  A    between atoms: C_23  and  C_28
REMARK   13  A    between atoms: C_25  and  C_29
REMARK   14  A    between atoms: C_30  and  C_33
REMARK                            x       y       z     vdW  Elec       q    Type
REMARK                         _______ _______ _______ _____ _____    ______ ____
ROOT
ATOM      3  O   UNL     1      -4.346  -1.073  23.016  0.00  0.00    -0.275 OA
ATOM      8  N   UNL     1      -2.582   0.177  23.880  0.00  0.00    -0.289 N 
ATOM     14  C   UNL     1       0.233   0.935  23.730  0.00  0.00    +0.077 C 
ATOM     15  C   UNL     1      -2.011   1.001  24.957  0.00  0.00    +0.164 C 
ATOM     16  C   UNL     1      -0.491   0.867  25.077  0.00  0.00    +0.054 C 
ATOM     17  C   UNL     1      -0.389  -0.051  22.744  0.00  0.00    +0.041 C 
ATOM     18  C   UNL     1      -1.882   0.204  22.590  0.00  0.00    +0.110 C 
ATOM     20  C   UNL     1      -3.808  -0.494  23.964  0.00  0.00    +0.226 C 
ENDROOT
BRANCH  15  19
ATOM      2  O   UNL     1      -2.740   2.802  23.567  0.00  0.00    -0.274 OA
ATOM     10  N   UNL     1      -2.403   3.197  25.836  0.00  0.00    -0.302 N 
ATOM     19  C   UNL     1      -2.432   2.418  24.692  0.00  0.00    +0.234 C 
ATOM     36  H   UNL     1      -2.255   2.748  26.735  0.00  0.00    +0.150 HD
BRANCH  10  21
ATOM     21  C   UNL     1      -2.742   4.601  25.845  0.00  0.00    +0.159 C 
BRANCH  21  26
ATOM      5  O   UNL     1      -1.621   6.536  24.890  0.00  0.00    -0.274 OA
ATOM     11  N   UNL     1      -0.473   4.550  25.007  0.00  0.00    -0.328 N 
ATOM     26  C   UNL     1      -1.586   5.344  25.188  0.00  0.00    +0.231 C 
ATOM     37  H   UNL     1       0.372   4.925  24.591  0.00  0.00    +0.145 HD
ATOM     38  H   UNL     1      -0.451   3.572  25.279  0.00  0.00    +0.145 HD
ENDBRANCH  21  26
BRANCH  21  22
ATOM     22  C   UNL     1      -4.051   4.889  25.101  0.00  0.00    +0.034 C 
BRANCH  22  23
ATOM     23  C   UNL     1      -5.324   4.389  25.814  0.00  0.00    -0.015 C 
ATOM     27  C   UNL     1      -6.542   5.264  25.515  0.00  0.00    +0.007 C 
ATOM     28  C   UNL     1      -5.613   2.944  25.399  0.00  0.00    +0.007 C 
ENDBRANCH  22  23
ENDBRANCH  21  22
ENDBRANCH  10  21
ENDBRANCH  15  19
BRANCH  14   9
ATOM      4  O   UNL     1       1.991  -0.246  21.792  0.00  0.00    -0.268 OA
ATOM      9  N   UNL     1       1.643   0.673  23.892  0.00  0.00    -0.307 N 
ATOM     25  C   UNL     1       2.413   0.095  22.894  0.00  0.00    +0.264 C 
ATOM     35  H   UNL     1       2.092   0.958  24.758  0.00  0.00    +0.149 HD
BRANCH  25  29
ATOM     12  N   UNL     1       4.168  -1.361  23.679  0.00  0.00    -0.247 NA
ATOM     13  N   UNL     1       6.083   0.667  23.377  0.00  0.00    -0.259 NA
ATOM     29  C   UNL     1       3.842  -0.134  23.226  0.00  0.00    +0.143 A 
ATOM     31  C   UNL     1       4.782   0.862  23.078  0.00  0.00    +0.143 A 
ATOM     32  C   UNL     1       5.467  -1.557  23.977  0.00  0.00    +0.131 A 
ATOM     34  C   UNL     1       6.408  -0.561  23.829  0.00  0.00    +0.130 A 
ENDBRANCH  25  29
ENDBRANCH  14   9
BRANCH  20  24
ATOM     24  C   UNL     1      -4.485  -0.506  25.311  0.00  0.00    +0.165 C 
BRANCH  24   1
ATOM      1  S   UNL     1      -3.453  -1.458  26.434  0.00  0.00    -0.140 S 
BRANCH   1  30
ATOM     30  C   UNL     1      -3.135  -2.892  25.376  0.00  0.00    +0.189 C 
BRANCH  30  33
ATOM      7  O   UNL     1      -0.785  -2.359  25.414  0.00  0.00    -0.250 OA
ATOM     33  C   UNL     1      -1.752  -2.791  24.801  0.00  0.00    +0.315 C 
BRANCH  33   6
ATOM      6  O   UNL     1      -1.681  -3.247  23.524  0.00  0.00    -0.480 OA
ATOM     39  H   UNL     1      -0.762  -3.234  23.182  0.00  0.00    +0.295 HD
ENDBRANCH  33   6
ENDBRANCH  30  33
ENDBRANCH   1  30
ENDBRANCH  24   1
ENDBRANCH  20  24
TORSDOF 12
ENDMDL
MODEL 4
REMARK VINA RESULT:       2.8      2.087      4.872
REMARK  Name = 7134341
REMARK  14 active torsions:
REMARK  status: ('A' for Active; 'I' for Inactive)
REMARK    1  A    between atoms: S_1  and  C_24
REMARK    2  A    between atoms: S_1  and  C_30
REMARK    3  A    between atoms: O_6  and  C_33
REMARK    4  A    between atoms: N_9  and  C_14
REMARK    5  A    between atoms: N_10  and  C_21
REMARK    6  A    between atoms: C_15  and  C_19
REMARK    7  A    between atoms: C_20  and  C_24
REMARK    8  A    between atoms: C_21  and  C_22
REMARK    9  A    between atoms: C_21  and  C_26
REMARK   10  A    between atoms: C_22  and  C_23
REMARK   11  A    between atoms: C_23  and  C_27
REMARK   12  A    between atoms: C_23  and  C_28
REMARK   13  A    between atoms: C_25  and  C_29
REMARK   14  A    between atoms: C_30  and  C_33
REMARK                            x       y       z     vdW  Elec       q    Type
REMARK                         _______ _______ _______ _____ _____    ______ ____
ROOT
ATOM      3  O   UNL     1      -3.733   4.029  26.231  0.00  0.00    -0.275 OA
ATOM      8  N   UNL     1      -2.447   2.716  24.803  0.00  0.00    -0.289 N 
ATOM     14  C   UNL     1      -0.130   0.979  24.437  0.00  0.00    +0.077 C 
ATOM     15  C   UNL     1      -2.087   2.290  23.440  0.00  0.00    +0.164 C 
ATOM     16  C   UNL     1      -0.618   1.886  23.304  0.00  0.00    +0.054 C 
ATOM     17  C   UNL     1      -0.467   1.597  25.792  0.00  0.00    +0.041 C 
ATOM     18  C   UNL     1      -1.959   1.877  25.904  0.00  0.00    +0.110 C 
ATOM     20  C   UNL     1      -3.331   3.761  25.096  0.00  0.00    +0.226 C 
ENDROOT
BRANCH  15  19
ATOM      2  O   UNL     1      -3.290   0.911  21.906  0.00  0.00    -0.274 OA
ATOM     10  N   UNL     1      -3.514   0.516  24.189  0.00  0.00    -0.302 N 
ATOM     19  C   UNL     1      -3.016   1.169  23.075  0.00  0.00    +0.234 C 
ATOM     36  H   UNL     1      -3.125   0.730  25.102  0.00  0.00    +0.150 HD
BRANCH  10  21
ATOM     21  C   UNL     1      -4.446  -0.585  24.109  0.00  0.00    +0.159 C 
BRANCH  21  26
ATOM      5  O   UNL     1      -3.690  -2.886  24.329  0.00  0.00    -0.274 OA
ATOM     11  N   UNL     1      -3.312  -1.435  26.070  0.00  0.00    -0.328 N 
ATOM     26  C   UNL     1      -3.803  -1.766  24.825  0.00  0.00    +0.231 C 
ATOM     37  H   UNL     1      -2.846  -2.127  26.647  0.00  0.00    +0.145 HD
ATOM     38  H   UNL     1      -3.392  -0.500  26.457  0.00  0.00    +0.145 HD
ENDBRANCH  21  26
BRANCH  21  22
ATOM     22  C   UNL     1      -5.800  -0.250  24.748  0.00  0.00    +0.034 C 
BRANCH  22  23
ATOM     23  C   UNL     1      -5.923   1.192  25.281  0.00  0.00    -0.015 C 
ATOM     27  C   UNL     1      -6.875   2.045  24.442  0.00  0.00    +0.007 C 
ATOM     28  C   UNL     1      -6.403   1.165  26.735  0.00  0.00    +0.007 C 
ENDBRANCH  22  23
ENDBRANCH  21  22
ENDBRANCH  10  21
ENDBRANCH  15  19
BRANCH  14   9
ATOM      4  O   UNL     1       1.218  -0.384  22.299  0.00  0.00    -0.268 OA
ATOM      9  N   UNL     1       1.289   0.739  24.326  0.00  0.00    -0.307 N 
ATOM     25  C   UNL     1       1.850   0.067  23.250  0.00  0.00    +0.264 C 
ATOM     35  H   UNL     1       1.901   1.111  25.048  0.00  0.00    +0.149 HD
BRANCH  25  29
ATOM     12  N   UNL     1       3.763  -1.316  23.746  0.00  0.00    -0.247 NA
ATOM     13  N   UNL     1       5.526   0.714  22.945  0.00  0.00    -0.259 NA
ATOM     29  C   UNL     1       3.322  -0.123  23.298  0.00  0.00    +0.143 A 
ATOM     31  C   UNL     1       4.188   0.874  22.905  0.00  0.00    +0.143 A 
ATOM     32  C   UNL     1       5.100  -1.477  23.785  0.00  0.00    +0.131 A 
ATOM     34  C   UNL     1       5.967  -0.480  23.392  0.00  0.00    +0.130 A 
ENDBRANCH  25  29
ENDBRANCH  14   9
BRANCH  20  24
ATOM     24  C   UNL     1      -3.796   4.604  23.935  0.00  0.00    +0.165 C 
BRANCH  24   1
ATOM      1  S   UNL     1      -2.703   6.028  23.820  0.00  0.00    -0.140 S 
BRANCH   1  30
ATOM     30  C   UNL     1      -1.625   5.669  25.229  0.00  0.00    +0.189 C 
BRANCH  30  33
ATOM      7  O   UNL     1       0.375   4.340  25.439  0.00  0.00    -0.250 OA
ATOM     33  C   UNL     1      -0.361   5.024  24.739  0.00  0.00    +0.315 C 
BRANCH  33   6
ATOM      6  O   UNL     1      -0.125   5.265  23.424  0.00  0.00    -0.480 OA
ATOM     39  H   UNL     1      -0.955   5.424  22.927  0.00  0.00    +0.295 HD
ENDBRANCH  33   6
ENDBRANCH  30  33
ENDBRANCH   1  30
ENDBRANCH  24   1
ENDBRANCH  20  24
TORSDOF 12
ENDMDL
MODEL 5
REMARK VINA RESULT:       3.3      1.821      3.358
REMARK  Name = 7134341
REMARK  14 active torsions:
REMARK  status: ('A' for Active; 'I' for Inactive)
REMARK    1  A    between atoms: S_1  and  C_24
REMARK    2  A    between atoms: S_1  and  C_30
REMARK    3  A    between atoms: O_6  and  C_33
REMARK    4  A    between atoms: N_9  and  C_14
REMARK    5  A    between atoms: N_10  and  C_21
REMARK    6  A    between atoms: C_15  and  C_19
REMARK    7  A    between atoms: C_20  and  C_24
REMARK    8  A    between atoms: C_21  and  C_22
REMARK    9  A    between atoms: C_21  and  C_26
REMARK   10  A    between atoms: C_22  and  C_23
REMARK   11  A    between atoms: C_23  and  C_27
REMARK   12  A    between atoms: C_23  and  C_28
REMARK   13  A    between atoms: C_25  and  C_29
REMARK   14  A    between atoms: C_30  and  C_33
REMARK                            x       y       z     vdW  Elec       q    Type
REMARK                         _______ _______ _______ _____ _____    ______ ____
ROOT
ATOM      3  O   UNL     1      -4.247  -2.642  24.765  0.00  0.00    -0.275 OA
ATOM      8  N   UNL     1      -2.556  -1.049  24.617  0.00  0.00    -0.289 N 
ATOM     14  C   UNL     1       0.179  -0.395  23.833  0.00  0.00    +0.077 C 
ATOM     15  C   UNL     1      -2.008   0.267  24.983  0.00  0.00    +0.164 C 
ATOM     16  C   UNL     1      -0.479   0.291  25.034  0.00  0.00    +0.054 C 
ATOM     17  C   UNL     1      -0.401  -1.793  23.638  0.00  0.00    +0.041 C 
ATOM     18  C   UNL     1      -1.916  -1.736  23.489  0.00  0.00    +0.110 C 
ATOM     20  C   UNL     1      -3.718  -1.603  25.167  0.00  0.00    +0.226 C 
ENDROOT
BRANCH  15  19
ATOM      2  O   UNL     1      -3.525   0.998  23.289  0.00  0.00    -0.274 OA
ATOM     10  N   UNL     1      -1.830   2.436  23.978  0.00  0.00    -0.302 N 
ATOM     19  C   UNL     1      -2.554   1.257  23.995  0.00  0.00    +0.234 C 
ATOM     36  H   UNL     1      -1.123   2.592  24.692  0.00  0.00    +0.150 HD
BRANCH  10  21
ATOM     21  C   UNL     1      -2.137   3.540  23.099  0.00  0.00    +0.159 C 
BRANCH  21  26
ATOM      5  O   UNL     1      -4.238   3.248  21.911  0.00  0.00    -0.274 OA
ATOM     11  N   UNL     1      -2.353   2.235  21.074  0.00  0.00    -0.328 N 
ATOM     26  C   UNL     1      -3.037   2.997  21.998  0.00  0.00    +0.231 C 
ATOM     37  H   UNL     1      -2.834   1.824  20.281  0.00  0.00    +0.145 HD
ATOM     38  H   UNL     1      -1.357   2.055  21.146  0.00  0.00    +0.145 HD
ENDBRANCH  21  26
BRANCH  21  22
ATOM     22  C   UNL     1      -2.832   4.693  23.834  0.00  0.00    +0.034 C 
BRANCH  22  23
ATOM     23  C   UNL     1      -2.116   5.168  25.115  0.00  0.00    -0.015 C 
ATOM     27  C   UNL     1      -2.443   4.291  26.325  0.00  0.00    +0.007 C 
ATOM     28  C   UNL     1      -0.602   5.183  24.885  0.00  0.00    +0.007 C 
ENDBRANCH  22  23
ENDBRANCH  21  22
ENDBRANCH  10  21
ENDBRANCH  15  19
BRANCH  14   9
ATOM      4  O   UNL     1       2.163   0.078  21.812  0.00  0.00    -0.268 OA
ATOM      9  N   UNL     1       1.611  -0.457  24.000  0.00  0.00    -0.307 N 
ATOM     25  C   UNL     1       2.494  -0.212  22.959  0.00  0.00    +0.264 C 
ATOM     35  H   UNL     1       1.983  -0.651  24.926  0.00  0.00    +0.149 HD
BRANCH  25  29
ATOM     12  N   UNL     1       4.333  -1.518  23.814  0.00  0.00    -0.247 NA
ATOM     13  N   UNL     1       6.133   0.584  23.353  0.00  0.00    -0.259 NA
ATOM     29  C   UNL     1       3.937  -0.342  23.286  0.00  0.00    +0.143 A 
ATOM     31  C   UNL     1       4.821   0.690  23.059  0.00  0.00    +0.143 A 
ATOM     32  C   UNL     1       5.644  -1.624  24.108  0.00  0.00    +0.131 A 
ATOM     34  C   UNL     1       6.528  -0.592  23.881  0.00  0.00    +0.130 A 
ENDBRANCH  25  29
ENDBRANCH  14   9
BRANCH  20  24
ATOM     24  C   UNL     1      -4.333  -0.869  26.333  0.00  0.00    +0.165 C 
BRANCH  24   1
ATOM      1  S   UNL     1      -5.654   0.167  25.690  0.00  0.00    -0.140 S 
BRANCH   1  30
ATOM     30  C   UNL     1      -5.142   1.750  26.403  0.00  0.00    +0.189 C 
BRANCH  30  33
ATOM      7  O   UNL     1      -5.752   4.024  25.884  0.00  0.00    -0.250 OA
ATOM     33  C   UNL     1      -5.590   2.869  25.508  0.00  0.00    +0.315 C 
BRANCH  33   6
ATOM      6  O   UNL     1      -5.783   2.470  24.226  0.00  0.00    -0.480 OA
ATOM     39  H   UNL     1      -6.522   2.952  23.799  0.00  0.00    +0.295 HD
ENDBRANCH  33   6
ENDBRANCH  30  33
ENDBRANCH   1  30
ENDBRANCH  24   1
ENDBRANCH  20  24
TORSDOF 12
ENDMDL
MODEL 6
REMARK VINA RESULT:       3.5      1.683      2.852
REMARK  Name = 7134341
REMARK  14 active torsions:
REMARK  status: ('A' for Active; 'I' for Inactive)
REMARK    1  A    between atoms: S_1  and  C_24
REMARK    2  A    between atoms: S_1  and  C_30
REMARK    3  A    between atoms: O_6  and  C_33
REMARK    4  A    between atoms: N_9  and  C_14
REMARK    5  A    between atoms: N_10  and  C_21
REMARK    6  A    between atoms: C_15  and  C_19
REMARK    7  A    between atoms: C_20  and  C_24
REMARK    8  A    between atoms: C_21  and  C_22
REMARK    9  A    between atoms: C_21  and  C_26
REMARK   10  A    between atoms: C_22  and  C_23
REMARK   11  A    between atoms: C_23  and  C_27
REMARK   12  A    between atoms: C_23  and  C_28
REMARK   13  A    between atoms: C_25  and  C_29
REMARK   14  A    between atoms: C_30  and  C_33
REMARK                            x       y       z     vdW  Elec       q    Type
REMARK                         _______ _______ _______ _____ _____    ______ ____
ROOT
ATOM      3  O   UNL     1      -4.126  -2.621  24.061  0.00  0.00    -0.275 OA
ATOM      8  N   UNL     1      -2.480  -1.008  24.390  0.00  0.00    -0.289 N 
ATOM     14  C   UNL     1       0.231  -0.075  23.840  0.00  0.00    +0.077 C 
ATOM     15  C   UNL     1      -1.967   0.158  25.128  0.00  0.00    +0.164 C 
ATOM     16  C   UNL     1      -0.439   0.209  25.187  0.00  0.00    +0.054 C 
ATOM     17  C   UNL     1      -0.312  -1.371  23.241  0.00  0.00    +0.041 C 
ATOM     18  C   UNL     1      -1.828  -1.316  23.112  0.00  0.00    +0.110 C 
ATOM     20  C   UNL     1      -3.623  -1.731  24.752  0.00  0.00    +0.226 C 
ENDROOT
BRANCH  15  19
ATOM      2  O   UNL     1      -3.053   1.333  23.354  0.00  0.00    -0.274 OA
ATOM     10  N   UNL     1      -2.414   2.509  25.258  0.00  0.00    -0.302 N 
ATOM     19  C   UNL     1      -2.547   1.378  24.472  0.00  0.00    +0.234 C 
ATOM     36  H   UNL     1      -2.093   2.410  26.217  0.00  0.00    +0.150 HD
BRANCH  10  21
ATOM     21  C   UNL     1      -2.871   3.817  24.846  0.00  0.00    +0.159 C 
BRANCH  21  26
ATOM      5  O   UNL     1      -5.195   4.467  25.141  0.00  0.00    -0.274 OA
ATOM     11  N   UNL     1      -3.964   3.922  27.002  0.00  0.00    -0.328 N 
ATOM     26  C   UNL     1      -4.130   4.122  25.647  0.00  0.00    +0.231 C 
ATOM     37  H   UNL     1      -4.730   4.077  27.648  0.00  0.00    +0.145 HD
ATOM     38  H   UNL     1      -3.084   3.615  27.404  0.00  0.00    +0.145 HD
ENDBRANCH  21  26
BRANCH  21  22
ATOM     22  C   UNL     1      -1.814   4.903  25.081  0.00  0.00    +0.034 C 
BRANCH  22  23
ATOM     23  C   UNL     1      -0.356   4.402  25.059  0.00  0.00    -0.015 C 
ATOM     27  C   UNL     1      -0.077   3.370  26.152  0.00  0.00    +0.007 C 
ATOM     28  C   UNL     1      -0.040   3.797  23.688  0.00  0.00    +0.007 C 
ENDBRANCH  22  23
ENDBRANCH  21  22
ENDBRANCH  10  21
ENDBRANCH  15  19
BRANCH  14   9
ATOM      4  O   UNL     1       2.168  -0.110  21.721  0.00  0.00    -0.268 OA
ATOM      9  N   UNL     1       1.665  -0.143  23.984  0.00  0.00    -0.307 N 
ATOM     25  C   UNL     1       2.524  -0.155  22.895  0.00  0.00    +0.264 C 
ATOM     35  H   UNL     1       2.057  -0.143  24.922  0.00  0.00    +0.149 HD
BRANCH  25  29
ATOM     12  N   UNL     1       4.420  -1.459  23.620  0.00  0.00    -0.247 NA
ATOM     13  N   UNL     1       6.125   0.755  23.376  0.00  0.00    -0.259 NA
ATOM     29  C   UNL     1       3.972  -0.254  23.211  0.00  0.00    +0.143 A 
ATOM     31  C   UNL     1       4.809   0.833  23.091  0.00  0.00    +0.143 A 
ATOM     32  C   UNL     1       5.735  -1.537  23.904  0.00  0.00    +0.131 A 
ATOM     34  C   UNL     1       6.573  -0.450  23.784  0.00  0.00    +0.130 A 
ENDBRANCH  25  29
ENDBRANCH  14   9
BRANCH  20  24
ATOM     24  C   UNL     1      -4.252  -1.389  26.079  0.00  0.00    +0.165 C 
BRANCH  24   1
ATOM      1  S   UNL     1      -4.512   0.389  26.119  0.00  0.00    -0.140 S 
BRANCH   1  30
ATOM     30  C   UNL     1      -5.679   0.534  24.743  0.00  0.00    +0.189 C 
BRANCH  30  33
ATOM      7  O   UNL     1      -7.539   1.988  24.260  0.00  0.00    -0.250 OA
ATOM     33  C   UNL     1      -6.664   1.629  25.036  0.00  0.00    +0.315 C 
BRANCH  33   6
ATOM      6  O   UNL     1      -6.492   2.173  26.268  0.00  0.00    -0.480 OA
ATOM     39  H   UNL     1      -6.899   3.062  26.335  0.00  0.00    +0.295 HD
ENDBRANCH  33   6
ENDBRANCH  30  33
ENDBRANCH   1  30
ENDBRANCH  24   1
ENDBRANCH  20  24
TORSDOF 12
ENDMDL
MODEL 7
REMARK VINA RESULT:       3.8      1.869      5.115
REMARK  Name = 7134341
REMARK  14 active torsions:
REMARK  status: ('A' for Active; 'I' for Inactive)
REMARK    1  A    between atoms: S_1  and  C_24
REMARK    2  A    between atoms: S_1  and  C_30
REMARK    3  A    between atoms: O_6  and  C_33
REMARK    4  A    between atoms: N_9  and  C_14
REMARK    5  A    between atoms: N_10  and  C_21
REMARK    6  A    between atoms: C_15  and  C_19
REMARK    7  A    between atoms: C_20  and  C_24
REMARK    8  A    between atoms: C_21  and  C_22
REMARK    9  A    between atoms: C_21  and  C_26
REMARK   10  A    between atoms: C_22  and  C_23
REMARK   11  A    between atoms: C_23  and  C_27
REMARK   12  A    between atoms: C_23  and  C_28
REMARK   13  A    between atoms: C_25  and  C_29
REMARK   14  A    between atoms: C_30  and  C_33
REMARK                            x       y       z     vdW  Elec       q    Type
REMARK                         _______ _______ _______ _____ _____    ______ ____
ROOT
ATOM      3  O   UNL     1      -2.925   4.564  26.503  0.00  0.00    -0.275 OA
ATOM      8  N   UNL     1      -1.762   3.185  25.032  0.00  0.00    -0.289 N 
ATOM     14  C   UNL     1       0.406   1.278  24.603  0.00  0.00    +0.077 C 
ATOM     15  C   UNL     1      -1.450   2.762  23.657  0.00  0.00    +0.164 C 
ATOM     16  C   UNL     1      -0.019   2.245  23.495  0.00  0.00    +0.054 C 
ATOM     17  C   UNL     1       0.133   1.890  25.975  0.00  0.00    +0.041 C 
ATOM     18  C   UNL     1      -1.331   2.286  26.110  0.00  0.00    +0.110 C 
ATOM     20  C   UNL     1      -2.556   4.290  25.358  0.00  0.00    +0.226 C 
ENDROOT
BRANCH  15  19
ATOM      2  O   UNL     1      -3.532   2.030  22.742  0.00  0.00    -0.274 OA
ATOM     10  N   UNL     1      -2.072   0.448  23.626  0.00  0.00    -0.302 N 
ATOM     19  C   UNL     1      -2.470   1.727  23.279  0.00  0.00    +0.234 C 
ATOM     36  H   UNL     1      -1.121   0.297  23.951  0.00  0.00    +0.150 HD
BRANCH  10  21
ATOM     21  C   UNL     1      -2.883  -0.724  23.390  0.00  0.00    +0.159 C 
BRANCH  21  26
ATOM      5  O   UNL     1      -2.549  -3.059  23.982  0.00  0.00    -0.274 OA
ATOM     11  N   UNL     1      -0.767  -1.619  24.147  0.00  0.00    -0.328 N 
ATOM     26  C   UNL     1      -2.084  -1.926  23.879  0.00  0.00    +0.231 C 
ATOM     37  H   UNL     1      -0.121  -2.333  24.468  0.00  0.00    +0.145 HD
ATOM     38  H   UNL     1      -0.391  -0.683  24.036  0.00  0.00    +0.145 HD
ENDBRANCH  21  26
BRANCH  21  22
ATOM     22  C   UNL     1      -4.233  -0.653  24.114  0.00  0.00    +0.034 C 
BRANCH  22  23
ATOM     23  C   UNL     1      -4.144  -0.694  25.653  0.00  0.00    -0.015 C 
ATOM     27  C   UNL     1      -2.699  -0.745  26.152  0.00  0.00    +0.007 C 
ATOM     28  C   UNL     1      -4.849   0.531  26.243  0.00  0.00    +0.007 C 
ENDBRANCH  22  23
ENDBRANCH  21  22
ENDBRANCH  10  21
ENDBRANCH  15  19
BRANCH  14   9
ATOM      4  O   UNL     1       1.596  -0.257  22.489  0.00  0.00    -0.268 OA
ATOM      9  N   UNL     1       1.800   0.927  24.471  0.00  0.00    -0.307 N 
ATOM     25  C   UNL     1       2.283   0.178  23.409  0.00  0.00    +0.264 C 
ATOM     35  H   UNL     1       2.455   1.278  25.165  0.00  0.00    +0.149 HD
BRANCH  25  29
ATOM     12  N   UNL     1       4.568   0.901  23.140  0.00  0.00    -0.247 NA
ATOM     13  N   UNL     1       5.527  -1.662  23.760  0.00  0.00    -0.259 NA
ATOM     29  C   UNL     1       3.738  -0.120  23.432  0.00  0.00    +0.143 A 
ATOM     31  C   UNL     1       4.208  -1.378  23.736  0.00  0.00    +0.143 A 
ATOM     32  C   UNL     1       5.886   0.619  23.164  0.00  0.00    +0.131 A 
ATOM     34  C   UNL     1       6.357  -0.640  23.469  0.00  0.00    +0.130 A 
ENDBRANCH  25  29
ENDBRANCH  14   9
BRANCH  20  24
ATOM     24  C   UNL     1      -2.964   5.193  24.220  0.00  0.00    +0.165 C 
BRANCH  24   1
ATOM      1  S   UNL     1      -4.702   4.890  23.876  0.00  0.00    -0.140 S 
BRANCH   1  30
ATOM     30  C   UNL     1      -4.942   3.425  24.913  0.00  0.00    +0.189 C 
BRANCH  30  33
ATOM      7  O   UNL     1      -6.561   2.805  26.587  0.00  0.00    -0.250 OA
ATOM     33  C   UNL     1      -6.077   3.668  25.865  0.00  0.00    +0.315 C 
BRANCH  33   6
ATOM      6  O   UNL     1      -6.504   4.955  25.854  0.00  0.00    -0.480 OA
ATOM     39  H   UNL     1      -5.829   5.562  25.484  0.00  0.00    +0.295 HD
ENDBRANCH  33   6
ENDBRANCH  30  33
ENDBRANCH   1  30
ENDBRANCH  24   1
ENDBRANCH  20  24
TORSDOF 12
ENDMDL
