MODEL 1
REMARK VINA RESULT:       4.0      0.000      0.000
REMARK  Name = 45360923
REMARK  10 active torsions:
REMARK  status: ('A' for Active; 'I' for Inactive)
REMARK    1  A    between atoms: S_1  and  C_28
REMARK    2  A    between atoms: S_1  and  C_30
REMARK    3  A    between atoms: N_7  and  C_18
REMARK    4  A    between atoms: N_8  and  C_20
REMARK    5  A    between atoms: N_10  and  C_29
REMARK    6  A    between atoms: C_15  and  C_19
REMARK    7  A    between atoms: C_18  and  C_22
REMARK    8  A    between atoms: C_19  and  C_21
REMARK    9  A    between atoms: C_21  and  C_25
REMARK   10  A    between atoms: C_29  and  C_31
REMARK                            x       y       z     vdW  Elec       q    Type
REMARK                         _______ _______ _______ _____ _____    ______ ____
ROOT
ATOM      3  O   UNL     1      -0.672   0.811  25.252  0.00  0.00    -0.274 OA
ATOM      7  N   UNL     1      -2.325  -1.286  24.847  0.00  0.00    -0.286 NA
ATOM      8  N   UNL     1      -4.434   1.699  25.031  0.00  0.00    -0.296 NA
ATOM      9  N   UNL     1      -1.835   2.248  23.904  0.00  0.00    -0.312 N 
ATOM     11  C   UNL     1      -4.135   0.314  24.605  0.00  0.00    +0.084 C 
ATOM     12  C   UNL     1      -2.681  -0.028  24.163  0.00  0.00    +0.161 C 
ATOM     13  C   UNL     1      -4.397  -0.745  25.693  0.00  0.00    +0.036 C 
ATOM     14  C   UNL     1      -3.575  -1.931  25.235  0.00  0.00    +0.087 C 
ATOM     15  C   UNL     1      -4.266   2.723  23.962  0.00  0.00    +0.074 C 
ATOM     16  C   UNL     1      -1.635   1.026  24.516  0.00  0.00    +0.232 C 
ATOM     17  C   UNL     1      -2.999   2.557  23.098  0.00  0.00    +0.123 C 
ATOM     20  C   UNL     1      -5.783   1.788  25.613  0.00  0.00    +0.105 C 
ATOM     37  H   UNL     1      -1.161   2.987  24.078  0.00  0.00    +0.149 HD
ENDROOT
BRANCH   7  18
ATOM     18  C   UNL     1      -1.483  -2.162  24.042  0.00  0.00    +0.120 C 
BRANCH  18  22
ATOM     22  C   UNL     1      -0.188  -1.497  23.659  0.00  0.00    -0.033 A 
ATOM     23  C   UNL     1      -0.109  -0.750  22.483  0.00  0.00    +0.007 A 
ATOM     24  C   UNL     1       0.933  -1.627  24.479  0.00  0.00    +0.007 A 
ATOM     26  C   UNL     1       1.091  -0.134  22.128  0.00  0.00    +0.027 A 
ATOM     27  C   UNL     1       2.133  -1.011  24.123  0.00  0.00    +0.027 A 
ATOM     28  C   UNL     1       2.212  -0.264  22.948  0.00  0.00    +0.088 A 
BRANCH  28   1
ATOM      1  S   UNL     1       3.712   0.510  22.504  0.00  0.00    -0.006 S 
ATOM      5  O   UNL     1       3.968   0.269  21.091  0.00  0.00    -0.170 OA
ATOM      6  O   UNL     1       3.680   1.875  23.010  0.00  0.00    -0.170 OA
ATOM     30  C   UNL     1       4.955  -0.381  23.413  0.00  0.00    +0.200 C 
ENDBRANCH  28   1
ENDBRANCH  18  22
ENDBRANCH   7  18
BRANCH  15  19
ATOM     19  C   UNL     1      -4.228   4.140  24.572  0.00  0.00    +0.029 C 
BRANCH  19  21
ATOM     21  C   UNL     1      -3.488   4.134  25.896  0.00  0.00    +0.097 C 
BRANCH  21  25
ATOM      4  O   UNL     1      -1.564   5.367  25.095  0.00  0.00    -0.276 OA
ATOM     10  N   UNL     1      -1.230   3.419  26.314  0.00  0.00    -0.311 N 
ATOM     25  C   UNL     1      -2.005   4.399  25.710  0.00  0.00    +0.213 C 
ATOM     38  H   UNL     1      -1.676   2.636  26.782  0.00  0.00    +0.149 HD
BRANCH  10  29
ATOM     29  C   UNL     1       0.213   3.446  26.277  0.00  0.00    +0.139 C 
BRANCH  29  31
ATOM      2  F   UNL     1       2.468   1.774  31.163  0.00  0.00    -0.205 F 
ATOM     31  C   UNL     1       0.816   3.000  27.583  0.00  0.00    -0.030 A 
ATOM     32  C   UNL     1       2.200   3.022  27.755  0.00  0.00    +0.008 A 
ATOM     33  C   UNL     1      -0.010   2.563  28.619  0.00  0.00    +0.008 A 
ATOM     34  C   UNL     1       2.759   2.608  28.965  0.00  0.00    +0.038 A 
ATOM     35  C   UNL     1       0.548   2.149  29.827  0.00  0.00    +0.038 A 
ATOM     36  C   UNL     1       1.932   2.172  30.000  0.00  0.00    +0.123 A 
ENDBRANCH  29  31
ENDBRANCH  10  29
ENDBRANCH  21  25
ENDBRANCH  19  21
ENDBRANCH  15  19
TORSDOF 8
ENDMDL
MODEL 2
REMARK VINA RESULT:       6.0      2.700      3.717
REMARK  Name = 45360923
REMARK  10 active torsions:
REMARK  status: ('A' for Active; 'I' for Inactive)
REMARK    1  A    between atoms: S_1  and  C_28
REMARK    2  A    between atoms: S_1  and  C_30
REMARK    3  A    between atoms: N_7  and  C_18
REMARK    4  A    between atoms: N_8  and  C_20
REMARK    5  A    between atoms: N_10  and  C_29
REMARK    6  A    between atoms: C_15  and  C_19
REMARK    7  A    between atoms: C_18  and  C_22
REMARK    8  A    between atoms: C_19  and  C_21
REMARK    9  A    between atoms: C_21  and  C_25
REMARK   10  A    between atoms: C_29  and  C_31
REMARK                            x       y       z     vdW  Elec       q    Type
REMARK                         _______ _______ _______ _____ _____    ______ ____
ROOT
ATOM      3  O   UNL     1      -1.549   2.244  23.787  0.00  0.00    -0.274 OA
ATOM      7  N   UNL     1      -0.394  -0.194  23.923  0.00  0.00    -0.286 NA
ATOM      8  N   UNL     1      -3.589  -0.441  25.690  0.00  0.00    -0.296 NA
ATOM      9  N   UNL     1      -3.674   1.444  23.508  0.00  0.00    -0.312 N 
ATOM     11  C   UNL     1      -2.448  -1.002  24.933  0.00  0.00    +0.084 C 
ATOM     12  C   UNL     1      -1.859  -0.170  23.756  0.00  0.00    +0.161 C 
ATOM     13  C   UNL     1      -1.198  -1.270  25.793  0.00  0.00    +0.036 C 
ATOM     14  C   UNL     1      -0.078  -1.335  24.776  0.00  0.00    +0.087 C 
ATOM     15  C   UNL     1      -4.830  -0.257  24.888  0.00  0.00    +0.074 C 
ATOM     16  C   UNL     1      -2.315   1.285  23.702  0.00  0.00    +0.232 C 
ATOM     17  C   UNL     1      -4.613   0.340  23.484  0.00  0.00    +0.123 C 
ATOM     20  C   UNL     1      -3.871  -1.250  26.888  0.00  0.00    +0.105 C 
ATOM     37  H   UNL     1      -4.041   2.389  23.439  0.00  0.00    +0.149 HD
ENDROOT
BRANCH   7  18
ATOM     18  C   UNL     1       0.331  -0.237  22.659  0.00  0.00    +0.120 C 
BRANCH  18  22
ATOM     22  C   UNL     1       1.821  -0.184  22.866  0.00  0.00    -0.033 A 
ATOM     23  C   UNL     1       2.522   0.991  22.593  0.00  0.00    +0.007 A 
ATOM     24  C   UNL     1       2.502  -1.309  23.331  0.00  0.00    +0.007 A 
ATOM     26  C   UNL     1       3.903   1.041  22.784  0.00  0.00    +0.027 A 
ATOM     27  C   UNL     1       3.883  -1.260  23.522  0.00  0.00    +0.027 A 
ATOM     28  C   UNL     1       4.584  -0.085  23.249  0.00  0.00    +0.088 A 
BRANCH  28   1
ATOM      1  S   UNL     1       6.311  -0.021  23.491  0.00  0.00    -0.006 S 
ATOM      5  O   UNL     1       6.974  -0.495  22.285  0.00  0.00    -0.170 OA
ATOM      6  O   UNL     1       6.641   1.290  24.030  0.00  0.00    -0.170 OA
ATOM     30  C   UNL     1       6.624  -1.228  24.760  0.00  0.00    +0.200 C 
ENDBRANCH  28   1
ENDBRANCH  18  22
ENDBRANCH   7  18
BRANCH  15  19
ATOM     19  C   UNL     1      -5.823   0.659  25.633  0.00  0.00    +0.029 C 
BRANCH  19  21
ATOM     21  C   UNL     1      -6.126   1.900  24.813  0.00  0.00    +0.097 C 
BRANCH  21  25
ATOM      4  O   UNL     1      -5.875   4.280  25.180  0.00  0.00    -0.276 OA
ATOM     10  N   UNL     1      -4.416   2.814  26.236  0.00  0.00    -0.311 N 
ATOM     25  C   UNL     1      -5.484   3.138  25.412  0.00  0.00    +0.213 C 
ATOM     38  H   UNL     1      -4.141   1.843  26.352  0.00  0.00    +0.149 HD
BRANCH  10  29
ATOM     29  C   UNL     1      -3.639   3.818  26.923  0.00  0.00    +0.139 C 
BRANCH  29  31
ATOM      2  F   UNL     1       0.756   5.535  23.843  0.00  0.00    -0.205 F 
ATOM     31  C   UNL     1      -2.465   4.277  26.100  0.00  0.00    -0.030 A 
ATOM     32  C   UNL     1      -2.563   5.437  25.332  0.00  0.00    +0.008 A 
ATOM     33  C   UNL     1      -1.279   3.542  26.105  0.00  0.00    +0.008 A 
ATOM     34  C   UNL     1      -1.475   5.863  24.569  0.00  0.00    +0.038 A 
ATOM     35  C   UNL     1      -0.192   3.967  25.343  0.00  0.00    +0.038 A 
ATOM     36  C   UNL     1      -0.290   5.127  24.576  0.00  0.00    +0.123 A 
ENDBRANCH  29  31
ENDBRANCH  10  29
ENDBRANCH  21  25
ENDBRANCH  19  21
ENDBRANCH  15  19
TORSDOF 8
ENDMDL
MODEL 3
REMARK VINA RESULT:       6.7      3.010      4.790
REMARK  Name = 45360923
REMARK  10 active torsions:
REMARK  status: ('A' for Active; 'I' for Inactive)
REMARK    1  A    between atoms: S_1  and  C_28
REMARK    2  A    between atoms: S_1  and  C_30
REMARK    3  A    between atoms: N_7  and  C_18
REMARK    4  A    between atoms: N_8  and  C_20
REMARK    5  A    between atoms: N_10  and  C_29
REMARK    6  A    between atoms: C_15  and  C_19
REMARK    7  A    between atoms: C_18  and  C_22
REMARK    8  A    between atoms: C_19  and  C_21
REMARK    9  A    between atoms: C_21  and  C_25
REMARK   10  A    between atoms: C_29  and  C_31
REMARK                            x       y       z     vdW  Elec       q    Type
REMARK                         _______ _______ _______ _____ _____    ______ ____
ROOT
ATOM      3  O   UNL     1      -1.771   2.519  21.500  0.00  0.00    -0.274 OA
ATOM      7  N   UNL     1       0.013   1.592  23.304  0.00  0.00    -0.286 NA
ATOM      8  N   UNL     1      -2.648   3.240  25.202  0.00  0.00    -0.296 NA
ATOM      9  N   UNL     1      -3.612   2.029  22.767  0.00  0.00    -0.312 N 
ATOM     11  C   UNL     1      -1.541   2.269  25.041  0.00  0.00    +0.084 C 
ATOM     12  C   UNL     1      -1.410   1.513  23.687  0.00  0.00    +0.161 C 
ATOM     13  C   UNL     1      -0.140   2.888  25.200  0.00  0.00    +0.036 C 
ATOM     14  C   UNL     1       0.767   1.887  24.518  0.00  0.00    +0.087 C 
ATOM     15  C   UNL     1      -4.009   2.638  25.135  0.00  0.00    +0.074 C 
ATOM     16  C   UNL     1      -2.249   2.081  22.546  0.00  0.00    +0.232 C 
ATOM     17  C   UNL     1      -4.203   1.595  24.016  0.00  0.00    +0.123 C 
ATOM     20  C   UNL     1      -2.492   4.010  26.447  0.00  0.00    +0.105 C 
ATOM     37  H   UNL     1      -4.229   2.371  22.036  0.00  0.00    +0.149 HD
ENDROOT
BRANCH   7  18
ATOM     18  C   UNL     1       0.498   0.392  22.634  0.00  0.00    +0.120 C 
BRANCH  18  22
ATOM     22  C   UNL     1       1.968   0.174  22.870  0.00  0.00    -0.033 A 
ATOM     23  C   UNL     1       2.886   1.163  22.512  0.00  0.00    +0.007 A 
ATOM     24  C   UNL     1       2.415  -1.015  23.447  0.00  0.00    +0.007 A 
ATOM     26  C   UNL     1       4.249   0.961  22.730  0.00  0.00    +0.027 A 
ATOM     27  C   UNL     1       3.778  -1.216  23.665  0.00  0.00    +0.027 A 
ATOM     28  C   UNL     1       4.695  -0.228  23.306  0.00  0.00    +0.088 A 
BRANCH  28   1
ATOM      1  S   UNL     1       6.400  -0.478  23.582  0.00  0.00    -0.006 S 
ATOM      5  O   UNL     1       6.568  -1.381  24.713  0.00  0.00    -0.170 OA
ATOM      6  O   UNL     1       7.019  -0.798  22.304  0.00  0.00    -0.170 OA
ATOM     30  C   UNL     1       7.003   1.114  24.098  0.00  0.00    +0.200 C 
ENDBRANCH  28   1
ENDBRANCH  18  22
ENDBRANCH   7  18
BRANCH  15  19
ATOM     19  C   UNL     1      -5.075   3.736  24.934  0.00  0.00    +0.029 C 
BRANCH  19  21
ATOM     21  C   UNL     1      -6.416   3.287  25.482  0.00  0.00    +0.097 C 
BRANCH  21  25
ATOM      4  O   UNL     1      -6.893   1.869  27.386  0.00  0.00    -0.276 OA
ATOM     10  N   UNL     1      -5.401   1.126  25.770  0.00  0.00    -0.311 N 
ATOM     25  C   UNL     1      -6.285   2.036  26.332  0.00  0.00    +0.213 C 
ATOM     38  H   UNL     1      -4.918   1.355  24.907  0.00  0.00    +0.149 HD
BRANCH  10  29
ATOM     29  C   UNL     1      -5.103  -0.143  26.390  0.00  0.00    +0.139 C 
BRANCH  29  31
ATOM      2  F   UNL     1      -1.034  -2.912  23.648  0.00  0.00    -0.205 F 
ATOM     31  C   UNL     1      -4.016  -0.884  25.658  0.00  0.00    -0.030 A 
ATOM     32  C   UNL     1      -2.702  -0.832  26.124  0.00  0.00    +0.008 A 
ATOM     33  C   UNL     1      -4.322  -1.620  24.513  0.00  0.00    +0.008 A 
ATOM     34  C   UNL     1      -1.694  -1.518  25.446  0.00  0.00    +0.038 A 
ATOM     35  C   UNL     1      -3.315  -2.304  23.835  0.00  0.00    +0.038 A 
ATOM     36  C   UNL     1      -2.001  -2.254  24.301  0.00  0.00    +0.123 A 
ENDBRANCH  29  31
ENDBRANCH  10  29
ENDBRANCH  21  25
ENDBRANCH  19  21
ENDBRANCH  15  19
TORSDOF 8
ENDMDL
