MODEL 1
REMARK VINA RESULT:      -0.7      0.000      0.000
REMARK  Name = 40779397
REMARK  7 active torsions:
REMARK  status: ('A' for Active; 'I' for Inactive)
REMARK    1  A    between atoms: S_1  and  N_6
REMARK    2  A    between atoms: S_1  and  C_26
REMARK    3  A    between atoms: N_5  and  C_25
REMARK    4  A    between atoms: N_6  and  C_16
REMARK    5  A    between atoms: C_9  and  C_15
REMARK    6  A    between atoms: C_10  and  C_16
REMARK    7  A    between atoms: C_18  and  C_19
REMARK                            x       y       z     vdW  Elec       q    Type
REMARK                         _______ _______ _______ _____ _____    ______ ____
ROOT
ATOM      4  N   UNL     1      -3.735   2.885  24.216  0.00  0.00    -0.297 NA
ATOM      8  C   UNL     1      -1.507   2.837  25.563  0.00  0.00    +0.002 C 
ATOM      9  C   UNL     1      -1.222   2.763  24.038  0.00  0.00    +0.055 C 
ATOM     10  C   UNL     1      -3.814   1.861  25.292  0.00  0.00    +0.072 C 
ATOM     11  C   UNL     1      -2.437   1.673  25.966  0.00  0.00    +0.024 C 
ATOM     12  C   UNL     1      -2.590   2.593  23.318  0.00  0.00    +0.094 C 
ATOM     13  C   UNL     1      -2.288   4.146  25.807  0.00  0.00    +0.019 C 
ATOM     14  C   UNL     1      -3.496   4.200  24.857  0.00  0.00    +0.085 C 
ENDROOT
BRANCH   9  15
ATOM      5  N   UNL     1      -0.485   0.726  22.717  0.00  0.00    -0.271 N 
ATOM      7  N   UNL     1       0.571  -0.043  22.401  0.00  0.00    -0.176 NA
ATOM     15  C   UNL     1      -0.184   1.763  23.549  0.00  0.00    +0.044 A 
ATOM     17  C   UNL     1       1.164   1.666  23.796  0.00  0.00    +0.048 A 
ATOM     19  C   UNL     1       1.575   0.536  23.064  0.00  0.00    +0.066 A 
ATOM     25  C   UNL     1      -1.783   0.398  22.172  0.00  0.00    +0.172 C 
BRANCH  19  18
ATOM     18  C   UNL     1       2.975  -0.043  22.968  0.00  0.00    +0.040 C 
ATOM     20  C   UNL     1       3.169  -1.231  23.925  0.00  0.00    +0.010 C 
ATOM     21  C   UNL     1       4.056   1.029  23.195  0.00  0.00    +0.010 C 
ATOM     22  C   UNL     1       4.578  -1.813  23.814  0.00  0.00    +0.001 C 
ATOM     23  C   UNL     1       5.460   0.438  23.087  0.00  0.00    +0.001 C 
ATOM     24  C   UNL     1       5.647  -0.747  24.031  0.00  0.00    +0.000 C 
ENDBRANCH  19  18
ENDBRANCH   9  15
BRANCH  10  16
ATOM     16  C   UNL     1      -4.390   0.535  24.793  0.00  0.00    +0.124 C 
BRANCH  16   6
ATOM      6  N   UNL     1      -3.778  -0.572  25.545  0.00  0.00    -0.193 NA
ATOM     27  H   UNL     1      -4.135  -0.663  26.505  0.00  0.00    +0.148 HD
BRANCH   6   1
ATOM      1  S   UNL     1      -3.412  -2.031  24.734  0.00  0.00    +0.027 S 
ATOM      2  O   UNL     1      -4.001  -2.018  23.409  0.00  0.00    -0.158 OA
ATOM      3  O   UNL     1      -3.651  -3.136  25.642  0.00  0.00    -0.158 OA
ATOM     26  C   UNL     1      -1.650  -1.867  24.550  0.00  0.00    +0.214 C 
ENDBRANCH   6   1
ENDBRANCH  16   6
ENDBRANCH  10  16
TORSDOF 5
ENDMDL
MODEL 2
REMARK VINA RESULT:      -0.7      1.759      2.624
REMARK  Name = 40779397
REMARK  7 active torsions:
REMARK  status: ('A' for Active; 'I' for Inactive)
REMARK    1  A    between atoms: S_1  and  N_6
REMARK    2  A    between atoms: S_1  and  C_26
REMARK    3  A    between atoms: N_5  and  C_25
REMARK    4  A    between atoms: N_6  and  C_16
REMARK    5  A    between atoms: C_9  and  C_15
REMARK    6  A    between atoms: C_10  and  C_16
REMARK    7  A    between atoms: C_18  and  C_19
REMARK                            x       y       z     vdW  Elec       q    Type
REMARK                         _______ _______ _______ _____ _____    ______ ____
ROOT
ATOM      4  N   UNL     1      -5.435   2.321  24.128  0.00  0.00    -0.297 NA
ATOM      8  C   UNL     1      -3.806   2.857  26.088  0.00  0.00    +0.002 C 
ATOM      9  C   UNL     1      -3.181   3.280  24.731  0.00  0.00    +0.055 C 
ATOM     10  C   UNL     1      -5.276   1.126  24.999  0.00  0.00    +0.072 C 
ATOM     11  C   UNL     1      -4.161   1.356  26.042  0.00  0.00    +0.024 C 
ATOM     12  C   UNL     1      -4.113   2.749  23.605  0.00  0.00    +0.094 C 
ATOM     13  C   UNL     1      -5.134   3.633  26.227  0.00  0.00    +0.019 C 
ATOM     14  C   UNL     1      -5.980   3.420  24.961  0.00  0.00    +0.085 C 
ENDROOT
BRANCH   9  15
ATOM      5  N   UNL     1      -0.713   3.855  24.590  0.00  0.00    -0.271 N 
ATOM      7  N   UNL     1       0.508   3.356  24.326  0.00  0.00    -0.176 NA
ATOM     15  C   UNL     1      -1.718   2.940  24.477  0.00  0.00    +0.044 A 
ATOM     17  C   UNL     1      -1.115   1.762  24.112  0.00  0.00    +0.048 A 
ATOM     19  C   UNL     1       0.254   2.078  24.034  0.00  0.00    +0.066 A 
ATOM     25  C   UNL     1      -0.842   5.247  24.953  0.00  0.00    +0.172 C 
BRANCH  19  18
ATOM     18  C   UNL     1       1.398   1.148  23.671  0.00  0.00    +0.040 C 
ATOM     20  C   UNL     1       2.634   1.923  23.185  0.00  0.00    +0.010 C 
ATOM     21  C   UNL     1       0.970   0.090  22.637  0.00  0.00    +0.010 C 
ATOM     22  C   UNL     1       3.782   0.979  22.831  0.00  0.00    +0.001 C 
ATOM     23  C   UNL     1       2.125  -0.846  22.286  0.00  0.00    +0.001 C 
ATOM     24  C   UNL     1       3.353  -0.073  21.813  0.00  0.00    +0.000 C 
ENDBRANCH  19  18
ENDBRANCH   9  15
BRANCH  10  16
ATOM     16  C   UNL     1      -5.048  -0.155  24.194  0.00  0.00    +0.124 C 
BRANCH  16   6
ATOM      6  N   UNL     1      -3.623  -0.515  24.251  0.00  0.00    -0.193 NA
ATOM     27  H   UNL     1      -3.005   0.283  24.450  0.00  0.00    +0.148 HD
BRANCH   6   1
ATOM      1  S   UNL     1      -3.167  -2.013  24.935  0.00  0.00    +0.027 S 
ATOM      2  O   UNL     1      -3.741  -3.099  24.166  0.00  0.00    -0.158 OA
ATOM      3  O   UNL     1      -3.354  -1.940  26.372  0.00  0.00    -0.158 OA
ATOM     26  C   UNL     1      -1.415  -1.992  24.626  0.00  0.00    +0.214 C 
ENDBRANCH   6   1
ENDBRANCH  16   6
ENDBRANCH  10  16
TORSDOF 5
ENDMDL
MODEL 3
REMARK VINA RESULT:      -0.6      2.555      3.900
REMARK  Name = 40779397
REMARK  7 active torsions:
REMARK  status: ('A' for Active; 'I' for Inactive)
REMARK    1  A    between atoms: S_1  and  N_6
REMARK    2  A    between atoms: S_1  and  C_26
REMARK    3  A    between atoms: N_5  and  C_25
REMARK    4  A    between atoms: N_6  and  C_16
REMARK    5  A    between atoms: C_9  and  C_15
REMARK    6  A    between atoms: C_10  and  C_16
REMARK    7  A    between atoms: C_18  and  C_19
REMARK                            x       y       z     vdW  Elec       q    Type
REMARK                         _______ _______ _______ _____ _____    ______ ____
ROOT
ATOM      4  N   UNL     1      -3.835  -0.350  25.803  0.00  0.00    -0.297 NA
ATOM      8  C   UNL     1      -2.658  -2.005  24.173  0.00  0.00    +0.002 C 
ATOM      9  C   UNL     1      -1.608  -1.255  25.037  0.00  0.00    +0.055 C 
ATOM     10  C   UNL     1      -4.349  -0.155  24.422  0.00  0.00    +0.072 C 
ATOM     11  C   UNL     1      -3.522  -0.978  23.411  0.00  0.00    +0.024 C 
ATOM     12  C   UNL     1      -2.363  -0.151  25.831  0.00  0.00    +0.094 C 
ATOM     13  C   UNL     1      -3.594  -2.745  25.153  0.00  0.00    +0.019 C 
ATOM     14  C   UNL     1      -4.119  -1.749  26.201  0.00  0.00    +0.085 C 
ENDROOT
BRANCH   9  15
ATOM      5  N   UNL     1      -0.330   0.482  23.698  0.00  0.00    -0.271 N 
ATOM      7  N   UNL     1       0.865   0.775  23.155  0.00  0.00    -0.176 NA
ATOM     15  C   UNL     1      -0.362  -0.718  24.346  0.00  0.00    +0.044 A 
ATOM     17  C   UNL     1       0.899  -1.248  24.217  0.00  0.00    +0.048 A 
ATOM     19  C   UNL     1       1.610  -0.286  23.475  0.00  0.00    +0.066 A 
ATOM     25  C   UNL     1      -1.419   1.420  23.553  0.00  0.00    +0.172 C 
BRANCH  19  18
ATOM     18  C   UNL     1       3.062  -0.347  23.035  0.00  0.00    +0.040 C 
ATOM     20  C   UNL     1       3.883  -1.314  23.906  0.00  0.00    +0.010 C 
ATOM     21  C   UNL     1       3.710   1.049  23.002  0.00  0.00    +0.010 C 
ATOM     22  C   UNL     1       5.340  -1.375  23.450  0.00  0.00    +0.001 C 
ATOM     23  C   UNL     1       5.167   0.978  22.550  0.00  0.00    +0.001 C 
ATOM     24  C   UNL     1       5.977   0.011  23.409  0.00  0.00    +0.000 C 
ENDBRANCH  19  18
ENDBRANCH   9  15
BRANCH  10  16
ATOM     16  C   UNL     1      -4.423   1.322  24.031  0.00  0.00    +0.124 C 
BRANCH  16   6
ATOM      6  N   UNL     1      -4.880   2.107  25.188  0.00  0.00    -0.193 NA
ATOM     27  H   UNL     1      -4.770   1.618  26.086  0.00  0.00    +0.148 HD
BRANCH   6   1
ATOM      1  S   UNL     1      -4.614   3.794  25.211  0.00  0.00    +0.027 S 
ATOM      2  O   UNL     1      -5.756   4.464  25.804  0.00  0.00    -0.158 OA
ATOM      3  O   UNL     1      -4.108   4.199  23.914  0.00  0.00    -0.158 OA
ATOM     26  C   UNL     1      -3.263   3.895  26.363  0.00  0.00    +0.214 C 
ENDBRANCH   6   1
ENDBRANCH  16   6
ENDBRANCH  10  16
TORSDOF 5
ENDMDL
MODEL 4
REMARK VINA RESULT:      -0.6      2.882      3.902
REMARK  Name = 40779397
REMARK  7 active torsions:
REMARK  status: ('A' for Active; 'I' for Inactive)
REMARK    1  A    between atoms: S_1  and  N_6
REMARK    2  A    between atoms: S_1  and  C_26
REMARK    3  A    between atoms: N_5  and  C_25
REMARK    4  A    between atoms: N_6  and  C_16
REMARK    5  A    between atoms: C_9  and  C_15
REMARK    6  A    between atoms: C_10  and  C_16
REMARK    7  A    between atoms: C_18  and  C_19
REMARK                            x       y       z     vdW  Elec       q    Type
REMARK                         _______ _______ _______ _____ _____    ______ ____
ROOT
ATOM      4  N   UNL     1      -4.130   2.407  25.505  0.00  0.00    -0.297 NA
ATOM      8  C   UNL     1      -4.143   0.345  23.915  0.00  0.00    +0.002 C 
ATOM      9  C   UNL     1      -2.986   0.229  24.946  0.00  0.00    +0.055 C 
ATOM     10  C   UNL     1      -4.195   2.858  24.090  0.00  0.00    +0.072 C 
ATOM     11  C   UNL     1      -3.996   1.666  23.129  0.00  0.00    +0.024 C 
ATOM     12  C   UNL     1      -2.918   1.576  25.719  0.00  0.00    +0.094 C 
ATOM     13  C   UNL     1      -5.453   0.443  24.725  0.00  0.00    +0.019 C 
ATOM     14  C   UNL     1      -5.320   1.564  25.769  0.00  0.00    +0.085 C 
ENDROOT
BRANCH   9  15
ATOM      5  N   UNL     1      -1.248  -1.529  24.375  0.00  0.00    -0.271 N 
ATOM      7  N   UNL     1      -0.002  -1.715  23.904  0.00  0.00    -0.176 NA
ATOM     15  C   UNL     1      -1.620  -0.219  24.445  0.00  0.00    +0.044 A 
ATOM     17  C   UNL     1      -0.544   0.503  23.991  0.00  0.00    +0.048 A 
ATOM     19  C   UNL     1       0.422  -0.470  23.673  0.00  0.00    +0.066 A 
ATOM     25  C   UNL     1      -2.040  -2.679  24.745  0.00  0.00    +0.172 C 
BRANCH  19  18
ATOM     18  C   UNL     1       1.818  -0.241  23.122  0.00  0.00    +0.040 C 
ATOM     20  C   UNL     1       2.857  -1.153  23.796  0.00  0.00    +0.010 C 
ATOM     21  C   UNL     1       2.238   1.237  23.220  0.00  0.00    +0.010 C 
ATOM     22  C   UNL     1       4.256  -0.922  23.228  0.00  0.00    +0.001 C 
ATOM     23  C   UNL     1       3.639   1.458  22.654  0.00  0.00    +0.001 C 
ATOM     24  C   UNL     1       4.666   0.545  23.318  0.00  0.00    +0.000 C 
ENDBRANCH  19  18
ENDBRANCH   9  15
BRANCH  10  16
ATOM     16  C   UNL     1      -3.218   3.997  23.796  0.00  0.00    +0.124 C 
BRANCH  16   6
ATOM      6  N   UNL     1      -2.345   4.200  24.963  0.00  0.00    -0.193 NA
ATOM     27  H   UNL     1      -2.671   3.714  25.809  0.00  0.00    +0.148 HD
BRANCH   6   1
ATOM      1  S   UNL     1      -0.653   4.273  24.738  0.00  0.00    +0.027 S 
ATOM      2  O   UNL     1      -0.190   5.633  24.931  0.00  0.00    -0.158 OA
ATOM      3  O   UNL     1      -0.316   3.537  23.534  0.00  0.00    -0.158 OA
ATOM     26  C   UNL     1      -0.099   3.305  26.124  0.00  0.00    +0.214 C 
ENDBRANCH   6   1
ENDBRANCH  16   6
ENDBRANCH  10  16
TORSDOF 5
ENDMDL
MODEL 5
REMARK VINA RESULT:       0.8      3.186      5.795
REMARK  Name = 40779397
REMARK  7 active torsions:
REMARK  status: ('A' for Active; 'I' for Inactive)
REMARK    1  A    between atoms: S_1  and  N_6
REMARK    2  A    between atoms: S_1  and  C_26
REMARK    3  A    between atoms: N_5  and  C_25
REMARK    4  A    between atoms: N_6  and  C_16
REMARK    5  A    between atoms: C_9  and  C_15
REMARK    6  A    between atoms: C_10  and  C_16
REMARK    7  A    between atoms: C_18  and  C_19
REMARK                            x       y       z     vdW  Elec       q    Type
REMARK                         _______ _______ _______ _____ _____    ______ ____
ROOT
ATOM      4  N   UNL     1      -0.917   4.832  25.450  0.00  0.00    -0.297 NA
ATOM      8  C   UNL     1      -2.838   4.441  23.735  0.00  0.00    +0.002 C 
ATOM      9  C   UNL     1      -3.219   3.853  25.122  0.00  0.00    +0.055 C 
ATOM     10  C   UNL     1      -0.371   4.236  24.203  0.00  0.00    +0.072 C 
ATOM     11  C   UNL     1      -1.514   3.807  23.258  0.00  0.00    +0.024 C 
ATOM     12  C   UNL     1      -1.957   3.943  26.026  0.00  0.00    +0.094 C 
ATOM     13  C   UNL     1      -2.568   5.946  23.949  0.00  0.00    +0.019 C 
ATOM     14  C   UNL     1      -1.557   6.122  25.095  0.00  0.00    +0.085 C 
ENDROOT
BRANCH   9  15
ATOM      5  N   UNL     1      -5.178   2.277  25.465  0.00  0.00    -0.271 N 
ATOM      7  N   UNL     1      -5.552   0.986  25.449  0.00  0.00    -0.176 NA
ATOM     15  C   UNL     1      -3.863   2.474  25.164  0.00  0.00    +0.044 A 
ATOM     17  C   UNL     1      -3.339   1.225  24.936  0.00  0.00    +0.048 A 
ATOM     19  C   UNL     1      -4.424   0.349  25.126  0.00  0.00    +0.066 A 
ATOM     25  C   UNL     1      -6.157   3.290  25.786  0.00  0.00    +0.172 C 
BRANCH  19  18
ATOM     18  C   UNL     1      -4.422  -1.164  25.000  0.00  0.00    +0.040 C 
ATOM     20  C   UNL     1      -3.271  -1.803  25.796  0.00  0.00    +0.010 C 
ATOM     21  C   UNL     1      -4.393  -1.617  23.529  0.00  0.00    +0.010 C 
ATOM     22  C   UNL     1      -3.284  -3.325  25.671  0.00  0.00    +0.001 C 
ATOM     23  C   UNL     1      -4.401  -3.140  23.415  0.00  0.00    +0.001 C 
ATOM     24  C   UNL     1      -3.264  -3.772  24.212  0.00  0.00    +0.000 C 
ENDBRANCH  19  18
ENDBRANCH   9  15
BRANCH  10  16
ATOM     16  C   UNL     1       0.599   3.087  24.483  0.00  0.00    +0.124 C 
BRANCH  16   6
ATOM      6  N   UNL     1      -0.165   1.842  24.666  0.00  0.00    -0.193 NA
ATOM     27  H   UNL     1      -1.136   1.997  24.967  0.00  0.00    +0.148 HD
BRANCH   6   1
ATOM      1  S   UNL     1       0.094   0.537  23.595  0.00  0.00    +0.027 S 
ATOM      2  O   UNL     1       1.494   0.480  23.221  0.00  0.00    -0.158 OA
ATOM      3  O   UNL     1      -0.944   0.558  22.583  0.00  0.00    -0.158 OA
ATOM     26  C   UNL     1      -0.240  -0.839  24.672  0.00  0.00    +0.214 C 
ENDBRANCH   6   1
ENDBRANCH  16   6
ENDBRANCH  10  16
TORSDOF 5
ENDMDL
MODEL 6
REMARK VINA RESULT:       2.2      2.676      4.777
REMARK  Name = 40779397
REMARK  7 active torsions:
REMARK  status: ('A' for Active; 'I' for Inactive)
REMARK    1  A    between atoms: S_1  and  N_6
REMARK    2  A    between atoms: S_1  and  C_26
REMARK    3  A    between atoms: N_5  and  C_25
REMARK    4  A    between atoms: N_6  and  C_16
REMARK    5  A    between atoms: C_9  and  C_15
REMARK    6  A    between atoms: C_10  and  C_16
REMARK    7  A    between atoms: C_18  and  C_19
REMARK                            x       y       z     vdW  Elec       q    Type
REMARK                         _______ _______ _______ _____ _____    ______ ____
ROOT
ATOM      4  N   UNL     1      -2.964   4.781  24.560  0.00  0.00    -0.297 NA
ATOM      8  C   UNL     1      -0.703   3.842  25.448  0.00  0.00    +0.002 C 
ATOM      9  C   UNL     1      -1.162   3.055  24.189  0.00  0.00    +0.055 C 
ATOM     10  C   UNL     1      -3.062   4.518  26.020  0.00  0.00    +0.072 C 
ATOM     11  C   UNL     1      -1.808   3.772  26.524  0.00  0.00    +0.024 C 
ATOM     12  C   UNL     1      -2.600   3.533  23.842  0.00  0.00    +0.094 C 
ATOM     13  C   UNL     1      -0.575   5.321  25.026  0.00  0.00    +0.019 C 
ATOM     14  C   UNL     1      -1.880   5.769  24.347  0.00  0.00    +0.085 C 
ENDROOT
BRANCH   9  15
ATOM      5  N   UNL     1       0.120   0.876  23.962  0.00  0.00    -0.271 N 
ATOM      7  N   UNL     1       0.012  -0.462  24.030  0.00  0.00    -0.176 NA
ATOM     15  C   UNL     1      -1.047   1.537  24.210  0.00  0.00    +0.044 A 
ATOM     17  C   UNL     1      -1.985   0.564  24.456  0.00  0.00    +0.048 A 
ATOM     19  C   UNL     1      -1.276  -0.646  24.331  0.00  0.00    +0.066 A 
ATOM     25  C   UNL     1       1.401   1.465  23.648  0.00  0.00    +0.172 C 
BRANCH  19  18
ATOM     18  C   UNL     1      -1.816  -2.055  24.500  0.00  0.00    +0.040 C 
ATOM     20  C   UNL     1      -1.664  -2.884  23.214  0.00  0.00    +0.010 C 
ATOM     21  C   UNL     1      -3.277  -2.054  24.985  0.00  0.00    +0.010 C 
ATOM     22  C   UNL     1      -2.201  -4.303  23.397  0.00  0.00    +0.001 C 
ATOM     23  C   UNL     1      -3.807  -3.476  25.161  0.00  0.00    +0.001 C 
ATOM     24  C   UNL     1      -3.646  -4.300  23.886  0.00  0.00    +0.000 C 
ENDBRANCH  19  18
ENDBRANCH   9  15
BRANCH  10  16
ATOM     16  C   UNL     1      -4.351   3.786  26.396  0.00  0.00    +0.124 C 
BRANCH  16   6
ATOM      6  N   UNL     1      -5.023   3.329  25.169  0.00  0.00    -0.193 NA
ATOM     27  H   UNL     1      -4.520   3.580  24.307  0.00  0.00    +0.148 HD
BRANCH   6   1
ATOM      1  S   UNL     1      -5.819   1.817  25.165  0.00  0.00    +0.027 S 
ATOM      2  O   UNL     1      -4.854   0.755  24.960  0.00  0.00    -0.158 OA
ATOM      3  O   UNL     1      -6.999   1.919  24.329  0.00  0.00    -0.158 OA
ATOM     26  C   UNL     1      -6.370   1.736  26.855  0.00  0.00    +0.214 C 
ENDBRANCH   6   1
ENDBRANCH  16   6
ENDBRANCH  10  16
TORSDOF 5
ENDMDL
MODEL 7
REMARK VINA RESULT:       2.5      2.814      4.015
REMARK  Name = 40779397
REMARK  7 active torsions:
REMARK  status: ('A' for Active; 'I' for Inactive)
REMARK    1  A    between atoms: S_1  and  N_6
REMARK    2  A    between atoms: S_1  and  C_26
REMARK    3  A    between atoms: N_5  and  C_25
REMARK    4  A    between atoms: N_6  and  C_16
REMARK    5  A    between atoms: C_9  and  C_15
REMARK    6  A    between atoms: C_10  and  C_16
REMARK    7  A    between atoms: C_18  and  C_19
REMARK                            x       y       z     vdW  Elec       q    Type
REMARK                         _______ _______ _______ _____ _____    ______ ____
ROOT
ATOM      4  N   UNL     1      -4.132   1.858  23.189  0.00  0.00    -0.297 NA
ATOM      8  C   UNL     1      -3.375   3.954  24.537  0.00  0.00    +0.002 C 
ATOM      9  C   UNL     1      -2.142   3.129  24.078  0.00  0.00    +0.055 C 
ATOM     10  C   UNL     1      -4.888   1.941  24.468  0.00  0.00    +0.072 C 
ATOM     11  C   UNL     1      -4.311   3.053  25.370  0.00  0.00    +0.024 C 
ATOM     12  C   UNL     1      -2.674   1.803  23.463  0.00  0.00    +0.094 C 
ATOM     13  C   UNL     1      -4.146   4.351  23.260  0.00  0.00    +0.019 C 
ATOM     14  C   UNL     1      -4.410   3.092  22.417  0.00  0.00    +0.085 C 
ENDROOT
BRANCH   9  15
ATOM      5  N   UNL     1       0.071   2.123  24.808  0.00  0.00    -0.271 N 
ATOM      7  N   UNL     1       0.945   2.039  25.826  0.00  0.00    -0.176 NA
ATOM     15  C   UNL     1      -1.022   2.891  25.082  0.00  0.00    +0.044 A 
ATOM     17  C   UNL     1      -0.853   3.340  26.368  0.00  0.00    +0.048 A 
ATOM     19  C   UNL     1       0.375   2.784  26.776  0.00  0.00    +0.066 A 
ATOM     25  C   UNL     1       0.355   1.425  23.575  0.00  0.00    +0.172 C 
BRANCH  19  18
ATOM     18  C   UNL     1       1.063   2.949  28.119  0.00  0.00    +0.040 C 
ATOM     20  C   UNL     1       2.564   2.622  28.036  0.00  0.00    +0.010 C 
ATOM     21  C   UNL     1       0.379   2.120  29.220  0.00  0.00    +0.010 C 
ATOM     22  C   UNL     1       3.250   2.801  29.389  0.00  0.00    +0.001 C 
ATOM     23  C   UNL     1       1.074   2.301  30.568  0.00  0.00    +0.001 C 
ATOM     24  C   UNL     1       2.565   1.985  30.481  0.00  0.00    +0.000 C 
ENDBRANCH  19  18
ENDBRANCH   9  15
BRANCH  10  16
ATOM     16  C   UNL     1      -4.955   0.595  25.192  0.00  0.00    +0.124 C 
BRANCH  16   6
ATOM      6  N   UNL     1      -3.609   0.001  25.236  0.00  0.00    -0.193 NA
ATOM     27  H   UNL     1      -3.047   0.317  26.037  0.00  0.00    +0.148 HD
BRANCH   6   1
ATOM      1  S   UNL     1      -3.399  -1.626  24.760  0.00  0.00    +0.027 S 
ATOM      2  O   UNL     1      -4.165  -1.889  23.557  0.00  0.00    -0.158 OA
ATOM      3  O   UNL     1      -3.542  -2.471  25.930  0.00  0.00    -0.158 OA
ATOM     26  C   UNL     1      -1.676  -1.616  24.320  0.00  0.00    +0.214 C 
ENDBRANCH   6   1
ENDBRANCH  16   6
ENDBRANCH  10  16
TORSDOF 5
ENDMDL
