MODEL 1
REMARK VINA RESULT:      -0.7      0.000      0.000
REMARK  Name = 51136911
REMARK  5 active torsions:
REMARK  status: ('A' for Active; 'I' for Inactive)
REMARK    1  A    between atoms: N_4  and  C_14
REMARK    2  A    between atoms: C_10  and  C_15
REMARK    3  A    between atoms: C_14  and  C_16
REMARK    4  A    between atoms: C_19  and  C_23
REMARK    5  A    between atoms: C_28  and  C_29
REMARK                            x       y       z     vdW  Elec       q    Type
REMARK                         _______ _______ _______ _____ _____    ______ ____
ROOT
ATOM      1  O   UNL     1      -3.429   2.653  22.284  0.00  0.00    -0.336 OA
ATOM      5  N   UNL     1      -2.456   1.757  24.093  0.00  0.00    -0.190 NA
ATOM      6  N   UNL     1      -2.132   2.294  21.893  0.00  0.00    -0.056 NA
ATOM     15  C   UNL     1      -3.536   2.302  23.593  0.00  0.00    +0.245 A 
ATOM     19  C   UNL     1      -1.622   1.774  23.012  0.00  0.00    +0.204 A 
ENDROOT
BRANCH  19  23
ATOM      7  N   UNL     1       1.985   1.520  23.879  0.00  0.00    -0.254 NA
ATOM     23  C   UNL     1      -0.284   1.262  23.086  0.00  0.00    +0.041 A 
ATOM     25  C   UNL     1       0.059   0.062  22.471  0.00  0.00    +0.015 A 
ATOM     26  C   UNL     1       0.707   1.946  23.771  0.00  0.00    +0.123 A 
ATOM     27  C   UNL     1       1.365  -0.409  22.560  0.00  0.00    +0.029 A 
ATOM     28  C   UNL     1       2.282   0.351  23.269  0.00  0.00    +0.074 A 
BRANCH  28  29
ATOM      8  N   UNL     1       5.259  -1.785  23.953  0.00  0.00    -0.243 NA
ATOM      9  N   UNL     1       6.008   0.396  23.253  0.00  0.00    -0.243 NA
ATOM     29  C   UNL     1       3.654  -0.077  23.404  0.00  0.00    +0.037 A 
ATOM     30  C   UNL     1       3.989  -1.351  23.813  0.00  0.00    +0.124 A 
ATOM     31  C   UNL     1       4.716   0.762  23.134  0.00  0.00    +0.124 A 
ATOM     32  C   UNL     1       6.205  -0.872  23.660  0.00  0.00    +0.221 A 
ENDBRANCH  28  29
ENDBRANCH  19  23
BRANCH  15  10
ATOM      4  N   UNL     1      -4.997   1.921  25.571  0.00  0.00    -0.287 NA
ATOM     10  C   UNL     1      -4.866   2.587  24.260  0.00  0.00    +0.146 C 
ATOM     11  C   UNL     1      -5.070   4.084  24.559  0.00  0.00    +0.030 C 
ATOM     12  C   UNL     1      -5.371   4.154  26.051  0.00  0.00    +0.017 C 
ATOM     13  C   UNL     1      -5.881   2.764  26.377  0.00  0.00    +0.085 C 
BRANCH   4  14
ATOM     14  C   UNL     1      -5.486   0.551  25.472  0.00  0.00    +0.120 C 
BRANCH  14  16
ATOM      2  O   UNL     1      -0.904  -1.255  25.962  0.00  0.00    -0.453 OA
ATOM      3  O   UNL     1      -1.287  -2.991  24.336  0.00  0.00    -0.453 OA
ATOM     16  C   UNL     1      -4.381  -0.416  25.141  0.00  0.00    -0.030 A 
ATOM     17  C   UNL     1      -3.144  -0.301  25.781  0.00  0.00    +0.054 A 
ATOM     18  C   UNL     1      -4.604  -1.429  24.193  0.00  0.00    +0.009 A 
ATOM     20  C   UNL     1      -2.163  -1.212  25.447  0.00  0.00    +0.167 A 
ATOM     21  C   UNL     1      -3.594  -2.339  23.873  0.00  0.00    +0.050 A 
ATOM     22  C   UNL     1      -2.382  -2.204  24.518  0.00  0.00    +0.166 A 
ATOM     24  C   UNL     1      -0.355  -2.385  25.254  0.00  0.00    +0.466 C 
ENDBRANCH  14  16
ENDBRANCH   4  14
ENDBRANCH  15  10
TORSDOF 5
ENDMDL
