MODEL 1
REMARK VINA RESULT:      -3.4      0.000      0.000
REMARK  Name = 75536969
REMARK  3 active torsions:
REMARK  status: ('A' for Active; 'I' for Inactive)
REMARK    1  A    between atoms: O_3  and  C_16
REMARK    2  A    between atoms: O_3  and  C_21
REMARK    3  A    between atoms: N_7  and  C_15
REMARK                            x       y       z     vdW  Elec       q    Type
REMARK                         _______ _______ _______ _____ _____    ______ ____
ROOT
ATOM      1  O   UNL     1       6.268 -10.781  32.622  0.00  0.00    -0.253 OA
ATOM      2  O   UNL     1      12.851  -8.886  31.640  0.00  0.00    -0.252 OA
ATOM      4  N   UNL     1       8.135  -9.394  32.263  0.00  0.00    -0.278 N 
ATOM      5  N   UNL     1      10.742  -8.454  32.477  0.00  0.00    -0.282 N 
ATOM      6  N   UNL     1       6.149  -8.439  32.701  0.00  0.00    -0.297 N 
ATOM      7  N   UNL     1      12.093  -6.693  31.682  0.00  0.00    -0.266 N 
ATOM      8  C   UNL     1       8.369  -7.967  32.114  0.00  0.00    +0.112 C 
ATOM      9  C   UNL     1       9.631  -7.562  32.869  0.00  0.00    +0.133 C 
ATOM     10  C   UNL     1       7.081  -7.338  32.633  0.00  0.00    +0.129 C 
ATOM     11  C   UNL     1       9.215 -10.337  32.022  0.00  0.00    +0.128 C 
ATOM     12  C   UNL     1      10.483  -9.879  32.743  0.00  0.00    +0.128 C 
ATOM     13  C   UNL     1       6.793  -9.680  32.535  0.00  0.00    +0.303 C 
ATOM     14  C   UNL     1      11.974  -8.063  31.916  0.00  0.00    +0.307 C 
ATOM     22  H   UNL     1       5.163  -8.342  32.927  0.00  0.00    +0.150 HD
ATOM     23  H   UNL     1      11.248  -6.166  31.490  0.00  0.00    +0.156 HD
ENDROOT
BRANCH   7  15
ATOM     15  C   UNL     1      13.278  -5.917  31.705  0.00  0.00    +0.077 A 
ATOM     16  C   UNL     1      14.147  -5.914  30.614  0.00  0.00    +0.141 A 
ATOM     17  C   UNL     1      13.574  -5.153  32.834  0.00  0.00    +0.027 A 
ATOM     18  C   UNL     1      15.312  -5.147  30.652  0.00  0.00    +0.047 A 
ATOM     19  C   UNL     1      14.738  -4.387  32.872  0.00  0.00    +0.002 A 
ATOM     20  C   UNL     1      15.608  -4.384  31.782  0.00  0.00    +0.004 A 
BRANCH  16   3
ATOM      3  O   UNL     1      13.876  -6.653  29.501  0.00  0.00    -0.493 OA
ATOM     21  C   UNL     1      14.941  -6.837  28.571  0.00  0.00    +0.277 C 
ENDBRANCH  16   3
ENDBRANCH   7  15
TORSDOF 2
ENDMDL
MODEL 2
REMARK VINA RESULT:      -0.9     15.816     17.874
REMARK  Name = 75536969
REMARK  3 active torsions:
REMARK  status: ('A' for Active; 'I' for Inactive)
REMARK    1  A    between atoms: O_3  and  C_16
REMARK    2  A    between atoms: O_3  and  C_21
REMARK    3  A    between atoms: N_7  and  C_15
REMARK                            x       y       z     vdW  Elec       q    Type
REMARK                         _______ _______ _______ _____ _____    ______ ____
ROOT
ATOM      1  O   UNL     1      -6.477   4.487  26.070  0.00  0.00    -0.253 OA
ATOM      2  O   UNL     1       0.280   3.579  24.880  0.00  0.00    -0.252 OA
ATOM      4  N   UNL     1      -4.461   3.415  25.499  0.00  0.00    -0.278 N 
ATOM      5  N   UNL     1      -1.925   3.076  24.412  0.00  0.00    -0.282 N 
ATOM      6  N   UNL     1      -6.396   2.318  25.179  0.00  0.00    -0.297 N 
ATOM      7  N   UNL     1      -0.257   1.422  24.212  0.00  0.00    -0.266 N 
ATOM      8  C   UNL     1      -4.065   2.083  25.070  0.00  0.00    +0.112 C 
ATOM      9  C   UNL     1      -3.013   2.178  23.971  0.00  0.00    +0.133 C 
ATOM     10  C   UNL     1      -5.381   1.439  24.645  0.00  0.00    +0.129 C 
ATOM     11  C   UNL     1      -3.448   4.403  25.828  0.00  0.00    +0.128 C 
ATOM     12  C   UNL     1      -2.375   4.440  24.739  0.00  0.00    +0.128 C 
ATOM     13  C   UNL     1      -5.848   3.529  25.640  0.00  0.00    +0.303 C 
ATOM     14  C   UNL     1      -0.559   2.749  24.518  0.00  0.00    +0.307 C 
ATOM     22  H   UNL     1      -7.393   2.126  25.148  0.00  0.00    +0.150 HD
ATOM     23  H   UNL     1      -0.970   0.721  24.376  0.00  0.00    +0.156 HD
ENDROOT
BRANCH   7  15
ATOM     15  C   UNL     1       0.947   0.921  23.660  0.00  0.00    +0.077 A 
ATOM     16  C   UNL     1       1.076  -0.432  23.344  0.00  0.00    +0.141 A 
ATOM     17  C   UNL     1       2.013   1.793  23.438  0.00  0.00    +0.027 A 
ATOM     18  C   UNL     1       2.269  -0.912  22.804  0.00  0.00    +0.047 A 
ATOM     19  C   UNL     1       3.206   1.312  22.898  0.00  0.00    +0.002 A 
ATOM     20  C   UNL     1       3.335  -0.040  22.581  0.00  0.00    +0.004 A 
BRANCH  16   3
ATOM      3  O   UNL     1       0.046  -1.300  23.554  0.00  0.00    -0.493 OA
ATOM     21  C   UNL     1      -0.283  -1.600  24.908  0.00  0.00    +0.277 C 
ENDBRANCH  16   3
ENDBRANCH   7  15
TORSDOF 2
ENDMDL
MODEL 3
REMARK VINA RESULT:      -0.5     15.578     17.524
REMARK  Name = 75536969
REMARK  3 active torsions:
REMARK  status: ('A' for Active; 'I' for Inactive)
REMARK    1  A    between atoms: O_3  and  C_16
REMARK    2  A    between atoms: O_3  and  C_21
REMARK    3  A    between atoms: N_7  and  C_15
REMARK                            x       y       z     vdW  Elec       q    Type
REMARK                         _______ _______ _______ _____ _____    ______ ____
ROOT
ATOM      1  O   UNL     1      -7.137   1.586  26.522  0.00  0.00    -0.253 OA
ATOM      2  O   UNL     1      -1.372  -1.393  24.118  0.00  0.00    -0.252 OA
ATOM      4  N   UNL     1      -5.056   1.353  25.448  0.00  0.00    -0.278 N 
ATOM      5  N   UNL     1      -2.471   0.447  24.979  0.00  0.00    -0.282 N 
ATOM      6  N   UNL     1      -5.901   3.417  25.731  0.00  0.00    -0.297 N 
ATOM      7  N   UNL     1      -0.719   0.723  23.426  0.00  0.00    -0.266 N 
ATOM      8  C   UNL     1      -4.132   2.231  24.748  0.00  0.00    +0.112 C 
ATOM      9  C   UNL     1      -2.696   1.898  25.138  0.00  0.00    +0.133 C 
ATOM     10  C   UNL     1      -4.598   3.629  25.144  0.00  0.00    +0.129 C 
ATOM     11  C   UNL     1      -4.833  -0.083  25.450  0.00  0.00    +0.128 C 
ATOM     12  C   UNL     1      -3.374  -0.388  25.789  0.00  0.00    +0.128 C 
ATOM     13  C   UNL     1      -6.152   2.052  25.966  0.00  0.00    +0.303 C 
ATOM     14  C   UNL     1      -1.494  -0.167  24.169  0.00  0.00    +0.307 C 
ATOM     22  H   UNL     1      -6.526   4.163  26.021  0.00  0.00    +0.150 HD
ATOM     23  H   UNL     1      -1.134   1.606  23.153  0.00  0.00    +0.156 HD
ENDROOT
BRANCH   7  15
ATOM     15  C   UNL     1       0.626   0.553  23.013  0.00  0.00    +0.077 A 
ATOM     16  C   UNL     1       1.644   1.327  23.569  0.00  0.00    +0.141 A 
ATOM     17  C   UNL     1       0.926  -0.397  22.037  0.00  0.00    +0.027 A 
ATOM     18  C   UNL     1       2.963   1.151  23.151  0.00  0.00    +0.047 A 
ATOM     19  C   UNL     1       2.245  -0.573  21.618  0.00  0.00    +0.002 A 
ATOM     20  C   UNL     1       3.263   0.201  22.174  0.00  0.00    +0.004 A 
BRANCH  16   3
ATOM      3  O   UNL     1       1.371   2.260  24.525  0.00  0.00    -0.493 OA
ATOM     21  C   UNL     1       0.310   3.173  24.254  0.00  0.00    +0.277 C 
ENDBRANCH  16   3
ENDBRANCH   7  15
TORSDOF 2
ENDMDL
MODEL 4
REMARK VINA RESULT:       0.0     15.267     18.166
REMARK  Name = 75536969
REMARK  3 active torsions:
REMARK  status: ('A' for Active; 'I' for Inactive)
REMARK    1  A    between atoms: O_3  and  C_16
REMARK    2  A    between atoms: O_3  and  C_21
REMARK    3  A    between atoms: N_7  and  C_15
REMARK                            x       y       z     vdW  Elec       q    Type
REMARK                         _______ _______ _______ _____ _____    ______ ____
ROOT
ATOM      1  O   UNL     1       3.752  -1.448  23.127  0.00  0.00    -0.253 OA
ATOM      2  O   UNL     1      -2.709  -0.601  25.458  0.00  0.00    -0.252 OA
ATOM      4  N   UNL     1       1.764  -0.369  23.777  0.00  0.00    -0.278 N 
ATOM      5  N   UNL     1      -0.963   0.061  24.099  0.00  0.00    -0.282 N 
ATOM      6  N   UNL     1       3.372   0.840  22.777  0.00  0.00    -0.297 N 
ATOM      7  N   UNL     1      -2.440   1.659  25.006  0.00  0.00    -0.266 N 
ATOM      8  C   UNL     1       1.282   1.002  23.828  0.00  0.00    +0.112 C 
ATOM      9  C   UNL     1      -0.168   1.064  23.361  0.00  0.00    +0.133 C 
ATOM     10  C   UNL     1       2.273   1.761  22.951  0.00  0.00    +0.129 C 
ATOM     11  C   UNL     1       0.977  -1.439  24.367  0.00  0.00    +0.128 C 
ATOM     12  C   UNL     1      -0.483  -1.320  23.929  0.00  0.00    +0.128 C 
ATOM     13  C   UNL     1       3.045  -0.454  23.222  0.00  0.00    +0.303 C 
ATOM     14  C   UNL     1      -2.099   0.311  24.895  0.00  0.00    +0.307 C 
ATOM     22  H   UNL     1       4.245   1.073  22.312  0.00  0.00    +0.150 HD
ATOM     23  H   UNL     1      -1.699   2.347  24.934  0.00  0.00    +0.156 HD
ENDROOT
BRANCH   7  15
ATOM     15  C   UNL     1      -3.734   2.206  25.188  0.00  0.00    +0.077 A 
ATOM     16  C   UNL     1      -3.902   3.451  25.793  0.00  0.00    +0.141 A 
ATOM     17  C   UNL     1      -4.848   1.483  24.759  0.00  0.00    +0.027 A 
ATOM     18  C   UNL     1      -5.183   3.974  25.968  0.00  0.00    +0.047 A 
ATOM     19  C   UNL     1      -6.129   2.007  24.934  0.00  0.00    +0.002 A 
ATOM     20  C   UNL     1      -6.297   3.252  25.539  0.00  0.00    +0.004 A 
BRANCH  16   3
ATOM      3  O   UNL     1      -2.827   4.173  26.219  0.00  0.00    -0.493 OA
ATOM     21  C   UNL     1      -2.026   4.795  25.217  0.00  0.00    +0.277 C 
ENDBRANCH  16   3
ENDBRANCH   7  15
TORSDOF 2
ENDMDL
MODEL 5
REMARK VINA RESULT:       0.3     15.518     18.564
REMARK  Name = 75536969
REMARK  3 active torsions:
REMARK  status: ('A' for Active; 'I' for Inactive)
REMARK    1  A    between atoms: O_3  and  C_16
REMARK    2  A    between atoms: O_3  and  C_21
REMARK    3  A    between atoms: N_7  and  C_15
REMARK                            x       y       z     vdW  Elec       q    Type
REMARK                         _______ _______ _______ _____ _____    ______ ____
ROOT
ATOM      1  O   UNL     1       4.088   0.596  22.748  0.00  0.00    -0.253 OA
ATOM      2  O   UNL     1      -1.529   3.408  25.651  0.00  0.00    -0.252 OA
ATOM      4  N   UNL     1       1.819   1.039  23.189  0.00  0.00    -0.278 N 
ATOM      5  N   UNL     1      -0.469   1.612  24.659  0.00  0.00    -0.282 N 
ATOM      6  N   UNL     1       2.340  -0.660  21.813  0.00  0.00    -0.297 N 
ATOM      7  N   UNL     1      -2.778   1.962  24.335  0.00  0.00    -0.266 N 
ATOM      8  C   UNL     1       0.540   0.561  22.690  0.00  0.00    +0.112 C 
ATOM      9  C   UNL     1      -0.437   0.378  23.846  0.00  0.00    +0.133 C 
ATOM     10  C   UNL     1       0.903  -0.721  21.947  0.00  0.00    +0.129 C 
ATOM     11  C   UNL     1       1.867   2.171  24.100  0.00  0.00    +0.128 C 
ATOM     12  C   UNL     1       0.840   1.990  25.217  0.00  0.00    +0.128 C 
ATOM     13  C   UNL     1       2.896   0.363  22.605  0.00  0.00    +0.303 C 
ATOM     14  C   UNL     1      -1.602   2.401  24.943  0.00  0.00    +0.307 C 
ATOM     22  H   UNL     1       2.894  -1.325  21.282  0.00  0.00    +0.150 HD
ATOM     23  H   UNL     1      -2.704   1.462  23.456  0.00  0.00    +0.156 HD
ENDROOT
BRANCH   7  15
ATOM     15  C   UNL     1      -4.101   2.108  24.819  0.00  0.00    +0.077 A 
ATOM     16  C   UNL     1      -4.934   0.998  24.958  0.00  0.00    +0.141 A 
ATOM     17  C   UNL     1      -4.571   3.378  25.153  0.00  0.00    +0.027 A 
ATOM     18  C   UNL     1      -6.236   1.158  25.433  0.00  0.00    +0.047 A 
ATOM     19  C   UNL     1      -5.872   3.538  25.628  0.00  0.00    +0.002 A 
ATOM     20  C   UNL     1      -6.706   2.428  25.768  0.00  0.00    +0.004 A 
BRANCH  16   3
ATOM      3  O   UNL     1      -4.495  -0.252  24.637  0.00  0.00    -0.493 OA
ATOM     21  C   UNL     1      -3.671  -0.915  25.594  0.00  0.00    +0.277 C 
ENDBRANCH  16   3
ENDBRANCH   7  15
TORSDOF 2
ENDMDL
