MODEL 1
REMARK VINA RESULT:      -5.1      0.000      0.000
REMARK  Name = 51137402
REMARK  4 active torsions:
REMARK  status: ('A' for Active; 'I' for Inactive)
REMARK    1  A    between atoms: N_3  and  C_6
REMARK    2  A    between atoms: C_7  and  C_15
REMARK    3  A    between atoms: C_16  and  C_17
REMARK    4  A    between atoms: C_17  and  C_18
REMARK                            x       y       z     vdW  Elec       q    Type
REMARK                         _______ _______ _______ _____ _____    ______ ____
ROOT
ATOM      2  O   UNL     1      -3.296   1.927  24.848  0.00  0.00    -0.424 OA
ATOM      4  N   UNL     1      -3.865   4.079  25.068  0.00  0.00    -0.112 NA
ATOM      5  N   UNL     1      -5.024   3.327  25.081  0.00  0.00    -0.112 NA
ATOM     15  C   UNL     1      -2.881   3.221  24.930  0.00  0.00    +0.222 A 
ATOM     16  C   UNL     1      -4.644   2.077  24.950  0.00  0.00    +0.222 A 
ENDROOT
BRANCH  15   7
ATOM      3  N   UNL     1       0.661   2.393  24.486  0.00  0.00    -0.298 NA
ATOM      7  C   UNL     1      -1.391   3.467  24.853  0.00  0.00    +0.092 C 
ATOM      8  C   UNL     1      -0.675   2.503  23.897  0.00  0.00    +0.097 C 
ATOM      9  C   UNL     1       0.430   2.269  25.925  0.00  0.00    +0.085 C 
ATOM     10  C   UNL     1      -0.642   3.319  26.188  0.00  0.00    +0.029 C 
BRANCH   3   6
ATOM      1  O   UNL     1       2.509  -0.099  21.659  0.00  0.00    -0.380 OA
ATOM      6  C   UNL     1       1.418   1.267  23.945  0.00  0.00    +0.061 C 
ATOM     11  C   UNL     1       2.684   1.747  23.229  0.00  0.00    +0.047 C 
ATOM     12  C   UNL     1       0.548   0.453  22.983  0.00  0.00    +0.047 C 
ATOM     13  C   UNL     1       3.390   0.573  22.558  0.00  0.00    +0.161 C 
ATOM     14  C   UNL     1       1.372  -0.648  22.325  0.00  0.00    +0.161 C 
ENDBRANCH   3   6
ENDBRANCH  15   7
BRANCH  16  17
ATOM     17  C   UNL     1      -5.454   0.853  24.904  0.00  0.00    +0.132 C 
BRANCH  17  18
ATOM     18  C   UNL     1      -4.650  -0.442  24.859  0.00  0.00    -0.038 A 
ATOM     19  C   UNL     1      -3.810  -0.779  25.921  0.00  0.00    +0.004 A 
ATOM     20  C   UNL     1      -4.753  -1.289  23.756  0.00  0.00    +0.004 A 
ATOM     21  C   UNL     1      -3.076  -1.964  25.879  0.00  0.00    +0.000 A 
ATOM     22  C   UNL     1      -4.018  -2.473  23.715  0.00  0.00    +0.000 A 
ATOM     23  C   UNL     1      -3.179  -2.811  24.777  0.00  0.00    +0.000 A 
ENDBRANCH  17  18
ENDBRANCH  16  17
TORSDOF 4
ENDMDL
MODEL 2
REMARK VINA RESULT:      -4.6     15.160     17.496
REMARK  Name = 51137402
REMARK  4 active torsions:
REMARK  status: ('A' for Active; 'I' for Inactive)
REMARK    1  A    between atoms: N_3  and  C_6
REMARK    2  A    between atoms: C_7  and  C_15
REMARK    3  A    between atoms: C_16  and  C_17
REMARK    4  A    between atoms: C_17  and  C_18
REMARK                            x       y       z     vdW  Elec       q    Type
REMARK                         _______ _______ _______ _____ _____    ______ ____
ROOT
ATOM      2  O   UNL     1      -4.655 -10.072  11.764  0.00  0.00    -0.424 OA
ATOM      4  N   UNL     1      -4.450  -8.740   9.978  0.00  0.00    -0.112 NA
ATOM      5  N   UNL     1      -3.194  -9.218  10.301  0.00  0.00    -0.112 NA
ATOM     15  C   UNL     1      -5.271  -9.264  10.858  0.00  0.00    +0.222 A 
ATOM     16  C   UNL     1      -3.362  -9.992  11.349  0.00  0.00    +0.222 A 
ENDROOT
BRANCH  15   7
ATOM      3  N   UNL     1      -8.592  -9.684  12.349  0.00  0.00    -0.298 NA
ATOM      7  C   UNL     1      -6.768  -9.098  10.997  0.00  0.00    +0.092 C 
ATOM      8  C   UNL     1      -7.239  -9.134  12.457  0.00  0.00    +0.097 C 
ATOM      9  C   UNL     1      -8.479 -10.778  11.384  0.00  0.00    +0.085 C 
ATOM     10  C   UNL     1      -7.606 -10.177  10.290  0.00  0.00    +0.029 C 
BRANCH   3   6
ATOM      1  O   UNL     1      -9.625  -9.580  16.416  0.00  0.00    -0.380 OA
ATOM      6  C   UNL     1      -9.118 -10.129  13.636  0.00  0.00    +0.061 C 
ATOM     11  C   UNL     1     -10.273  -9.236  14.100  0.00  0.00    +0.047 C 
ATOM     12  C   UNL     1      -8.008 -10.140  14.691  0.00  0.00    +0.047 C 
ATOM     13  C   UNL     1     -10.720  -9.633  15.503  0.00  0.00    +0.161 C 
ATOM     14  C   UNL     1      -8.580 -10.486  16.061  0.00  0.00    +0.161 C 
ENDBRANCH   3   6
ENDBRANCH  15   7
BRANCH  16  17
ATOM     17  C   UNL     1      -2.371 -10.762  12.111  0.00  0.00    +0.132 C 
BRANCH  17  18
ATOM     18  C   UNL     1      -2.580 -10.752  13.622  0.00  0.00    -0.038 A 
ATOM     19  C   UNL     1      -3.874 -10.756  14.147  0.00  0.00    +0.004 A 
ATOM     20  C   UNL     1      -1.480 -10.738  14.479  0.00  0.00    +0.004 A 
ATOM     21  C   UNL     1      -4.064 -10.748  15.529  0.00  0.00    +0.000 A 
ATOM     22  C   UNL     1      -1.672 -10.728  15.860  0.00  0.00    +0.000 A 
ATOM     23  C   UNL     1      -2.964 -10.734  16.385  0.00  0.00    +0.000 A 
ENDBRANCH  17  18
ENDBRANCH  16  17
TORSDOF 4
ENDMDL
MODEL 3
REMARK VINA RESULT:      -3.1      2.555      4.164
REMARK  Name = 51137402
REMARK  4 active torsions:
REMARK  status: ('A' for Active; 'I' for Inactive)
REMARK    1  A    between atoms: N_3  and  C_6
REMARK    2  A    between atoms: C_7  and  C_15
REMARK    3  A    between atoms: C_16  and  C_17
REMARK    4  A    between atoms: C_17  and  C_18
REMARK                            x       y       z     vdW  Elec       q    Type
REMARK                         _______ _______ _______ _____ _____    ______ ____
ROOT
ATOM      2  O   UNL     1      -2.338   0.208  24.085  0.00  0.00    -0.424 OA
ATOM      4  N   UNL     1      -0.998  -1.461  24.736  0.00  0.00    -0.112 NA
ATOM      5  N   UNL     1      -2.217  -1.621  25.367  0.00  0.00    -0.112 NA
ATOM     15  C   UNL     1      -1.114  -0.381  23.998  0.00  0.00    +0.222 A 
ATOM     16  C   UNL     1      -2.968  -0.625  24.957  0.00  0.00    +0.222 A 
ENDROOT
BRANCH  15   7
ATOM      3  N   UNL     1       2.197   0.423  22.649  0.00  0.00    -0.298 NA
ATOM      7  C   UNL     1      -0.102   0.278  23.089  0.00  0.00    +0.092 C 
ATOM      8  C   UNL     1       1.152  -0.579  22.868  0.00  0.00    +0.097 C 
ATOM      9  C   UNL     1       1.946   1.457  23.653  0.00  0.00    +0.085 C 
ATOM     10  C   UNL     1       0.434   1.630  23.592  0.00  0.00    +0.029 C 
BRANCH   3   6
ATOM      1  O   UNL     1       5.828  -0.776  24.381  0.00  0.00    -0.380 OA
ATOM      6  C   UNL     1       3.541  -0.140  22.753  0.00  0.00    +0.061 C 
ATOM     11  C   UNL     1       3.564  -1.341  23.703  0.00  0.00    +0.047 C 
ATOM     12  C   UNL     1       4.529   0.927  23.232  0.00  0.00    +0.047 C 
ATOM     13  C   UNL     1       4.994  -1.831  23.904  0.00  0.00    +0.161 C 
ATOM     14  C   UNL     1       5.906   0.311  23.459  0.00  0.00    +0.161 C 
ENDBRANCH   3   6
ENDBRANCH  15   7
BRANCH  16  17
ATOM     17  C   UNL     1      -4.357  -0.299  25.301  0.00  0.00    +0.132 C 
BRANCH  17  18
ATOM     18  C   UNL     1      -4.672   1.193  25.337  0.00  0.00    -0.038 A 
ATOM     19  C   UNL     1      -5.945   1.628  25.708  0.00  0.00    +0.004 A 
ATOM     20  C   UNL     1      -3.689   2.122  24.997  0.00  0.00    +0.004 A 
ATOM     21  C   UNL     1      -6.233   2.993  25.740  0.00  0.00    +0.000 A 
ATOM     22  C   UNL     1      -3.978   3.486  25.030  0.00  0.00    +0.000 A 
ATOM     23  C   UNL     1      -5.250   3.922  25.401  0.00  0.00    +0.000 A 
ENDBRANCH  17  18
ENDBRANCH  16  17
TORSDOF 4
ENDMDL
MODEL 4
REMARK VINA RESULT:      -3.1      2.037      5.508
REMARK  Name = 51137402
REMARK  4 active torsions:
REMARK  status: ('A' for Active; 'I' for Inactive)
REMARK    1  A    between atoms: N_3  and  C_6
REMARK    2  A    between atoms: C_7  and  C_15
REMARK    3  A    between atoms: C_16  and  C_17
REMARK    4  A    between atoms: C_17  and  C_18
REMARK                            x       y       z     vdW  Elec       q    Type
REMARK                         _______ _______ _______ _____ _____    ______ ____
ROOT
ATOM      2  O   UNL     1      -0.432   0.778  24.796  0.00  0.00    -0.424 OA
ATOM      4  N   UNL     1       1.321   1.865  23.930  0.00  0.00    -0.112 NA
ATOM      5  N   UNL     1       1.385   0.549  23.512  0.00  0.00    -0.112 NA
ATOM     15  C   UNL     1       0.245   1.953  24.677  0.00  0.00    +0.222 A 
ATOM     16  C   UNL     1       0.341  -0.048  24.041  0.00  0.00    +0.222 A 
ENDROOT
BRANCH  15   7
ATOM      3  N   UNL     1      -2.351   4.169  26.009  0.00  0.00    -0.298 NA
ATOM      7  C   UNL     1      -0.329   3.148  25.403  0.00  0.00    +0.092 C 
ATOM      8  C   UNL     1      -1.695   2.860  26.041  0.00  0.00    +0.097 C 
ATOM      9  C   UNL     1      -2.042   4.714  24.687  0.00  0.00    +0.085 C 
ATOM     10  C   UNL     1      -0.564   4.388  24.522  0.00  0.00    +0.029 C 
BRANCH   3   6
ATOM      1  O   UNL     1      -6.420   3.455  25.267  0.00  0.00    -0.380 OA
ATOM      6  C   UNL     1      -3.789   4.078  26.252  0.00  0.00    +0.061 C 
ATOM     11  C   UNL     1      -4.286   2.639  26.091  0.00  0.00    +0.047 C 
ATOM     12  C   UNL     1      -4.549   5.005  25.299  0.00  0.00    +0.047 C 
ATOM     13  C   UNL     1      -5.804   2.586  26.215  0.00  0.00    +0.161 C 
ATOM     14  C   UNL     1      -6.053   4.821  25.466  0.00  0.00    +0.161 C 
ENDBRANCH   3   6
ENDBRANCH  15   7
BRANCH  16  17
ATOM     17  C   UNL     1      -0.093  -1.446  23.928  0.00  0.00    +0.132 C 
BRANCH  17  18
ATOM     18  C   UNL     1      -1.597  -1.660  24.064  0.00  0.00    -0.038 A 
ATOM     19  C   UNL     1      -2.096  -2.926  24.372  0.00  0.00    +0.004 A 
ATOM     20  C   UNL     1      -2.473  -0.590  23.880  0.00  0.00    +0.004 A 
ATOM     21  C   UNL     1      -3.471  -3.121  24.496  0.00  0.00    +0.000 A 
ATOM     22  C   UNL     1      -3.848  -0.787  24.003  0.00  0.00    +0.000 A 
ATOM     23  C   UNL     1      -4.348  -2.052  24.312  0.00  0.00    +0.000 A 
ENDBRANCH  17  18
ENDBRANCH  16  17
TORSDOF 4
ENDMDL
MODEL 5
REMARK VINA RESULT:      -2.4     15.126     17.754
REMARK  Name = 51137402
REMARK  4 active torsions:
REMARK  status: ('A' for Active; 'I' for Inactive)
REMARK    1  A    between atoms: N_3  and  C_6
REMARK    2  A    between atoms: C_7  and  C_15
REMARK    3  A    between atoms: C_16  and  C_17
REMARK    4  A    between atoms: C_17  and  C_18
REMARK                            x       y       z     vdW  Elec       q    Type
REMARK                         _______ _______ _______ _____ _____    ______ ____
ROOT
ATOM      2  O   UNL     1      -4.057  -9.425  11.655  0.00  0.00    -0.424 OA
ATOM      4  N   UNL     1      -4.239  -9.116   9.447  0.00  0.00    -0.112 NA
ATOM      5  N   UNL     1      -2.931  -9.466   9.723  0.00  0.00    -0.112 NA
ATOM     15  C   UNL     1      -4.860  -9.104  10.603  0.00  0.00    +0.222 A 
ATOM     16  C   UNL     1      -2.871  -9.637  11.023  0.00  0.00    +0.222 A 
ENDROOT
BRANCH  15   7
ATOM      3  N   UNL     1      -8.088  -9.414  12.310  0.00  0.00    -0.298 NA
ATOM      7  C   UNL     1      -6.305  -8.793  10.919  0.00  0.00    +0.092 C 
ATOM      8  C   UNL     1      -6.668  -9.061  12.386  0.00  0.00    +0.097 C 
ATOM      9  C   UNL     1      -8.195 -10.301  11.152  0.00  0.00    +0.085 C 
ATOM     10  C   UNL     1      -7.333  -9.604  10.109  0.00  0.00    +0.029 C 
BRANCH   3   6
ATOM      1  O   UNL     1      -8.942  -9.915  16.390  0.00  0.00    -0.380 OA
ATOM      6  C   UNL     1      -8.573 -10.040  13.538  0.00  0.00    +0.061 C 
ATOM     11  C   UNL     1      -9.677  -9.200  14.187  0.00  0.00    +0.047 C 
ATOM     12  C   UNL     1      -7.419 -10.242  14.525  0.00  0.00    +0.047 C 
ATOM     13  C   UNL     1     -10.076  -9.798  15.531  0.00  0.00    +0.161 C 
ATOM     14  C   UNL     1      -7.943 -10.781  15.851  0.00  0.00    +0.161 C 
ENDBRANCH   3   6
ENDBRANCH  15   7
BRANCH  16  17
ATOM     17  C   UNL     1      -1.729 -10.018  11.864  0.00  0.00    +0.132 C 
BRANCH  17  18
ATOM     18  C   UNL     1      -0.558  -9.042  11.830  0.00  0.00    -0.038 A 
ATOM     19  C   UNL     1      -0.437  -8.063  12.818  0.00  0.00    +0.004 A 
ATOM     20  C   UNL     1       0.391  -9.126  10.812  0.00  0.00    +0.004 A 
ATOM     21  C   UNL     1       0.635  -7.171  12.787  0.00  0.00    +0.000 A 
ATOM     22  C   UNL     1       1.462  -8.232  10.781  0.00  0.00    +0.000 A 
ATOM     23  C   UNL     1       1.584  -7.255  11.769  0.00  0.00    +0.000 A 
ENDBRANCH  17  18
ENDBRANCH  16  17
TORSDOF 4
ENDMDL
MODEL 6
REMARK VINA RESULT:      -2.2      2.262      7.442
REMARK  Name = 51137402
REMARK  4 active torsions:
REMARK  status: ('A' for Active; 'I' for Inactive)
REMARK    1  A    between atoms: N_3  and  C_6
REMARK    2  A    between atoms: C_7  and  C_15
REMARK    3  A    between atoms: C_16  and  C_17
REMARK    4  A    between atoms: C_17  and  C_18
REMARK                            x       y       z     vdW  Elec       q    Type
REMARK                         _______ _______ _______ _____ _____    ______ ____
ROOT
ATOM      2  O   UNL     1       0.221  -0.208  22.702  0.00  0.00    -0.424 OA
ATOM      4  N   UNL     1      -0.052   1.270  24.359  0.00  0.00    -0.112 NA
ATOM      5  N   UNL     1       1.259   1.348  23.928  0.00  0.00    -0.112 NA
ATOM     15  C   UNL     1      -0.620   0.349  23.615  0.00  0.00    +0.222 A 
ATOM     16  C   UNL     1       1.373   0.468  22.960  0.00  0.00    +0.222 A 
ENDROOT
BRANCH  15   7
ATOM      3  N   UNL     1      -4.212   0.378  24.340  0.00  0.00    -0.298 NA
ATOM      7  C   UNL     1      -2.043  -0.163  23.634  0.00  0.00    +0.092 C 
ATOM      8  C   UNL     1      -3.084   0.965  23.614  0.00  0.00    +0.097 C 
ATOM      9  C   UNL     1      -3.609  -0.307  25.484  0.00  0.00    +0.085 C 
ATOM     10  C   UNL     1      -2.409  -1.010  24.865  0.00  0.00    +0.029 C 
BRANCH   3   6
ATOM      1  O   UNL     1      -6.010   3.424  26.602  0.00  0.00    -0.380 OA
ATOM      6  C   UNL     1      -5.195   1.380  24.746  0.00  0.00    +0.061 C 
ATOM     11  C   UNL     1      -4.586   2.785  24.739  0.00  0.00    +0.047 C 
ATOM     12  C   UNL     1      -5.744   1.053  26.138  0.00  0.00    +0.047 C 
ATOM     13  C   UNL     1      -5.584   3.797  25.293  0.00  0.00    +0.161 C 
ATOM     14  C   UNL     1      -6.677   2.161  26.614  0.00  0.00    +0.161 C 
ENDBRANCH   3   6
ENDBRANCH  15   7
BRANCH  16  17
ATOM     17  C   UNL     1       2.542   0.127  22.140  0.00  0.00    +0.132 C 
BRANCH  17  18
ATOM     18  C   UNL     1       3.818  -0.146  22.930  0.00  0.00    -0.038 A 
ATOM     19  C   UNL     1       4.777   0.857  23.073  0.00  0.00    +0.004 A 
ATOM     20  C   UNL     1       4.026  -1.398  23.508  0.00  0.00    +0.004 A 
ATOM     21  C   UNL     1       5.944   0.606  23.796  0.00  0.00    +0.000 A 
ATOM     22  C   UNL     1       5.193  -1.648  24.230  0.00  0.00    +0.000 A 
ATOM     23  C   UNL     1       6.152  -0.646  24.374  0.00  0.00    +0.000 A 
ENDBRANCH  17  18
ENDBRANCH  16  17
TORSDOF 4
ENDMDL
MODEL 7
REMARK VINA RESULT:      -2.2      2.619      7.222
REMARK  Name = 51137402
REMARK  4 active torsions:
REMARK  status: ('A' for Active; 'I' for Inactive)
REMARK    1  A    between atoms: N_3  and  C_6
REMARK    2  A    between atoms: C_7  and  C_15
REMARK    3  A    between atoms: C_16  and  C_17
REMARK    4  A    between atoms: C_17  and  C_18
REMARK                            x       y       z     vdW  Elec       q    Type
REMARK                         _______ _______ _______ _____ _____    ______ ____
ROOT
ATOM      2  O   UNL     1       1.072   1.343  23.664  0.00  0.00    -0.424 OA
ATOM      4  N   UNL     1      -0.649  -0.020  24.095  0.00  0.00    -0.112 NA
ATOM      5  N   UNL     1       0.195  -0.664  23.209  0.00  0.00    -0.112 NA
ATOM     15  C   UNL     1      -0.098   1.148  24.332  0.00  0.00    +0.222 A 
ATOM     16  C   UNL     1       1.185   0.169  22.986  0.00  0.00    +0.222 A 
ENDROOT
BRANCH  15   7
ATOM      3  N   UNL     1      -2.498   3.392  25.954  0.00  0.00    -0.298 NA
ATOM      7  C   UNL     1      -0.571   2.274  25.224  0.00  0.00    +0.092 C 
ATOM      8  C   UNL     1      -1.975   2.034  25.796  0.00  0.00    +0.097 C 
ATOM      9  C   UNL     1      -2.103   4.094  24.732  0.00  0.00    +0.085 C 
ATOM     10  C   UNL     1      -0.660   3.648  24.537  0.00  0.00    +0.029 C 
BRANCH   3   6
ATOM      1  O   UNL     1      -6.597   3.163  25.075  0.00  0.00    -0.380 OA
ATOM      6  C   UNL     1      -3.944   3.412  26.164  0.00  0.00    +0.061 C 
ATOM     11  C   UNL     1      -4.569   2.055  25.827  0.00  0.00    +0.047 C 
ATOM     12  C   UNL     1      -4.590   4.512  25.316  0.00  0.00    +0.047 C 
ATOM     13  C   UNL     1      -6.089   2.133  25.923  0.00  0.00    +0.161 C 
ATOM     14  C   UNL     1      -6.109   4.454  25.440  0.00  0.00    +0.161 C 
ENDBRANCH   3   6
ENDBRANCH  15   7
BRANCH  16  17
ATOM     17  C   UNL     1       2.367   0.008  22.130  0.00  0.00    +0.132 C 
BRANCH  17  18
ATOM     18  C   UNL     1       3.679  -0.182  22.884  0.00  0.00    -0.038 A 
ATOM     19  C   UNL     1       4.612   0.855  22.932  0.00  0.00    +0.004 A 
ATOM     20  C   UNL     1       3.947  -1.391  23.525  0.00  0.00    +0.004 A 
ATOM     21  C   UNL     1       5.812   0.680  23.621  0.00  0.00    +0.000 A 
ATOM     22  C   UNL     1       5.148  -1.565  24.213  0.00  0.00    +0.000 A 
ATOM     23  C   UNL     1       6.080  -0.529  24.262  0.00  0.00    +0.000 A 
ENDBRANCH  17  18
ENDBRANCH  16  17
TORSDOF 4
ENDMDL
MODEL 8
REMARK VINA RESULT:      -1.5      2.422      5.849
REMARK  Name = 51137402
REMARK  4 active torsions:
REMARK  status: ('A' for Active; 'I' for Inactive)
REMARK    1  A    between atoms: N_3  and  C_6
REMARK    2  A    between atoms: C_7  and  C_15
REMARK    3  A    between atoms: C_16  and  C_17
REMARK    4  A    between atoms: C_17  and  C_18
REMARK                            x       y       z     vdW  Elec       q    Type
REMARK                         _______ _______ _______ _____ _____    ______ ____
ROOT
ATOM      2  O   UNL     1      -2.878  -0.589  24.368  0.00  0.00    -0.424 OA
ATOM      4  N   UNL     1      -4.589  -2.026  24.266  0.00  0.00    -0.112 NA
ATOM      5  N   UNL     1      -3.419  -2.759  24.330  0.00  0.00    -0.112 NA
ATOM     15  C   UNL     1      -4.226  -0.765  24.290  0.00  0.00    +0.222 A 
ATOM     16  C   UNL     1      -2.446  -1.879  24.389  0.00  0.00    +0.222 A 
ENDROOT
BRANCH  15   7
ATOM      3  N   UNL     1      -5.045   2.780  24.721  0.00  0.00    -0.298 NA
ATOM      7  C   UNL     1      -5.076   0.484  24.247  0.00  0.00    +0.092 C 
ATOM      8  C   UNL     1      -4.252   1.761  24.031  0.00  0.00    +0.097 C 
ATOM      9  C   UNL     1      -5.466   2.149  25.972  0.00  0.00    +0.085 C 
ATOM     10  C   UNL     1      -5.890   0.757  25.524  0.00  0.00    +0.029 C 
BRANCH   3   6
ATOM      1  O   UNL     1      -1.754   5.337  25.229  0.00  0.00    -0.380 OA
ATOM      6  C   UNL     1      -4.295   4.014  24.945  0.00  0.00    +0.061 C 
ATOM     11  C   UNL     1      -3.400   4.341  23.745  0.00  0.00    +0.047 C 
ATOM     12  C   UNL     1      -3.447   3.898  26.215  0.00  0.00    +0.047 C 
ATOM     13  C   UNL     1      -2.528   5.554  24.050  0.00  0.00    +0.161 C 
ATOM     14  C   UNL     1      -2.571   5.135  26.383  0.00  0.00    +0.161 C 
ENDBRANCH   3   6
ENDBRANCH  15   7
BRANCH  16  17
ATOM     17  C   UNL     1      -0.997  -2.093  24.474  0.00  0.00    +0.132 C 
BRANCH  17  18
ATOM     18  C   UNL     1      -0.151  -0.857  24.184  0.00  0.00    -0.038 A 
ATOM     19  C   UNL     1       0.848  -0.909  23.212  0.00  0.00    +0.004 A 
ATOM     20  C   UNL     1      -0.376   0.324  24.890  0.00  0.00    +0.004 A 
ATOM     21  C   UNL     1       1.621   0.222  22.946  0.00  0.00    +0.000 A 
ATOM     22  C   UNL     1       0.397   1.453  24.625  0.00  0.00    +0.000 A 
ATOM     23  C   UNL     1       1.396   1.403  23.653  0.00  0.00    +0.000 A 
ENDBRANCH  17  18
ENDBRANCH  16  17
TORSDOF 4
ENDMDL
MODEL 9
REMARK VINA RESULT:      -1.1      2.512      4.459
REMARK  Name = 51137402
REMARK  4 active torsions:
REMARK  status: ('A' for Active; 'I' for Inactive)
REMARK    1  A    between atoms: N_3  and  C_6
REMARK    2  A    between atoms: C_7  and  C_15
REMARK    3  A    between atoms: C_16  and  C_17
REMARK    4  A    between atoms: C_17  and  C_18
REMARK                            x       y       z     vdW  Elec       q    Type
REMARK                         _______ _______ _______ _____ _____    ______ ____
ROOT
ATOM      2  O   UNL     1      -2.230   3.299  24.873  0.00  0.00    -0.424 OA
ATOM      4  N   UNL     1      -0.395   4.561  24.660  0.00  0.00    -0.112 NA
ATOM      5  N   UNL     1      -1.414   5.364  25.137  0.00  0.00    -0.112 NA
ATOM     15  C   UNL     1      -0.916   3.364  24.521  0.00  0.00    +0.222 A 
ATOM     16  C   UNL     1      -2.465   4.586  25.246  0.00  0.00    +0.222 A 
ENDROOT
BRANCH  15   7
ATOM      3  N   UNL     1      -0.666  -0.212  23.763  0.00  0.00    -0.298 NA
ATOM      7  C   UNL     1      -0.275   2.084  24.037  0.00  0.00    +0.092 C 
ATOM      8  C   UNL     1      -1.292   1.081  23.476  0.00  0.00    +0.097 C 
ATOM      9  C   UNL     1      -0.143  -0.085  25.123  0.00  0.00    +0.085 C 
ATOM     10  C   UNL     1       0.493   1.298  25.114  0.00  0.00    +0.029 C 
BRANCH   3   6
ATOM      1  O   UNL     1      -3.697  -2.938  24.765  0.00  0.00    -0.380 OA
ATOM      6  C   UNL     1      -1.601  -1.327  23.627  0.00  0.00    +0.061 C 
ATOM     11  C   UNL     1      -3.052  -0.844  23.715  0.00  0.00    +0.047 C 
ATOM     12  C   UNL     1      -1.333  -2.380  24.706  0.00  0.00    +0.047 C 
ATOM     13  C   UNL     1      -4.007  -2.032  23.706  0.00  0.00    +0.161 C 
ATOM     14  C   UNL     1      -2.384  -3.483  24.643  0.00  0.00    +0.161 C 
ENDBRANCH   3   6
ENDBRANCH  15   7
BRANCH  16  17
ATOM     17  C   UNL     1      -3.822   4.906  25.707  0.00  0.00    +0.132 C 
BRANCH  17  18
ATOM     18  C   UNL     1      -4.805   3.741  25.656  0.00  0.00    -0.038 A 
ATOM     19  C   UNL     1      -5.536   3.396  26.793  0.00  0.00    +0.004 A 
ATOM     20  C   UNL     1      -4.972   3.020  24.474  0.00  0.00    +0.004 A 
ATOM     21  C   UNL     1      -6.435   2.330  26.746  0.00  0.00    +0.000 A 
ATOM     22  C   UNL     1      -5.870   1.954  24.429  0.00  0.00    +0.000 A 
ATOM     23  C   UNL     1      -6.602   1.609  25.565  0.00  0.00    +0.000 A 
ENDBRANCH  17  18
ENDBRANCH  16  17
TORSDOF 4
ENDMDL
