MODEL 1
REMARK VINA RESULT:      -3.6      0.000      0.000
REMARK  Name = 75368488
REMARK  4 active torsions:
REMARK  status: ('A' for Active; 'I' for Inactive)
REMARK    1  A    between atoms: O_4  and  C_25
REMARK    2  A    between atoms: O_4  and  C_26
REMARK    3  A    between atoms: N_5  and  C_10
REMARK    4  A    between atoms: C_19  and  C_20
REMARK                            x       y       z     vdW  Elec       q    Type
REMARK                         _______ _______ _______ _____ _____    ______ ____
ROOT
ATOM      2  O   UNL     1     -10.718  -9.931  13.472  0.00  0.00    -0.252 OA
ATOM      3  O   UNL     1      -5.682  -9.982   8.631  0.00  0.00    -0.270 OA
ATOM      5  N   UNL     1      -8.746 -10.038  14.761  0.00  0.00    -0.280 N 
ATOM      6  N   UNL     1      -8.567  -9.836  12.530  0.00  0.00    -0.278 N 
ATOM      7  N   UNL     1      -6.508 -10.445  10.766  0.00  0.00    -0.294 N 
ATOM      8  C   UNL     1      -7.201  -9.753  13.016  0.00  0.00    +0.112 C 
ATOM      9  C   UNL     1      -7.319 -10.105  14.496  0.00  0.00    +0.133 C 
ATOM     11  C   UNL     1      -6.298 -10.680  12.208  0.00  0.00    +0.132 C 
ATOM     12  C   UNL     1      -8.839  -9.711  11.107  0.00  0.00    +0.128 C 
ATOM     13  C   UNL     1      -9.498  -9.930  13.574  0.00  0.00    +0.305 C 
ATOM     14  C   UNL     1      -7.896 -10.615  10.315  0.00  0.00    +0.127 C 
ATOM     19  C   UNL     1      -5.512 -10.134   9.840  0.00  0.00    +0.247 C 
ENDROOT
BRANCH   5  10
ATOM      1  O   UNL     1      -9.247  -9.486  18.875  0.00  0.00    -0.380 OA
ATOM     10  C   UNL     1      -9.285 -10.203  16.088  0.00  0.00    +0.082 C 
ATOM     15  C   UNL     1      -8.220 -10.724  17.054  0.00  0.00    +0.050 C 
ATOM     16  C   UNL     1      -9.875  -8.891  16.605  0.00  0.00    +0.050 C 
ATOM     17  C   UNL     1      -8.763 -10.769  18.477  0.00  0.00    +0.161 C 
ATOM     18  C   UNL     1     -10.324  -9.037  18.053  0.00  0.00    +0.161 C 
ENDBRANCH   5  10
BRANCH  19  20
ATOM     20  C   UNL     1      -4.139  -9.959  10.331  0.00  0.00    +0.037 A 
ATOM     21  C   UNL     1      -3.656 -10.772  11.357  0.00  0.00    +0.016 A 
ATOM     22  C   UNL     1      -3.319  -8.979   9.775  0.00  0.00    +0.016 A 
ATOM     23  C   UNL     1      -2.353 -10.604  11.825  0.00  0.00    +0.046 A 
ATOM     24  C   UNL     1      -2.016  -8.810  10.243  0.00  0.00    +0.046 A 
ATOM     25  C   UNL     1      -1.533  -9.623  11.268  0.00  0.00    +0.120 A 
BRANCH  25   4
ATOM      4  O   UNL     1      -0.261  -9.460  11.726  0.00  0.00    -0.495 OA
ATOM     26  C   UNL     1       0.571  -8.545  11.015  0.00  0.00    +0.277 C 
ENDBRANCH  25   4
ENDBRANCH  19  20
TORSDOF 3
ENDMDL
MODEL 2
REMARK VINA RESULT:      -3.4     24.853     27.396
REMARK  Name = 75368488
REMARK  4 active torsions:
REMARK  status: ('A' for Active; 'I' for Inactive)
REMARK    1  A    between atoms: O_4  and  C_25
REMARK    2  A    between atoms: O_4  and  C_26
REMARK    3  A    between atoms: N_5  and  C_10
REMARK    4  A    between atoms: C_19  and  C_20
REMARK                            x       y       z     vdW  Elec       q    Type
REMARK                         _______ _______ _______ _____ _____    ______ ____
ROOT
ATOM      2  O   UNL     1      10.606 -10.781  31.501  0.00  0.00    -0.252 OA
ATOM      3  O   UNL     1      16.986  -7.936  31.496  0.00  0.00    -0.270 OA
ATOM      5  N   UNL     1      10.184  -8.535  32.079  0.00  0.00    -0.280 N 
ATOM      6  N   UNL     1      12.285  -9.139  31.559  0.00  0.00    -0.278 N 
ATOM      7  N   UNL     1      14.749  -8.007  32.166  0.00  0.00    -0.294 N 
ATOM      8  C   UNL     1      12.353  -7.699  31.743  0.00  0.00    +0.112 C 
ATOM      9  C   UNL     1      10.979  -7.339  32.301  0.00  0.00    +0.133 C 
ATOM     11  C   UNL     1      13.525  -7.339  32.649  0.00  0.00    +0.132 C 
ATOM     12  C   UNL     1      13.478  -9.876  31.179  0.00  0.00    +0.128 C 
ATOM     13  C   UNL     1      10.978  -9.630  31.685  0.00  0.00    +0.305 C 
ATOM     14  C   UNL     1      14.650  -9.470  32.070  0.00  0.00    +0.127 C 
ATOM     19  C   UNL     1      15.953  -7.373  31.857  0.00  0.00    +0.247 C 
ENDROOT
BRANCH   5  10
ATOM      1  O   UNL     1       6.088  -7.774  31.717  0.00  0.00    -0.380 OA
ATOM     10  C   UNL     1       8.773  -8.579  32.372  0.00  0.00    +0.082 C 
ATOM     15  C   UNL     1       8.233  -7.185  32.695  0.00  0.00    +0.050 C 
ATOM     16  C   UNL     1       7.993  -9.195  31.211  0.00  0.00    +0.050 C 
ATOM     17  C   UNL     1       6.720  -7.224  32.873  0.00  0.00    +0.161 C 
ATOM     18  C   UNL     1       6.494  -9.120  31.470  0.00  0.00    +0.161 C 
ENDBRANCH   5  10
BRANCH  19  20
ATOM     20  C   UNL     1      16.010  -5.909  31.952  0.00  0.00    +0.037 A 
ATOM     21  C   UNL     1      15.005  -5.133  31.373  0.00  0.00    +0.016 A 
ATOM     22  C   UNL     1      17.067  -5.293  32.619  0.00  0.00    +0.016 A 
ATOM     23  C   UNL     1      15.060  -3.743  31.461  0.00  0.00    +0.046 A 
ATOM     24  C   UNL     1      17.122  -3.902  32.707  0.00  0.00    +0.046 A 
ATOM     25  C   UNL     1      16.118  -3.127  32.129  0.00  0.00    +0.120 A 
BRANCH  25   4
ATOM      4  O   UNL     1      16.170  -1.769  32.214  0.00  0.00    -0.495 OA
ATOM     26  C   UNL     1      17.136  -1.105  31.401  0.00  0.00    +0.277 C 
ENDBRANCH  25   4
ENDBRANCH  19  20
TORSDOF 3
ENDMDL
MODEL 3
REMARK VINA RESULT:      -1.6     24.301     26.847
REMARK  Name = 75368488
REMARK  4 active torsions:
REMARK  status: ('A' for Active; 'I' for Inactive)
REMARK    1  A    between atoms: O_4  and  C_25
REMARK    2  A    between atoms: O_4  and  C_26
REMARK    3  A    between atoms: N_5  and  C_10
REMARK    4  A    between atoms: C_19  and  C_20
REMARK                            x       y       z     vdW  Elec       q    Type
REMARK                         _______ _______ _______ _____ _____    ______ ____
ROOT
ATOM      2  O   UNL     1      10.123 -10.777  31.740  0.00  0.00    -0.252 OA
ATOM      3  O   UNL     1      16.729  -9.174  30.129  0.00  0.00    -0.270 OA
ATOM      5  N   UNL     1      10.189  -8.440  32.046  0.00  0.00    -0.280 N 
ATOM      6  N   UNL     1      12.015  -9.476  31.241  0.00  0.00    -0.278 N 
ATOM      7  N   UNL     1      14.698  -8.755  31.206  0.00  0.00    -0.294 N 
ATOM      8  C   UNL     1      12.345  -8.062  31.193  0.00  0.00    +0.112 C 
ATOM      9  C   UNL     1      11.192  -7.394  31.937  0.00  0.00    +0.133 C 
ATOM     11  C   UNL     1      13.722  -7.822  31.803  0.00  0.00    +0.132 C 
ATOM     12  C   UNL     1      12.971 -10.459  30.760  0.00  0.00    +0.128 C 
ATOM     13  C   UNL     1      10.702  -9.701  31.679  0.00  0.00    +0.305 C 
ATOM     14  C   UNL     1      14.352 -10.176  31.348  0.00  0.00    +0.127 C 
ATOM     19  C   UNL     1      15.896  -8.393  30.588  0.00  0.00    +0.247 C 
ENDROOT
BRANCH   5  10
ATOM      1  O   UNL     1       6.137  -7.424  32.198  0.00  0.00    -0.380 OA
ATOM     10  C   UNL     1       8.882  -8.190  32.599  0.00  0.00    +0.082 C 
ATOM     15  C   UNL     1       8.460  -6.737  32.382  0.00  0.00    +0.050 C 
ATOM     16  C   UNL     1       7.845  -9.140  31.998  0.00  0.00    +0.050 C 
ATOM     17  C   UNL     1       7.027  -6.518  32.852  0.00  0.00    +0.161 C 
ATOM     18  C   UNL     1       6.446  -8.787  32.487  0.00  0.00    +0.161 C 
ENDBRANCH   5  10
BRANCH  19  20
ATOM     20  C   UNL     1      16.200  -6.963  30.452  0.00  0.00    +0.037 A 
ATOM     21  C   UNL     1      16.021  -6.105  31.538  0.00  0.00    +0.016 A 
ATOM     22  C   UNL     1      16.667  -6.461  29.238  0.00  0.00    +0.016 A 
ATOM     23  C   UNL     1      16.308  -4.747  31.408  0.00  0.00    +0.046 A 
ATOM     24  C   UNL     1      16.954  -5.102  29.108  0.00  0.00    +0.046 A 
ATOM     25  C   UNL     1      16.775  -4.246  30.193  0.00  0.00    +0.120 A 
BRANCH  25   4
ATOM      4  O   UNL     1      17.055  -2.919  30.068  0.00  0.00    -0.495 OA
ATOM     26  C   UNL     1      16.913  -2.113  31.236  0.00  0.00    +0.277 C 
ENDBRANCH  25   4
ENDBRANCH  19  20
TORSDOF 3
ENDMDL
