MODEL 1
REMARK VINA RESULT:      11.7      0.000      0.000
REMARK  Name = 40777675
REMARK  11 active torsions:
REMARK  status: ('A' for Active; 'I' for Inactive)
REMARK    1  A    between atoms: O_5  and  C_20
REMARK    2  A    between atoms: N_7  and  C_18
REMARK    3  A    between atoms: N_8  and  C_29
REMARK    4  A    between atoms: C_10  and  C_15
REMARK    5  A    between atoms: C_10  and  C_16
REMARK    6  A    between atoms: C_15  and  C_17
REMARK    7  A    between atoms: C_16  and  C_20
REMARK    8  A    between atoms: C_21  and  C_24
REMARK    9  A    between atoms: C_25  and  C_27
REMARK   10  A    between atoms: C_26  and  C_28
REMARK   11  A    between atoms: C_34  and  C_35
REMARK                            x       y       z     vdW  Elec       q    Type
REMARK                         _______ _______ _______ _____ _____    ______ ____
ROOT
ATOM     18  C   UNL     1      -3.352   0.218  23.118  0.00  0.00    +0.097 C 
ATOM     19  C   UNL     1      -1.840   0.452  23.043  0.00  0.00    +0.039 C 
ATOM     21  C   UNL     1      -1.279   0.042  24.421  0.00  0.00    +0.047 C 
ATOM     22  C   UNL     1      -3.488  -0.745  24.250  0.00  0.00    -0.009 C 
ATOM     23  C   UNL     1      -2.360  -0.849  24.959  0.00  0.00    -0.021 C 
ENDROOT
BRANCH  21  24
ATOM      8  N   UNL     1       2.221  -0.985  24.079  0.00  0.00    -0.236 N 
ATOM      9  N   UNL     1       1.732  -2.183  24.443  0.00  0.00    -0.171 NA
ATOM     24  C   UNL     1       0.088  -0.600  24.344  0.00  0.00    +0.003 A 
ATOM     25  C   UNL     1       1.277  -0.003  24.005  0.00  0.00    +0.046 A 
ATOM     26  C   UNL     1       0.428  -1.941  24.603  0.00  0.00    +0.064 A 
ATOM     27  C   UNL     1       1.585   1.391  23.627  0.00  0.00    +0.066 C 
ATOM     28  C   UNL     1      -0.467  -3.038  25.012  0.00  0.00    +0.068 C 
BRANCH   8  29
ATOM     29  C   UNL     1       3.585  -0.845  23.819  0.00  0.00    +0.066 A 
ATOM     30  C   UNL     1       4.464  -1.885  24.122  0.00  0.00    +0.028 A 
ATOM     31  C   UNL     1       4.069   0.338  23.261  0.00  0.00    +0.028 A 
ATOM     32  C   UNL     1       5.828  -1.742  23.866  0.00  0.00    +0.014 A 
ATOM     33  C   UNL     1       5.433   0.481  23.005  0.00  0.00    +0.014 A 
ATOM     34  C   UNL     1       6.313  -0.560  23.307  0.00  0.00    +0.055 A 
BRANCH  34  35
ATOM      1  F   UNL     1       8.118   0.841  22.600  0.00  0.00    -0.166 F 
ATOM      2  F   UNL     1       8.218  -1.266  22.074  0.00  0.00    -0.166 F 
ATOM      3  F   UNL     1       8.559  -0.636  24.127  0.00  0.00    -0.166 F 
ATOM     35  C   UNL     1       7.770  -0.407  23.035  0.00  0.00    +0.417 C 
ENDBRANCH  34  35
ENDBRANCH   8  29
ENDBRANCH  21  24
BRANCH  18   7
ATOM      4  O   UNL     1      -2.834   2.897  22.095  0.00  0.00    -0.276 OA
ATOM      7  N   UNL     1      -4.057   1.471  23.462  0.00  0.00    -0.309 N 
ATOM     17  C   UNL     1      -3.728   2.702  22.914  0.00  0.00    +0.214 C 
ATOM     36  H   UNL     1      -4.800   1.418  24.154  0.00  0.00    +0.149 HD
BRANCH  17  15
ATOM     15  C   UNL     1      -4.623   3.796  23.453  0.00  0.00    +0.103 C 
BRANCH  15  10
ATOM     10  C   UNL     1      -4.408   4.033  24.954  0.00  0.00    -0.011 C 
ATOM     11  C   UNL     1      -3.712   5.391  25.199  0.00  0.00    +0.008 C 
ATOM     12  C   UNL     1      -3.440   2.972  25.532  0.00  0.00    +0.008 C 
ATOM     13  C   UNL     1      -2.260   5.048  25.501  0.00  0.00    +0.001 C 
ATOM     14  C   UNL     1      -2.375   3.756  26.290  0.00  0.00    +0.001 C 
BRANCH  10  16
ATOM     16  C   UNL     1      -5.763   3.989  25.669  0.00  0.00    +0.127 C 
BRANCH  16  20
ATOM      6  O   UNL     1      -6.529   1.811  24.886  0.00  0.00    -0.251 OA
ATOM     20  C   UNL     1      -6.267   2.581  25.797  0.00  0.00    +0.305 C 
BRANCH  20   5
ATOM      5  O   UNL     1      -6.395   2.266  27.112  0.00  0.00    -0.481 OA
ATOM     37  H   UNL     1      -6.271   3.050  27.689  0.00  0.00    +0.295 HD
ENDBRANCH  20   5
ENDBRANCH  16  20
ENDBRANCH  10  16
ENDBRANCH  15  10
ENDBRANCH  17  15
ENDBRANCH  18   7
TORSDOF 9
ENDMDL
MODEL 2
REMARK VINA RESULT:      11.8      1.511      2.444
REMARK  Name = 40777675
REMARK  11 active torsions:
REMARK  status: ('A' for Active; 'I' for Inactive)
REMARK    1  A    between atoms: O_5  and  C_20
REMARK    2  A    between atoms: N_7  and  C_18
REMARK    3  A    between atoms: N_8  and  C_29
REMARK    4  A    between atoms: C_10  and  C_15
REMARK    5  A    between atoms: C_10  and  C_16
REMARK    6  A    between atoms: C_15  and  C_17
REMARK    7  A    between atoms: C_16  and  C_20
REMARK    8  A    between atoms: C_21  and  C_24
REMARK    9  A    between atoms: C_25  and  C_27
REMARK   10  A    between atoms: C_26  and  C_28
REMARK   11  A    between atoms: C_34  and  C_35
REMARK                            x       y       z     vdW  Elec       q    Type
REMARK                         _______ _______ _______ _____ _____    ______ ____
ROOT
ATOM     18  C   UNL     1      -4.578   0.173  23.980  0.00  0.00    +0.097 C 
ATOM     19  C   UNL     1      -3.155   0.418  23.470  0.00  0.00    +0.039 C 
ATOM     21  C   UNL     1      -2.227   0.212  24.686  0.00  0.00    +0.047 C 
ATOM     22  C   UNL     1      -4.358  -0.626  25.221  0.00  0.00    -0.009 C 
ATOM     23  C   UNL     1      -3.078  -0.614  25.607  0.00  0.00    -0.021 C 
ENDROOT
BRANCH  21  24
ATOM      8  N   UNL     1       1.215  -0.771  23.904  0.00  0.00    -0.236 N 
ATOM      9  N   UNL     1       0.650  -1.975  23.709  0.00  0.00    -0.171 NA
ATOM     24  C   UNL     1      -0.898  -0.413  24.325  0.00  0.00    +0.003 A 
ATOM     25  C   UNL     1       0.330   0.199  24.275  0.00  0.00    +0.046 A 
ATOM     26  C   UNL     1      -0.641  -1.749  23.968  0.00  0.00    +0.064 A 
ATOM     27  C   UNL     1       0.725   1.597  24.544  0.00  0.00    +0.066 C 
ATOM     28  C   UNL     1      -1.605  -2.859  23.860  0.00  0.00    +0.068 C 
BRANCH   8  29
ATOM     29  C   UNL     1       2.590  -0.614  23.722  0.00  0.00    +0.066 A 
ATOM     30  C   UNL     1       3.465  -1.631  24.101  0.00  0.00    +0.028 A 
ATOM     31  C   UNL     1       3.088   0.565  23.167  0.00  0.00    +0.028 A 
ATOM     32  C   UNL     1       4.839  -1.471  23.924  0.00  0.00    +0.014 A 
ATOM     33  C   UNL     1       4.462   0.725  22.989  0.00  0.00    +0.014 A 
ATOM     34  C   UNL     1       5.338  -0.294  23.367  0.00  0.00    +0.055 A 
BRANCH  34  35
ATOM      1  F   UNL     1       7.556  -0.688  24.172  0.00  0.00    -0.166 F 
ATOM      2  F   UNL     1       7.182   1.189  23.140  0.00  0.00    -0.166 F 
ATOM      3  F   UNL     1       7.279  -0.673  22.021  0.00  0.00    -0.166 F 
ATOM     35  C   UNL     1       6.807  -0.123  23.179  0.00  0.00    +0.417 C 
ENDBRANCH  34  35
ENDBRANCH   8  29
ENDBRANCH  21  24
BRANCH  18   7
ATOM      4  O   UNL     1      -5.860   0.877  26.501  0.00  0.00    -0.276 OA
ATOM      7  N   UNL     1      -5.231   1.450  24.338  0.00  0.00    -0.309 N 
ATOM     17  C   UNL     1      -5.816   1.682  25.574  0.00  0.00    +0.214 C 
ATOM     36  H   UNL     1      -5.270   2.175  23.627  0.00  0.00    +0.149 HD
BRANCH  17  15
ATOM     15  C   UNL     1      -6.401   3.076  25.648  0.00  0.00    +0.103 C 
BRANCH  15  10
ATOM     10  C   UNL     1      -5.325   4.163  25.526  0.00  0.00    -0.011 C 
ATOM     11  C   UNL     1      -5.956   5.570  25.620  0.00  0.00    +0.008 C 
ATOM     12  C   UNL     1      -4.663   4.109  24.128  0.00  0.00    +0.008 C 
ATOM     13  C   UNL     1      -6.002   6.084  24.188  0.00  0.00    +0.001 C 
ATOM     14  C   UNL     1      -4.721   5.533  23.589  0.00  0.00    +0.001 C 
BRANCH  10  16
ATOM     16  C   UNL     1      -4.285   3.966  26.635  0.00  0.00    +0.127 C 
BRANCH  16  20
ATOM      6  O   UNL     1      -2.224   5.027  25.882  0.00  0.00    -0.251 OA
ATOM     20  C   UNL     1      -2.888   4.024  26.090  0.00  0.00    +0.305 C 
BRANCH  20   5
ATOM      5  O   UNL     1      -2.445   2.762  25.852  0.00  0.00    -0.481 OA
ATOM     37  H   UNL     1      -1.531   2.756  25.497  0.00  0.00    +0.295 HD
ENDBRANCH  20   5
ENDBRANCH  16  20
ENDBRANCH  10  16
ENDBRANCH  15  10
ENDBRANCH  17  15
ENDBRANCH  18   7
TORSDOF 9
ENDMDL
MODEL 3
REMARK VINA RESULT:      12.2      1.272      2.178
REMARK  Name = 40777675
REMARK  11 active torsions:
REMARK  status: ('A' for Active; 'I' for Inactive)
REMARK    1  A    between atoms: O_5  and  C_20
REMARK    2  A    between atoms: N_7  and  C_18
REMARK    3  A    between atoms: N_8  and  C_29
REMARK    4  A    between atoms: C_10  and  C_15
REMARK    5  A    between atoms: C_10  and  C_16
REMARK    6  A    between atoms: C_15  and  C_17
REMARK    7  A    between atoms: C_16  and  C_20
REMARK    8  A    between atoms: C_21  and  C_24
REMARK    9  A    between atoms: C_25  and  C_27
REMARK   10  A    between atoms: C_26  and  C_28
REMARK   11  A    between atoms: C_34  and  C_35
REMARK                            x       y       z     vdW  Elec       q    Type
REMARK                         _______ _______ _______ _____ _____    ______ ____
ROOT
ATOM     18  C   UNL     1      -3.257   0.709  22.771  0.00  0.00    +0.097 C 
ATOM     19  C   UNL     1      -1.749   0.897  22.961  0.00  0.00    +0.039 C 
ATOM     21  C   UNL     1      -1.391   0.165  24.271  0.00  0.00    +0.047 C 
ATOM     22  C   UNL     1      -3.557  -0.480  23.621  0.00  0.00    -0.009 C 
ATOM     23  C   UNL     1      -2.542  -0.785  24.436  0.00  0.00    -0.021 C 
ENDROOT
BRANCH  21  24
ATOM      8  N   UNL     1       2.104  -0.906  24.029  0.00  0.00    -0.236 N 
ATOM      9  N   UNL     1       1.592  -2.092  24.400  0.00  0.00    -0.171 NA
ATOM     24  C   UNL     1      -0.031  -0.494  24.237  0.00  0.00    +0.003 A 
ATOM     25  C   UNL     1       1.173   0.085  23.917  0.00  0.00    +0.046 A 
ATOM     26  C   UNL     1       0.288  -1.833  24.525  0.00  0.00    +0.064 A 
ATOM     27  C   UNL     1       1.506   1.470  23.524  0.00  0.00    +0.066 C 
ATOM     28  C   UNL     1      -0.629  -2.914  24.930  0.00  0.00    +0.068 C 
BRANCH   8  29
ATOM     29  C   UNL     1       3.475  -0.785  23.799  0.00  0.00    +0.066 A 
ATOM     30  C   UNL     1       4.328  -1.851  24.085  0.00  0.00    +0.028 A 
ATOM     31  C   UNL     1       3.993   0.406  23.289  0.00  0.00    +0.028 A 
ATOM     32  C   UNL     1       5.699  -1.727  23.859  0.00  0.00    +0.014 A 
ATOM     33  C   UNL     1       5.364   0.529  23.064  0.00  0.00    +0.014 A 
ATOM     34  C   UNL     1       6.217  -0.538  23.348  0.00  0.00    +0.055 A 
BRANCH  34  35
ATOM      1  F   UNL     1       8.155  -1.238  22.134  0.00  0.00    -0.166 F 
ATOM      2  F   UNL     1       8.424  -0.687  24.220  0.00  0.00    -0.166 F 
ATOM      3  F   UNL     1       8.064   0.848  22.722  0.00  0.00    -0.166 F 
ATOM     35  C   UNL     1       7.683  -0.405  23.109  0.00  0.00    +0.417 C 
ENDBRANCH  34  35
ENDBRANCH   8  29
ENDBRANCH  21  24
BRANCH  18   7
ATOM      4  O   UNL     1      -2.387   3.489  22.845  0.00  0.00    -0.276 OA
ATOM      7  N   UNL     1      -3.999   1.876  23.294  0.00  0.00    -0.309 N 
ATOM     17  C   UNL     1      -3.489   3.166  23.282  0.00  0.00    +0.214 C 
ATOM     36  H   UNL     1      -4.914   1.708  23.703  0.00  0.00    +0.149 HD
BRANCH  17  15
ATOM     15  C   UNL     1      -4.474   4.147  23.879  0.00  0.00    +0.103 C 
BRANCH  15  10
ATOM     10  C   UNL     1      -4.706   3.897  25.376  0.00  0.00    -0.011 C 
ATOM     11  C   UNL     1      -4.492   2.406  25.720  0.00  0.00    +0.008 C 
ATOM     12  C   UNL     1      -6.180   4.190  25.747  0.00  0.00    +0.008 C 
ATOM     13  C   UNL     1      -5.890   1.823  25.863  0.00  0.00    +0.001 C 
ATOM     14  C   UNL     1      -6.667   2.960  26.503  0.00  0.00    +0.001 C 
BRANCH  10  16
ATOM     16  C   UNL     1      -3.748   4.778  26.187  0.00  0.00    +0.127 C 
BRANCH  16  20
ATOM      6  O   UNL     1      -1.757   3.374  26.245  0.00  0.00    -0.251 OA
ATOM     20  C   UNL     1      -2.317   4.412  25.927  0.00  0.00    +0.305 C 
BRANCH  20   5
ATOM      5  O   UNL     1      -1.705   5.428  25.265  0.00  0.00    -0.481 OA
ATOM     37  H   UNL     1      -1.100   5.933  25.848  0.00  0.00    +0.295 HD
ENDBRANCH  20   5
ENDBRANCH  16  20
ENDBRANCH  10  16
ENDBRANCH  15  10
ENDBRANCH  17  15
ENDBRANCH  18   7
TORSDOF 9
ENDMDL
MODEL 4
REMARK VINA RESULT:      12.9      1.363      1.879
REMARK  Name = 40777675
REMARK  11 active torsions:
REMARK  status: ('A' for Active; 'I' for Inactive)
REMARK    1  A    between atoms: O_5  and  C_20
REMARK    2  A    between atoms: N_7  and  C_18
REMARK    3  A    between atoms: N_8  and  C_29
REMARK    4  A    between atoms: C_10  and  C_15
REMARK    5  A    between atoms: C_10  and  C_16
REMARK    6  A    between atoms: C_15  and  C_17
REMARK    7  A    between atoms: C_16  and  C_20
REMARK    8  A    between atoms: C_21  and  C_24
REMARK    9  A    between atoms: C_25  and  C_27
REMARK   10  A    between atoms: C_26  and  C_28
REMARK   11  A    between atoms: C_34  and  C_35
REMARK                            x       y       z     vdW  Elec       q    Type
REMARK                         _______ _______ _______ _____ _____    ______ ____
ROOT
ATOM     18  C   UNL     1      -2.315  -0.021  23.400  0.00  0.00    +0.097 C 
ATOM     19  C   UNL     1      -1.097   0.446  22.596  0.00  0.00    +0.039 C 
ATOM     21  C   UNL     1       0.024   0.688  23.628  0.00  0.00    +0.047 C 
ATOM     22  C   UNL     1      -1.711  -0.504  24.676  0.00  0.00    -0.009 C 
ATOM     23  C   UNL     1      -0.435  -0.126  24.803  0.00  0.00    -0.021 C 
ENDROOT
BRANCH  21  24
ATOM      8  N   UNL     1       3.555   0.083  22.860  0.00  0.00    -0.236 N 
ATOM      9  N   UNL     1       3.044  -0.514  21.770  0.00  0.00    -0.171 NA
ATOM     24  C   UNL     1       1.400   0.329  23.113  0.00  0.00    +0.003 A 
ATOM     25  C   UNL     1       2.612   0.605  23.696  0.00  0.00    +0.046 A 
ATOM     26  C   UNL     1       1.727  -0.361  21.931  0.00  0.00    +0.064 A 
ATOM     27  C   UNL     1       2.942   1.306  24.954  0.00  0.00    +0.066 C 
ATOM     28  C   UNL     1       0.806  -0.899  20.913  0.00  0.00    +0.068 C 
BRANCH   8  29
ATOM     29  C   UNL     1       4.938   0.122  23.043  0.00  0.00    +0.066 A 
ATOM     30  C   UNL     1       5.499   1.040  23.931  0.00  0.00    +0.028 A 
ATOM     31  C   UNL     1       5.759  -0.754  22.333  0.00  0.00    +0.028 A 
ATOM     32  C   UNL     1       6.882   1.081  24.110  0.00  0.00    +0.014 A 
ATOM     33  C   UNL     1       7.142  -0.713  22.512  0.00  0.00    +0.014 A 
ATOM     34  C   UNL     1       7.704   0.204  23.401  0.00  0.00    +0.055 A 
BRANCH  34  35
ATOM      1  F   UNL     1       9.681   1.517  23.700  0.00  0.00    -0.166 F 
ATOM      2  F   UNL     1       9.862  -0.323  22.557  0.00  0.00    -0.166 F 
ATOM      3  F   UNL     1       9.609  -0.399  24.715  0.00  0.00    -0.166 F 
ATOM     35  C   UNL     1       9.182   0.250  23.592  0.00  0.00    +0.417 C 
ENDBRANCH  34  35
ENDBRANCH   8  29
ENDBRANCH  21  24
BRANCH  18   7
ATOM      4  O   UNL     1      -2.527   2.503  21.958  0.00  0.00    -0.276 OA
ATOM      7  N   UNL     1      -3.215   1.115  23.691  0.00  0.00    -0.309 N 
ATOM     17  C   UNL     1      -3.235   2.279  22.936  0.00  0.00    +0.214 C 
ATOM     36  H   UNL     1      -3.825   1.038  24.500  0.00  0.00    +0.149 HD
BRANCH  17  15
ATOM     15  C   UNL     1      -4.258   3.258  23.471  0.00  0.00    +0.103 C 
BRANCH  15  10
ATOM     10  C   UNL     1      -3.931   3.714  24.900  0.00  0.00    -0.011 C 
ATOM     11  C   UNL     1      -3.169   5.058  24.885  0.00  0.00    +0.008 C 
ATOM     12  C   UNL     1      -2.967   2.709  25.577  0.00  0.00    +0.008 C 
ATOM     13  C   UNL     1      -1.714   4.695  25.147  0.00  0.00    +0.001 C 
ATOM     14  C   UNL     1      -1.824   3.548  26.135  0.00  0.00    +0.001 C 
BRANCH  10  16
ATOM     16  C   UNL     1      -5.235   3.846  25.695  0.00  0.00    +0.127 C 
BRANCH  16  20
ATOM      6  O   UNL     1      -6.198   1.790  24.808  0.00  0.00    -0.251 OA
ATOM     20  C   UNL     1      -5.979   2.544  25.744  0.00  0.00    +0.305 C 
BRANCH  20   5
ATOM      5  O   UNL     1      -6.392   2.308  27.016  0.00  0.00    -0.481 OA
ATOM     37  H   UNL     1      -6.030   1.467  27.368  0.00  0.00    +0.295 HD
ENDBRANCH  20   5
ENDBRANCH  16  20
ENDBRANCH  10  16
ENDBRANCH  15  10
ENDBRANCH  17  15
ENDBRANCH  18   7
TORSDOF 9
ENDMDL
MODEL 5
REMARK VINA RESULT:      13.9      1.872      2.834
REMARK  Name = 40777675
REMARK  11 active torsions:
REMARK  status: ('A' for Active; 'I' for Inactive)
REMARK    1  A    between atoms: O_5  and  C_20
REMARK    2  A    between atoms: N_7  and  C_18
REMARK    3  A    between atoms: N_8  and  C_29
REMARK    4  A    between atoms: C_10  and  C_15
REMARK    5  A    between atoms: C_10  and  C_16
REMARK    6  A    between atoms: C_15  and  C_17
REMARK    7  A    between atoms: C_16  and  C_20
REMARK    8  A    between atoms: C_21  and  C_24
REMARK    9  A    between atoms: C_25  and  C_27
REMARK   10  A    between atoms: C_26  and  C_28
REMARK   11  A    between atoms: C_34  and  C_35
REMARK                            x       y       z     vdW  Elec       q    Type
REMARK                         _______ _______ _______ _____ _____    ______ ____
ROOT
ATOM     18  C   UNL     1      -0.992   0.360  25.896  0.00  0.00    +0.097 C 
ATOM     19  C   UNL     1      -0.297  -0.331  24.720  0.00  0.00    +0.039 C 
ATOM     21  C   UNL     1       0.327   0.799  23.874  0.00  0.00    +0.047 C 
ATOM     22  C   UNL     1      -0.321   1.691  25.950  0.00  0.00    -0.009 C 
ATOM     23  C   UNL     1       0.404   1.933  24.854  0.00  0.00    -0.021 C 
ENDROOT
BRANCH  21  24
ATOM      8  N   UNL     1       3.771   0.095  22.838  0.00  0.00    -0.236 N 
ATOM      9  N   UNL     1       3.164  -0.401  21.746  0.00  0.00    -0.171 NA
ATOM     24  C   UNL     1       1.649   0.417  23.247  0.00  0.00    +0.003 A 
ATOM     25  C   UNL     1       2.907   0.597  23.767  0.00  0.00    +0.046 A 
ATOM     26  C   UNL     1       1.869  -0.201  22.002  0.00  0.00    +0.064 A 
ATOM     27  C   UNL     1       3.348   1.193  25.045  0.00  0.00    +0.066 C 
ATOM     28  C   UNL     1       0.861  -0.626  21.013  0.00  0.00    +0.068 C 
BRANCH   8  29
ATOM     29  C   UNL     1       5.162   0.060  22.933  0.00  0.00    +0.066 A 
ATOM     30  C   UNL     1       5.828   0.954  23.771  0.00  0.00    +0.028 A 
ATOM     31  C   UNL     1       5.888  -0.867  22.184  0.00  0.00    +0.028 A 
ATOM     32  C   UNL     1       7.220   0.921  23.862  0.00  0.00    +0.014 A 
ATOM     33  C   UNL     1       7.279  -0.900  22.275  0.00  0.00    +0.014 A 
ATOM     34  C   UNL     1       7.946  -0.006  23.114  0.00  0.00    +0.055 A 
BRANCH  34  35
ATOM      1  F   UNL     1      10.045   1.020  22.602  0.00  0.00    -0.166 F 
ATOM      2  F   UNL     1       9.971  -1.153  22.633  0.00  0.00    -0.166 F 
ATOM      3  F   UNL     1       9.899  -0.030  24.494  0.00  0.00    -0.166 F 
ATOM     35  C   UNL     1       9.433  -0.039  23.210  0.00  0.00    +0.417 C 
ENDBRANCH  34  35
ENDBRANCH   8  29
ENDBRANCH  21  24
BRANCH  18   7
ATOM      4  O   UNL     1      -2.709  -1.261  24.188  0.00  0.00    -0.276 OA
ATOM      7  N   UNL     1      -2.430   0.555  25.611  0.00  0.00    -0.309 N 
ATOM     17  C   UNL     1      -3.158  -0.280  24.776  0.00  0.00    +0.214 C 
ATOM     36  H   UNL     1      -2.889   1.359  26.032  0.00  0.00    +0.149 HD
BRANCH  17  15
ATOM     15  C   UNL     1      -4.600   0.167  24.678  0.00  0.00    +0.103 C 
BRANCH  15  10
ATOM     10  C   UNL     1      -4.722   1.679  24.444  0.00  0.00    -0.011 C 
ATOM     11  C   UNL     1      -4.321   2.042  22.997  0.00  0.00    +0.008 C 
ATOM     12  C   UNL     1      -3.724   2.445  25.346  0.00  0.00    +0.008 C 
ATOM     13  C   UNL     1      -2.919   2.625  23.105  0.00  0.00    +0.001 C 
ATOM     14  C   UNL     1      -2.970   3.389  24.416  0.00  0.00    +0.001 C 
BRANCH  10  16
ATOM     16  C   UNL     1      -6.165   2.116  24.727  0.00  0.00    +0.127 C 
BRANCH  16  20
ATOM      6  O   UNL     1      -6.137   4.302  25.804  0.00  0.00    -0.251 OA
ATOM     20  C   UNL     1      -6.228   3.086  25.869  0.00  0.00    +0.305 C 
BRANCH  20   5
ATOM      5  O   UNL     1      -6.408   2.404  27.030  0.00  0.00    -0.481 OA
ATOM     37  H   UNL     1      -5.590   1.943  27.314  0.00  0.00    +0.295 HD
ENDBRANCH  20   5
ENDBRANCH  16  20
ENDBRANCH  10  16
ENDBRANCH  15  10
ENDBRANCH  17  15
ENDBRANCH  18   7
TORSDOF 9
ENDMDL
MODEL 6
REMARK VINA RESULT:      14.2      2.040      3.217
REMARK  Name = 40777675
REMARK  11 active torsions:
REMARK  status: ('A' for Active; 'I' for Inactive)
REMARK    1  A    between atoms: O_5  and  C_20
REMARK    2  A    between atoms: N_7  and  C_18
REMARK    3  A    between atoms: N_8  and  C_29
REMARK    4  A    between atoms: C_10  and  C_15
REMARK    5  A    between atoms: C_10  and  C_16
REMARK    6  A    between atoms: C_15  and  C_17
REMARK    7  A    between atoms: C_16  and  C_20
REMARK    8  A    between atoms: C_21  and  C_24
REMARK    9  A    between atoms: C_25  and  C_27
REMARK   10  A    between atoms: C_26  and  C_28
REMARK   11  A    between atoms: C_34  and  C_35
REMARK                            x       y       z     vdW  Elec       q    Type
REMARK                         _______ _______ _______ _____ _____    ______ ____
ROOT
ATOM     18  C   UNL     1      -1.205   0.349  25.599  0.00  0.00    +0.097 C 
ATOM     19  C   UNL     1      -0.445  -0.352  24.469  0.00  0.00    +0.039 C 
ATOM     21  C   UNL     1       0.224   0.770  23.648  0.00  0.00    +0.047 C 
ATOM     22  C   UNL     1      -0.539   1.682  25.677  0.00  0.00    -0.009 C 
ATOM     23  C   UNL     1       0.246   1.914  24.620  0.00  0.00    -0.021 C 
ENDROOT
BRANCH  21  24
ATOM      8  N   UNL     1       3.721   0.084  22.797  0.00  0.00    -0.236 N 
ATOM      9  N   UNL     1       3.171  -0.479  21.708  0.00  0.00    -0.171 NA
ATOM     24  C   UNL     1       1.578   0.384  23.098  0.00  0.00    +0.003 A 
ATOM     25  C   UNL     1       2.809   0.616  23.662  0.00  0.00    +0.046 A 
ATOM     26  C   UNL     1       1.862  -0.293  21.898  0.00  0.00    +0.064 A 
ATOM     27  C   UNL     1       3.183   1.284  24.925  0.00  0.00    +0.066 C 
ATOM     28  C   UNL     1       0.907  -0.788  20.890  0.00  0.00    +0.068 C 
BRANCH   8  29
ATOM     29  C   UNL     1       5.107   0.082  22.953  0.00  0.00    +0.066 A 
ATOM     30  C   UNL     1       5.894  -0.788  22.198  0.00  0.00    +0.028 A 
ATOM     31  C   UNL     1       5.706   0.947  23.869  0.00  0.00    +0.028 A 
ATOM     32  C   UNL     1       7.279  -0.792  22.357  0.00  0.00    +0.014 A 
ATOM     33  C   UNL     1       7.092   0.943  24.028  0.00  0.00    +0.014 A 
ATOM     34  C   UNL     1       7.879   0.073  23.272  0.00  0.00    +0.055 A 
BRANCH  34  35
ATOM      1  F   UNL     1       9.932   1.300  23.303  0.00  0.00    -0.166 F 
ATOM      2  F   UNL     1       9.990  -0.734  22.536  0.00  0.00    -0.166 F 
ATOM      3  F   UNL     1       9.768  -0.377  24.669  0.00  0.00    -0.166 F 
ATOM     35  C   UNL     1       9.360   0.067  23.443  0.00  0.00    +0.417 C 
ENDBRANCH  34  35
ENDBRANCH   8  29
ENDBRANCH  21  24
BRANCH  18   7
ATOM      4  O   UNL     1      -3.454  -1.405  26.198  0.00  0.00    -0.276 OA
ATOM      7  N   UNL     1      -2.625   0.540  25.233  0.00  0.00    -0.309 N 
ATOM     17  C   UNL     1      -3.623  -0.363  25.569  0.00  0.00    +0.214 C 
ATOM     36  H   UNL     1      -2.864   1.363  24.687  0.00  0.00    +0.149 HD
BRANCH  17  15
ATOM     15  C   UNL     1      -4.971   0.100  25.063  0.00  0.00    +0.103 C 
BRANCH  15  10
ATOM     10  C   UNL     1      -4.964   1.583  24.668  0.00  0.00    -0.011 C 
ATOM     11  C   UNL     1      -4.068   2.399  25.626  0.00  0.00    +0.008 C 
ATOM     12  C   UNL     1      -6.381   2.188  24.825  0.00  0.00    +0.008 C 
ATOM     13  C   UNL     1      -5.032   3.115  26.562  0.00  0.00    +0.001 C 
ATOM     14  C   UNL     1      -6.198   3.454  25.653  0.00  0.00    +0.001 C 
BRANCH  10  16
ATOM     16  C   UNL     1      -4.466   1.716  23.224  0.00  0.00    +0.127 C 
BRANCH  16  20
ATOM      6  O   UNL     1      -3.657   4.012  23.342  0.00  0.00    -0.251 OA
ATOM     20  C   UNL     1      -3.472   2.832  23.089  0.00  0.00    +0.305 C 
BRANCH  20   5
ATOM      5  O   UNL     1      -2.294   2.333  22.632  0.00  0.00    -0.481 OA
ATOM     37  H   UNL     1      -1.722   2.017  23.364  0.00  0.00    +0.295 HD
ENDBRANCH  20   5
ENDBRANCH  16  20
ENDBRANCH  10  16
ENDBRANCH  15  10
ENDBRANCH  17  15
ENDBRANCH  18   7
TORSDOF 9
ENDMDL
MODEL 7
REMARK VINA RESULT:      14.3      1.647      2.922
REMARK  Name = 40777675
REMARK  11 active torsions:
REMARK  status: ('A' for Active; 'I' for Inactive)
REMARK    1  A    between atoms: O_5  and  C_20
REMARK    2  A    between atoms: N_7  and  C_18
REMARK    3  A    between atoms: N_8  and  C_29
REMARK    4  A    between atoms: C_10  and  C_15
REMARK    5  A    between atoms: C_10  and  C_16
REMARK    6  A    between atoms: C_15  and  C_17
REMARK    7  A    between atoms: C_16  and  C_20
REMARK    8  A    between atoms: C_21  and  C_24
REMARK    9  A    between atoms: C_25  and  C_27
REMARK   10  A    between atoms: C_26  and  C_28
REMARK   11  A    between atoms: C_34  and  C_35
REMARK                            x       y       z     vdW  Elec       q    Type
REMARK                         _______ _______ _______ _____ _____    ______ ____
ROOT
ATOM     18  C   UNL     1      -0.880   2.927  25.058  0.00  0.00    +0.097 C 
ATOM     19  C   UNL     1      -0.240   1.538  25.131  0.00  0.00    +0.039 C 
ATOM     21  C   UNL     1       0.287   1.239  23.712  0.00  0.00    +0.047 C 
ATOM     22  C   UNL     1      -0.254   3.523  23.842  0.00  0.00    -0.009 C 
ATOM     23  C   UNL     1       0.389   2.609  23.108  0.00  0.00    -0.021 C 
ENDROOT
BRANCH  21  24
ATOM      8  N   UNL     1       3.670  -0.161  23.583  0.00  0.00    -0.236 N 
ATOM      9  N   UNL     1       3.026  -1.310  23.850  0.00  0.00    -0.171 NA
ATOM     24  C   UNL     1       1.577   0.450  23.706  0.00  0.00    +0.003 A 
ATOM     25  C   UNL     1       2.848   0.923  23.488  0.00  0.00    +0.046 A 
ATOM     26  C   UNL     1       1.747  -0.929  23.924  0.00  0.00    +0.064 A 
ATOM     27  C   UNL     1       3.335   2.288  23.202  0.00  0.00    +0.066 C 
ATOM     28  C   UNL     1       0.708  -1.935  24.210  0.00  0.00    +0.068 C 
BRANCH   8  29
ATOM     29  C   UNL     1       5.058  -0.165  23.434  0.00  0.00    +0.066 A 
ATOM     30  C   UNL     1       5.829   0.819  24.052  0.00  0.00    +0.028 A 
ATOM     31  C   UNL     1       5.672  -1.151  22.661  0.00  0.00    +0.028 A 
ATOM     32  C   UNL     1       7.216   0.817  23.898  0.00  0.00    +0.014 A 
ATOM     33  C   UNL     1       7.058  -1.152  22.507  0.00  0.00    +0.014 A 
ATOM     34  C   UNL     1       7.831  -0.168  23.126  0.00  0.00    +0.055 A 
BRANCH  34  35
ATOM      1  F   UNL     1       9.788  -1.266  22.298  0.00  0.00    -0.166 F 
ATOM      2  F   UNL     1       9.974  -0.148  24.154  0.00  0.00    -0.166 F 
ATOM      3  F   UNL     1       9.786   0.903  22.260  0.00  0.00    -0.166 F 
ATOM     35  C   UNL     1       9.312  -0.169  22.961  0.00  0.00    +0.417 C 
ENDBRANCH  34  35
ENDBRANCH   8  29
ENDBRANCH  21  24
BRANCH  18   7
ATOM      4  O   UNL     1      -2.271   1.896  22.713  0.00  0.00    -0.276 OA
ATOM      7  N   UNL     1      -2.340   2.819  24.845  0.00  0.00    -0.309 N 
ATOM     17  C   UNL     1      -2.901   2.310  23.683  0.00  0.00    +0.214 C 
ATOM     36  H   UNL     1      -2.950   3.161  25.583  0.00  0.00    +0.149 HD
BRANCH  17  15
ATOM     15  C   UNL     1      -4.412   2.323  23.757  0.00  0.00    +0.103 C 
BRANCH  15  10
ATOM     10  C   UNL     1      -4.964   1.132  24.553  0.00  0.00    -0.011 C 
ATOM     11  C   UNL     1      -4.010   0.761  25.711  0.00  0.00    +0.008 C 
ATOM     12  C   UNL     1      -5.025  -0.130  23.659  0.00  0.00    +0.008 C 
ATOM     13  C   UNL     1      -3.265  -0.478  25.234  0.00  0.00    +0.001 C 
ATOM     14  C   UNL     1      -4.325  -1.229  24.449  0.00  0.00    +0.001 C 
BRANCH  10  16
ATOM     16  C   UNL     1      -6.352   1.490  25.095  0.00  0.00    +0.127 C 
BRANCH  16  20
ATOM      6  O   UNL     1      -5.981   3.779  25.846  0.00  0.00    -0.251 OA
ATOM     20  C   UNL     1      -6.280   2.618  26.081  0.00  0.00    +0.305 C 
BRANCH  20   5
ATOM      5  O   UNL     1      -6.604   2.158  27.317  0.00  0.00    -0.481 OA
ATOM     37  H   UNL     1      -6.256   1.254  27.474  0.00  0.00    +0.295 HD
ENDBRANCH  20   5
ENDBRANCH  16  20
ENDBRANCH  10  16
ENDBRANCH  15  10
ENDBRANCH  17  15
ENDBRANCH  18   7
TORSDOF 9
ENDMDL
