MODEL 1
REMARK VINA RESULT:       2.8      0.000      0.000
REMARK  Name = 9424610
REMARK  6 active torsions:
REMARK  status: ('A' for Active; 'I' for Inactive)
REMARK    1  A    between atoms: O_4  and  C_28
REMARK    2  A    between atoms: O_4  and  C_29
REMARK    3  A    between atoms: N_5  and  C_14
REMARK    4  A    between atoms: N_8  and  C_21
REMARK    5  A    between atoms: C_25  and  C_26
REMARK    6  A    between atoms: C_27  and  C_28
REMARK                            x       y       z     vdW  Elec       q    Type
REMARK                         _______ _______ _______ _____ _____    ______ ____
ROOT
ATOM      1  O   UNL     1      -3.218   5.155  27.057  0.00  0.00    -0.268 OA
ATOM      5  N   UNL     1      -4.243   0.708  24.971  0.00  0.00    -0.298 NA
ATOM      6  N   UNL     1      -3.243   3.731  25.198  0.00  0.00    -0.310 N 
ATOM      9  C   UNL     1      -5.419   2.791  24.226  0.00  0.00    +0.024 C 
ATOM     10  C   UNL     1      -3.275   2.190  23.211  0.00  0.00    +0.052 C 
ATOM     11  C   UNL     1      -4.651   2.782  22.916  0.00  0.00    +0.017 C 
ATOM     12  C   UNL     1      -5.545   1.357  24.782  0.00  0.00    +0.090 C 
ATOM     13  C   UNL     1      -3.439   0.747  23.741  0.00  0.00    +0.094 C 
ATOM     15  C   UNL     1      -4.712   3.742  25.195  0.00  0.00    +0.130 C 
ATOM     16  C   UNL     1      -2.505   3.042  24.218  0.00  0.00    +0.047 A 
ATOM     21  C   UNL     1      -1.155   3.129  24.211  0.00  0.00    +0.054 A 
ATOM     22  C   UNL     1      -2.624   4.519  26.186  0.00  0.00    +0.252 A 
ATOM     23  C   UNL     1      -0.473   3.927  25.202  0.00  0.00    +0.030 A 
ATOM     24  C   UNL     1      -1.143   4.585  26.150  0.00  0.00    +0.072 A 
ENDROOT
BRANCH   5  14
ATOM      2  O   UNL     1      -1.173  -3.903  23.426  0.00  0.00    -0.276 OA
ATOM      7  N   UNL     1      -1.990  -2.085  24.623  0.00  0.00    -0.302 N 
ATOM     14  C   UNL     1      -4.406  -0.668  25.447  0.00  0.00    +0.060 C 
ATOM     17  C   UNL     1      -3.289  -1.027  26.437  0.00  0.00    +0.038 C 
ATOM     18  C   UNL     1      -4.393  -1.648  24.264  0.00  0.00    +0.038 C 
ATOM     19  C   UNL     1      -1.924  -1.157  25.759  0.00  0.00    +0.109 C 
ATOM     20  C   UNL     1      -3.010  -1.766  23.621  0.00  0.00    +0.109 C 
ATOM     25  C   UNL     1      -1.135  -3.168  24.417  0.00  0.00    +0.212 C 
ATOM     26  C   UNL     1      -0.114  -3.438  25.494  0.00  0.00    +0.109 C 
ENDBRANCH   5  14
BRANCH  21   8
ATOM      3  O   UNL     1       0.113   0.588  24.603  0.00  0.00    -0.272 OA
ATOM      8  N   UNL     1      -0.356   2.473  23.316  0.00  0.00    -0.281 N 
ATOM     27  C   UNL     1       0.228   1.242  23.571  0.00  0.00    +0.255 C 
ATOM     35  H   UNL     1      -0.023   2.991  22.507  0.00  0.00    +0.155 HD
BRANCH  27  28
ATOM     28  C   UNL     1       1.056   0.770  22.393  0.00  0.00    +0.324 C 
BRANCH  28   4
ATOM      4  O   UNL     1       1.724  -0.435  22.705  0.00  0.00    -0.483 OA
BRANCH   4  29
ATOM     29  C   UNL     1       3.046  -0.343  23.068  0.00  0.00    +0.121 A 
ATOM     30  C   UNL     1       3.668  -1.427  23.672  0.00  0.00    +0.045 A 
ATOM     31  C   UNL     1       3.741   0.835  22.826  0.00  0.00    +0.045 A 
ATOM     32  C   UNL     1       5.009  -1.332  24.041  0.00  0.00    +0.004 A 
ATOM     33  C   UNL     1       5.083   0.929  23.194  0.00  0.00    +0.004 A 
ATOM     34  C   UNL     1       5.717  -0.155  23.802  0.00  0.00    +0.000 A 
ENDBRANCH   4  29
ENDBRANCH  28   4
ENDBRANCH  27  28
ENDBRANCH  21   8
TORSDOF 5
ENDMDL
