MODEL 1
REMARK VINA RESULT:      14.2      0.000      0.000
REMARK  Name = 7142693
REMARK  5 active torsions:
REMARK  status: ('A' for Active; 'I' for Inactive)
REMARK    1  A    between atoms: O_5  and  C_28
REMARK    2  A    between atoms: O_5  and  C_30
REMARK    3  A    between atoms: N_8  and  C_20
REMARK    4  A    between atoms: N_9  and  C_29
REMARK    5  A    between atoms: C_19  and  C_22
REMARK                            x       y       z     vdW  Elec       q    Type
REMARK                         _______ _______ _______ _____ _____    ______ ____
ROOT
ATOM      2  O   UNL     1      -0.706   3.284  25.991  0.00  0.00    -0.266 OA
ATOM      3  O   UNL     1      -3.933  -0.525  27.353  0.00  0.00    -0.270 OA
ATOM      6  N   UNL     1      -4.948   0.683  25.625  0.00  0.00    -0.297 N 
ATOM      7  N   UNL     1      -2.707   2.801  24.884  0.00  0.00    -0.310 N 
ATOM     10  C   UNL     1      -5.003   3.147  25.964  0.00  0.00    +0.027 C 
ATOM     11  C   UNL     1      -4.847   2.229  23.685  0.00  0.00    +0.054 C 
ATOM     12  C   UNL     1      -5.492   3.326  24.530  0.00  0.00    +0.018 C 
ATOM     13  C   UNL     1      -5.406   1.761  26.500  0.00  0.00    +0.113 C 
ATOM     14  C   UNL     1      -3.485   3.361  25.998  0.00  0.00    +0.130 C 
ATOM     15  C   UNL     1      -5.292   0.847  24.203  0.00  0.00    +0.117 C 
ATOM     16  C   UNL     1      -3.334   2.327  23.727  0.00  0.00    +0.027 A 
ATOM     17  C   UNL     1      -2.600   1.928  22.675  0.00  0.00    +0.024 A 
ATOM     18  C   UNL     1      -1.303   2.859  25.000  0.00  0.00    +0.273 A 
ATOM     19  C   UNL     1      -4.224  -0.382  26.167  0.00  0.00    +0.247 C 
ATOM     20  C   UNL     1      -0.522   2.379  23.817  0.00  0.00    +0.100 A 
ATOM     21  C   UNL     1      -1.165   1.954  22.725  0.00  0.00    +0.030 A 
ENDROOT
BRANCH  20   8
ATOM      4  O   UNL     1       1.244   0.329  22.939  0.00  0.00    -0.252 OA
ATOM      8  N   UNL     1       0.840   2.401  23.898  0.00  0.00    -0.265 N 
ATOM      9  N   UNL     1       3.010   1.689  23.672  0.00  0.00    -0.269 N 
ATOM     25  C   UNL     1       1.668   1.364  23.449  0.00  0.00    +0.308 C 
ATOM     36  H   UNL     1       1.252   3.084  24.527  0.00  0.00    +0.157 HD
ATOM     37  H   UNL     1       3.193   2.592  24.104  0.00  0.00    +0.156 HD
BRANCH   9  29
ATOM      1 CL   UNL     1       7.789  -1.535  22.390  0.00  0.00    -0.084 Cl
ATOM     29  C   UNL     1       4.154   0.917  23.365  0.00  0.00    +0.035 A 
ATOM     31  C   UNL     1       5.079   0.650  24.361  0.00  0.00    +0.025 A 
ATOM     32  C   UNL     1       4.327   0.443  22.075  0.00  0.00    +0.025 A 
ATOM     33  C   UNL     1       6.208  -0.112  24.059  0.00  0.00    +0.022 A 
ATOM     34  C   UNL     1       5.456  -0.318  21.772  0.00  0.00    +0.022 A 
ATOM     35  C   UNL     1       6.397  -0.595  22.764  0.00  0.00    +0.041 A 
ENDBRANCH   9  29
ENDBRANCH  20   8
BRANCH  19  22
ATOM     22  C   UNL     1      -3.741  -1.421  25.252  0.00  0.00    +0.037 A 
ATOM     23  C   UNL     1      -2.418  -1.848  25.325  0.00  0.00    +0.016 A 
ATOM     24  C   UNL     1      -4.609  -1.977  24.315  0.00  0.00    +0.016 A 
ATOM     26  C   UNL     1      -1.958  -2.837  24.455  0.00  0.00    +0.046 A 
ATOM     27  C   UNL     1      -4.149  -2.966  23.445  0.00  0.00    +0.046 A 
ATOM     28  C   UNL     1      -2.824  -3.396  23.515  0.00  0.00    +0.120 A 
BRANCH  28   5
ATOM      5  O   UNL     1      -2.376  -4.362  22.667  0.00  0.00    -0.495 OA
ATOM     30  C   UNL     1      -0.979  -4.371  22.374  0.00  0.00    +0.277 C 
ENDBRANCH  28   5
ENDBRANCH  19  22
TORSDOF 4
ENDMDL
MODEL 2
REMARK VINA RESULT:      16.5      2.412      4.754
REMARK  Name = 7142693
REMARK  5 active torsions:
REMARK  status: ('A' for Active; 'I' for Inactive)
REMARK    1  A    between atoms: O_5  and  C_28
REMARK    2  A    between atoms: O_5  and  C_30
REMARK    3  A    between atoms: N_8  and  C_20
REMARK    4  A    between atoms: N_9  and  C_29
REMARK    5  A    between atoms: C_19  and  C_22
REMARK                            x       y       z     vdW  Elec       q    Type
REMARK                         _______ _______ _______ _____ _____    ______ ____
ROOT
ATOM      2  O   UNL     1      -1.752   1.295  22.080  0.00  0.00    -0.266 OA
ATOM      3  O   UNL     1      -2.424   5.284  25.307  0.00  0.00    -0.270 OA
ATOM      6  N   UNL     1      -4.108   3.720  25.749  0.00  0.00    -0.297 N 
ATOM      7  N   UNL     1      -3.351   1.349  23.784  0.00  0.00    -0.310 N 
ATOM     10  C   UNL     1      -5.359   2.937  23.746  0.00  0.00    +0.027 C 
ATOM     11  C   UNL     1      -5.034   1.419  25.656  0.00  0.00    +0.054 C 
ATOM     12  C   UNL     1      -6.039   1.869  24.598  0.00  0.00    +0.018 C 
ATOM     13  C   UNL     1      -4.939   4.133  24.620  0.00  0.00    +0.113 C 
ATOM     14  C   UNL     1      -4.166   2.304  23.021  0.00  0.00    +0.130 C 
ATOM     15  C   UNL     1      -4.654   2.614  26.552  0.00  0.00    +0.117 C 
ATOM     16  C   UNL     1      -3.785   0.845  25.014  0.00  0.00    +0.027 A 
ATOM     17  C   UNL     1      -3.082  -0.114  25.639  0.00  0.00    +0.024 A 
ATOM     18  C   UNL     1      -2.166   0.894  23.169  0.00  0.00    +0.273 A 
ATOM     19  C   UNL     1      -2.886   4.359  25.974  0.00  0.00    +0.247 C 
ATOM     20  C   UNL     1      -1.397  -0.154  23.910  0.00  0.00    +0.100 A 
ATOM     21  C   UNL     1      -1.863  -0.621  25.073  0.00  0.00    +0.030 A 
ENDROOT
BRANCH  20   8
ATOM      4  O   UNL     1       1.226   0.731  24.563  0.00  0.00    -0.252 OA
ATOM      8  N   UNL     1      -0.235  -0.606  23.357  0.00  0.00    -0.265 N 
ATOM      9  N   UNL     1       2.019  -0.798  22.969  0.00  0.00    -0.269 N 
ATOM     25  C   UNL     1       1.037  -0.138  23.714  0.00  0.00    +0.308 C 
ATOM     36  H   UNL     1      -0.311  -1.122  22.485  0.00  0.00    +0.157 HD
ATOM     37  H   UNL     1       1.693  -1.497  22.305  0.00  0.00    +0.156 HD
BRANCH   9  29
ATOM      1 CL   UNL     1       7.872  -0.050  23.205  0.00  0.00    -0.084 Cl
ATOM     29  C   UNL     1       3.420  -0.618  23.026  0.00  0.00    +0.035 A 
ATOM     31  C   UNL     1       3.992   0.465  22.379  0.00  0.00    +0.025 A 
ATOM     32  C   UNL     1       4.194  -1.530  23.727  0.00  0.00    +0.025 A 
ATOM     33  C   UNL     1       5.375   0.642  22.435  0.00  0.00    +0.022 A 
ATOM     34  C   UNL     1       5.576  -1.353  23.782  0.00  0.00    +0.022 A 
ATOM     35  C   UNL     1       6.167  -0.267  23.136  0.00  0.00    +0.041 A 
ENDBRANCH   9  29
ENDBRANCH  20   8
BRANCH  19  22
ATOM     22  C   UNL     1      -2.058   3.887  27.088  0.00  0.00    +0.037 A 
ATOM     23  C   UNL     1      -0.851   3.243  26.829  0.00  0.00    +0.016 A 
ATOM     24  C   UNL     1      -2.482   4.085  28.400  0.00  0.00    +0.016 A 
ATOM     26  C   UNL     1      -0.062   2.794  27.889  0.00  0.00    +0.046 A 
ATOM     27  C   UNL     1      -1.693   3.636  29.460  0.00  0.00    +0.046 A 
ATOM     28  C   UNL     1      -0.484   2.990  29.204  0.00  0.00    +0.120 A 
BRANCH  28   5
ATOM      5  O   UNL     1       0.286   2.553  30.237  0.00  0.00    -0.495 OA
ATOM     30  C   UNL     1       1.665   2.311  29.961  0.00  0.00    +0.277 C 
ENDBRANCH  28   5
ENDBRANCH  19  22
TORSDOF 4
ENDMDL
