MODEL 1
REMARK VINA RESULT:      -5.2      0.000      0.000
REMARK  Name = 56775508
REMARK  9 active torsions:
REMARK  status: ('A' for Active; 'I' for Inactive)
REMARK    1  A    between atoms: O_3  and  C_20
REMARK    2  A    between atoms: N_4  and  C_6
REMARK    3  A    between atoms: N_4  and  C_8
REMARK    4  A    between atoms: C_6  and  C_13
REMARK    5  A    between atoms: C_7  and  C_8
REMARK    6  A    between atoms: C_13  and  C_17
REMARK    7  A    between atoms: C_19  and  C_20
REMARK    8  A    between atoms: C_20  and  C_21
REMARK    9  A    between atoms: C_20  and  C_22
REMARK                            x       y       z     vdW  Elec       q    Type
REMARK                         _______ _______ _______ _____ _____    ______ ____
ROOT
ATOM      1  O   UNL     1      -5.446   4.180  25.769  0.00  0.00    -0.376 OA
ATOM      6  C   UNL     1      -4.036   2.847  24.878  0.00  0.00    +0.072 C 
ATOM      9  C   UNL     1      -4.014   4.005  25.869  0.00  0.00    +0.184 C 
ATOM     10  C   UNL     1      -5.550   3.030  24.898  0.00  0.00    +0.184 C 
ENDROOT
BRANCH   6   4
ATOM      4  N   UNL     1      -3.700   1.609  25.590  0.00  0.00    -0.306 NA
ATOM     23  H   UNL     1      -2.751   1.269  25.441  0.00  0.00    +0.123 HD
BRANCH   4   8
ATOM      8  C   UNL     1      -4.659   0.572  25.238  0.00  0.00    +0.085 C 
BRANCH   8   7
ATOM      7  C   UNL     1      -4.007  -0.809  25.282  0.00  0.00    +0.003 C 
ATOM     11  C   UNL     1      -2.505  -0.689  25.574  0.00  0.00    +0.005 C 
ATOM     12  C   UNL     1      -4.250  -1.565  23.969  0.00  0.00    +0.005 C 
ATOM     14  C   UNL     1      -1.819  -2.053  25.571  0.00  0.00    +0.000 C 
ATOM     15  C   UNL     1      -3.562  -2.928  23.969  0.00  0.00    +0.000 C 
ATOM     16  C   UNL     1      -2.071  -2.806  24.268  0.00  0.00    +0.000 C 
ENDBRANCH   8   7
ENDBRANCH   4   8
ENDBRANCH   6   4
BRANCH   6  13
ATOM     13  C   UNL     1      -3.307   2.989  23.578  0.00  0.00    +0.085 C 
BRANCH  13  17
ATOM      2  O   UNL     1       0.110   2.074  24.313  0.00  0.00    -0.356 OA
ATOM      5  N   UNL     1      -1.011   2.877  24.479  0.00  0.00    -0.083 NA
ATOM     17  C   UNL     1      -1.932   2.360  23.660  0.00  0.00    +0.086 A 
ATOM     18  C   UNL     1      -1.453   1.241  22.958  0.00  0.00    +0.074 A 
ATOM     19  C   UNL     1      -0.165   1.103  23.404  0.00  0.00    +0.168 A 
BRANCH  19  20
ATOM     20  C   UNL     1       0.918   0.158  23.106  0.00  0.00    +0.120 C 
ATOM     21  C   UNL     1       2.333   0.796  23.234  0.00  0.00    +0.049 C 
ATOM     22  C   UNL     1       0.794  -0.481  21.692  0.00  0.00    +0.049 C 
BRANCH  20   3
ATOM      3  O   UNL     1       0.941  -0.972  24.021  0.00  0.00    -0.381 OA
ATOM     24  H   UNL     1       0.887  -0.629  24.930  0.00  0.00    +0.211 HD
ENDBRANCH  20   3
ENDBRANCH  19  20
ENDBRANCH  13  17
ENDBRANCH   6  13
TORSDOF 7
ENDMDL
MODEL 2
REMARK VINA RESULT:      -5.1      1.565      1.995
REMARK  Name = 56775508
REMARK  9 active torsions:
REMARK  status: ('A' for Active; 'I' for Inactive)
REMARK    1  A    between atoms: O_3  and  C_20
REMARK    2  A    between atoms: N_4  and  C_6
REMARK    3  A    between atoms: N_4  and  C_8
REMARK    4  A    between atoms: C_6  and  C_13
REMARK    5  A    between atoms: C_7  and  C_8
REMARK    6  A    between atoms: C_13  and  C_17
REMARK    7  A    between atoms: C_19  and  C_20
REMARK    8  A    between atoms: C_20  and  C_21
REMARK    9  A    between atoms: C_20  and  C_22
REMARK                            x       y       z     vdW  Elec       q    Type
REMARK                         _______ _______ _______ _____ _____    ______ ____
ROOT
ATOM      1  O   UNL     1      -2.722   4.812  24.723  0.00  0.00    -0.376 OA
ATOM      6  C   UNL     1      -2.334   2.728  24.977  0.00  0.00    +0.072 C 
ATOM      9  C   UNL     1      -3.174   3.803  25.656  0.00  0.00    +0.184 C 
ATOM     10  C   UNL     1      -1.978   3.822  23.976  0.00  0.00    +0.184 C 
ENDROOT
BRANCH   6   4
ATOM      4  N   UNL     1      -3.232   1.767  24.327  0.00  0.00    -0.306 NA
ATOM     23  H   UNL     1      -3.733   2.126  23.515  0.00  0.00    +0.123 HD
BRANCH   4   8
ATOM      8  C   UNL     1      -4.180   1.251  25.304  0.00  0.00    +0.085 C 
BRANCH   8   7
ATOM      7  C   UNL     1      -4.301  -0.268  25.194  0.00  0.00    +0.003 C 
ATOM     11  C   UNL     1      -3.209  -0.959  26.022  0.00  0.00    +0.005 C 
ATOM     12  C   UNL     1      -4.237  -0.711  23.726  0.00  0.00    +0.005 C 
ATOM     14  C   UNL     1      -3.276  -2.479  25.886  0.00  0.00    +0.000 C 
ATOM     15  C   UNL     1      -4.302  -2.231  23.594  0.00  0.00    +0.000 C 
ATOM     16  C   UNL     1      -3.222  -2.916  24.425  0.00  0.00    +0.000 C 
ENDBRANCH   8   7
ENDBRANCH   4   8
ENDBRANCH   6   4
BRANCH   6  13
ATOM     13  C   UNL     1      -1.234   2.068  25.751  0.00  0.00    +0.085 C 
BRANCH  13  17
ATOM      2  O   UNL     1       0.227  -0.443  23.603  0.00  0.00    -0.356 OA
ATOM      5  N   UNL     1      -0.799   0.047  24.401  0.00  0.00    -0.083 NA
ATOM     17  C   UNL     1      -0.362   1.231  24.839  0.00  0.00    +0.086 A 
ATOM     18  C   UNL     1       0.921   1.539  24.354  0.00  0.00    +0.074 A 
ATOM     19  C   UNL     1       1.246   0.454  23.582  0.00  0.00    +0.168 A 
BRANCH  19  20
ATOM     20  C   UNL     1       2.421   0.093  22.780  0.00  0.00    +0.120 C 
ATOM     21  C   UNL     1       3.454   1.251  22.661  0.00  0.00    +0.049 C 
ATOM     22  C   UNL     1       2.052  -0.384  21.344  0.00  0.00    +0.049 C 
BRANCH  20   3
ATOM      3  O   UNL     1       3.171  -1.012  23.354  0.00  0.00    -0.381 OA
ATOM     24  H   UNL     1       3.377  -1.643  22.644  0.00  0.00    +0.211 HD
ENDBRANCH  20   3
ENDBRANCH  19  20
ENDBRANCH  13  17
ENDBRANCH   6  13
TORSDOF 7
ENDMDL
MODEL 3
REMARK VINA RESULT:      -4.9      1.415      5.123
REMARK  Name = 56775508
REMARK  9 active torsions:
REMARK  status: ('A' for Active; 'I' for Inactive)
REMARK    1  A    between atoms: O_3  and  C_20
REMARK    2  A    between atoms: N_4  and  C_6
REMARK    3  A    between atoms: N_4  and  C_8
REMARK    4  A    between atoms: C_6  and  C_13
REMARK    5  A    between atoms: C_7  and  C_8
REMARK    6  A    between atoms: C_13  and  C_17
REMARK    7  A    between atoms: C_19  and  C_20
REMARK    8  A    between atoms: C_20  and  C_21
REMARK    9  A    between atoms: C_20  and  C_22
REMARK                            x       y       z     vdW  Elec       q    Type
REMARK                         _______ _______ _______ _____ _____    ______ ____
ROOT
ATOM      1  O   UNL     1       1.170   0.417  23.000  0.00  0.00    -0.376 OA
ATOM      6  C   UNL     1      -0.168   1.531  24.235  0.00  0.00    +0.072 C 
ATOM      9  C   UNL     1      -0.267   0.561  23.064  0.00  0.00    +0.184 C 
ATOM     10  C   UNL     1       1.330   1.255  24.168  0.00  0.00    +0.184 C 
ENDROOT
BRANCH   6   4
ATOM      4  N   UNL     1      -0.714   0.884  25.433  0.00  0.00    -0.306 NA
ATOM     23  H   UNL     1      -0.283   1.168  26.312  0.00  0.00    +0.123 HD
BRANCH   4   8
ATOM      8  C   UNL     1      -0.627  -0.562  25.285  0.00  0.00    +0.085 C 
BRANCH   8   7
ATOM      7  C   UNL     1      -2.019  -1.191  25.261  0.00  0.00    +0.003 C 
ATOM     11  C   UNL     1      -1.989  -2.543  24.535  0.00  0.00    +0.005 C 
ATOM     12  C   UNL     1      -3.031  -0.240  24.607  0.00  0.00    +0.005 C 
ATOM     14  C   UNL     1      -3.380  -3.167  24.450  0.00  0.00    +0.000 C 
ATOM     15  C   UNL     1      -4.419  -0.869  24.522  0.00  0.00    +0.000 C 
ATOM     16  C   UNL     1      -4.386  -2.216  23.808  0.00  0.00    +0.000 C 
ENDBRANCH   8   7
ENDBRANCH   4   8
ENDBRANCH   6   4
BRANCH   6  13
ATOM     13  C   UNL     1      -0.654   2.937  24.058  0.00  0.00    +0.085 C 
BRANCH  13  17
ATOM      2  O   UNL     1      -3.312   3.773  26.358  0.00  0.00    -0.356 OA
ATOM      5  N   UNL     1      -1.974   3.736  25.985  0.00  0.00    -0.083 NA
ATOM     17  C   UNL     1      -1.966   3.148  24.785  0.00  0.00    +0.086 A 
ATOM     18  C   UNL     1      -3.256   2.796  24.354  0.00  0.00    +0.074 A 
ATOM     19  C   UNL     1      -4.066   3.210  25.379  0.00  0.00    +0.168 A 
BRANCH  19  20
ATOM     20  C   UNL     1      -5.514   3.165  25.611  0.00  0.00    +0.120 C 
ATOM     21  C   UNL     1      -6.246   2.145  24.690  0.00  0.00    +0.049 C 
ATOM     22  C   UNL     1      -6.199   4.553  25.445  0.00  0.00    +0.049 C 
BRANCH  20   3
ATOM      3  O   UNL     1      -5.851   2.747  26.963  0.00  0.00    -0.381 OA
ATOM     24  H   UNL     1      -6.809   2.589  27.003  0.00  0.00    +0.211 HD
ENDBRANCH  20   3
ENDBRANCH  19  20
ENDBRANCH  13  17
ENDBRANCH   6  13
TORSDOF 7
ENDMDL
MODEL 4
REMARK VINA RESULT:      -4.7      2.248      6.166
REMARK  Name = 56775508
REMARK  9 active torsions:
REMARK  status: ('A' for Active; 'I' for Inactive)
REMARK    1  A    between atoms: O_3  and  C_20
REMARK    2  A    between atoms: N_4  and  C_6
REMARK    3  A    between atoms: N_4  and  C_8
REMARK    4  A    between atoms: C_6  and  C_13
REMARK    5  A    between atoms: C_7  and  C_8
REMARK    6  A    between atoms: C_13  and  C_17
REMARK    7  A    between atoms: C_19  and  C_20
REMARK    8  A    between atoms: C_20  and  C_21
REMARK    9  A    between atoms: C_20  and  C_22
REMARK                            x       y       z     vdW  Elec       q    Type
REMARK                         _______ _______ _______ _____ _____    ______ ____
ROOT
ATOM      1  O   UNL     1      -1.250  -2.516  24.991  0.00  0.00    -0.376 OA
ATOM      6  C   UNL     1      -1.246  -0.411  24.634  0.00  0.00    +0.072 C 
ATOM      9  C   UNL     1      -2.161  -1.436  25.295  0.00  0.00    +0.184 C 
ATOM     10  C   UNL     1      -0.294  -1.586  24.434  0.00  0.00    +0.184 C 
ENDROOT
BRANCH   6   4
ATOM      4  N   UNL     1      -0.697   0.471  25.670  0.00  0.00    -0.306 NA
ATOM     23  H   UNL     1      -1.391   0.916  26.269  0.00  0.00    +0.123 HD
BRANCH   4   8
ATOM      8  C   UNL     1       0.144   1.483  25.049  0.00  0.00    +0.085 C 
BRANCH   8   7
ATOM      7  C   UNL     1      -0.303   2.886  25.457  0.00  0.00    +0.003 C 
ATOM     11  C   UNL     1      -1.692   2.844  26.108  0.00  0.00    +0.005 C 
ATOM     12  C   UNL     1      -0.294   3.830  24.247  0.00  0.00    +0.005 C 
ATOM     14  C   UNL     1      -2.184   4.242  26.476  0.00  0.00    +0.000 C 
ATOM     15  C   UNL     1      -0.789   5.226  24.618  0.00  0.00    +0.000 C 
ATOM     16  C   UNL     1      -2.166   5.180  25.273  0.00  0.00    +0.000 C 
ENDBRANCH   8   7
ENDBRANCH   4   8
ENDBRANCH   6   4
BRANCH   6  13
ATOM     13  C   UNL     1      -1.739   0.334  23.432  0.00  0.00    +0.085 C 
BRANCH  13  17
ATOM      2  O   UNL     1      -4.351   2.818  23.685  0.00  0.00    -0.356 OA
ATOM      5  N   UNL     1      -3.176   2.320  23.136  0.00  0.00    -0.083 NA
ATOM     17  C   UNL     1      -2.954   1.169  23.778  0.00  0.00    +0.086 A 
ATOM     18  C   UNL     1      -3.946   0.892  24.734  0.00  0.00    +0.074 A 
ATOM     19  C   UNL     1      -4.800   1.959  24.636  0.00  0.00    +0.168 A 
BRANCH  19  20
ATOM     20  C   UNL     1      -6.041   2.333  25.324  0.00  0.00    +0.120 C 
ATOM     21  C   UNL     1      -6.174   3.869  25.544  0.00  0.00    +0.049 C 
ATOM     22  C   UNL     1      -6.211   1.624  26.699  0.00  0.00    +0.049 C 
BRANCH  20   3
ATOM      3  O   UNL     1      -7.230   1.966  24.571  0.00  0.00    -0.381 OA
ATOM     24  H   UNL     1      -8.010   2.191  25.105  0.00  0.00    +0.211 HD
ENDBRANCH  20   3
ENDBRANCH  19  20
ENDBRANCH  13  17
ENDBRANCH   6  13
TORSDOF 7
ENDMDL
MODEL 5
REMARK VINA RESULT:      -4.6      2.369      4.856
REMARK  Name = 56775508
REMARK  9 active torsions:
REMARK  status: ('A' for Active; 'I' for Inactive)
REMARK    1  A    between atoms: O_3  and  C_20
REMARK    2  A    between atoms: N_4  and  C_6
REMARK    3  A    between atoms: N_4  and  C_8
REMARK    4  A    between atoms: C_6  and  C_13
REMARK    5  A    between atoms: C_7  and  C_8
REMARK    6  A    between atoms: C_13  and  C_17
REMARK    7  A    between atoms: C_19  and  C_20
REMARK    8  A    between atoms: C_20  and  C_21
REMARK    9  A    between atoms: C_20  and  C_22
REMARK                            x       y       z     vdW  Elec       q    Type
REMARK                         _______ _______ _______ _____ _____    ______ ____
ROOT
ATOM      1  O   UNL     1      -3.931  -3.629  25.024  0.00  0.00    -0.376 OA
ATOM      6  C   UNL     1      -2.676  -2.061  24.302  0.00  0.00    +0.072 C 
ATOM      9  C   UNL     1      -3.300  -3.340  23.756  0.00  0.00    +0.184 C 
ATOM     10  C   UNL     1      -3.449  -2.383  25.577  0.00  0.00    +0.184 C 
ENDROOT
BRANCH   6   4
ATOM      4  N   UNL     1      -3.306  -0.910  23.646  0.00  0.00    -0.306 NA
ATOM     23  H   UNL     1      -2.673  -0.147  23.409  0.00  0.00    +0.123 HD
BRANCH   4   8
ATOM      8  C   UNL     1      -4.391  -0.412  24.478  0.00  0.00    +0.085 C 
BRANCH   8   7
ATOM      7  C   UNL     1      -4.162   1.051  24.853  0.00  0.00    +0.003 C 
ATOM     11  C   UNL     1      -5.437   1.665  25.445  0.00  0.00    +0.005 C 
ATOM     12  C   UNL     1      -3.683   1.853  23.635  0.00  0.00    +0.005 C 
ATOM     14  C   UNL     1      -5.249   3.143  25.779  0.00  0.00    +0.000 C 
ATOM     15  C   UNL     1      -3.498   3.331  23.972  0.00  0.00    +0.000 C 
ATOM     16  C   UNL     1      -4.765   3.936  24.569  0.00  0.00    +0.000 C 
ENDBRANCH   8   7
ENDBRANCH   4   8
ENDBRANCH   6   4
BRANCH   6  13
ATOM     13  C   UNL     1      -1.184  -1.950  24.368  0.00  0.00    +0.085 C 
BRANCH  13  17
ATOM      2  O   UNL     1       0.151   1.384  23.974  0.00  0.00    -0.356 OA
ATOM      5  N   UNL     1      -0.075   0.089  23.526  0.00  0.00    -0.083 NA
ATOM     17  C   UNL     1      -0.756  -0.505  24.510  0.00  0.00    +0.086 A 
ATOM     18  C   UNL     1      -0.987   0.359  25.595  0.00  0.00    +0.074 A 
ATOM     19  C   UNL     1      -0.397   1.533  25.207  0.00  0.00    +0.168 A 
BRANCH  19  20
ATOM     20  C   UNL     1      -0.250   2.852  25.835  0.00  0.00    +0.120 C 
ATOM     21  C   UNL     1      -1.502   3.275  26.659  0.00  0.00    +0.049 C 
ATOM     22  C   UNL     1       0.066   3.980  24.810  0.00  0.00    +0.049 C 
BRANCH  20   3
ATOM      3  O   UNL     1       0.849   2.899  26.785  0.00  0.00    -0.381 OA
ATOM     24  H   UNL     1       0.476   2.888  27.683  0.00  0.00    +0.211 HD
ENDBRANCH  20   3
ENDBRANCH  19  20
ENDBRANCH  13  17
ENDBRANCH   6  13
TORSDOF 7
ENDMDL
MODEL 6
REMARK VINA RESULT:      -4.4      2.120      4.153
REMARK  Name = 56775508
REMARK  9 active torsions:
REMARK  status: ('A' for Active; 'I' for Inactive)
REMARK    1  A    between atoms: O_3  and  C_20
REMARK    2  A    between atoms: N_4  and  C_6
REMARK    3  A    between atoms: N_4  and  C_8
REMARK    4  A    between atoms: C_6  and  C_13
REMARK    5  A    between atoms: C_7  and  C_8
REMARK    6  A    between atoms: C_13  and  C_17
REMARK    7  A    between atoms: C_19  and  C_20
REMARK    8  A    between atoms: C_20  and  C_21
REMARK    9  A    between atoms: C_20  and  C_22
REMARK                            x       y       z     vdW  Elec       q    Type
REMARK                         _______ _______ _______ _____ _____    ______ ____
ROOT
ATOM      1  O   UNL     1      -6.594   3.915  26.015  0.00  0.00    -0.376 OA
ATOM      6  C   UNL     1      -4.615   3.722  25.240  0.00  0.00    +0.072 C 
ATOM      9  C   UNL     1      -5.663   4.820  25.379  0.00  0.00    +0.184 C 
ATOM     10  C   UNL     1      -5.612   2.854  26.000  0.00  0.00    +0.184 C 
ENDROOT
BRANCH   6   4
ATOM      4  N   UNL     1      -3.486   4.030  26.126  0.00  0.00    -0.306 NA
ATOM     23  H   UNL     1      -3.732   4.529  26.980  0.00  0.00    +0.123 HD
BRANCH   4   8
ATOM      8  C   UNL     1      -2.481   4.780  25.387  0.00  0.00    +0.085 C 
BRANCH   8   7
ATOM      7  C   UNL     1      -1.144   4.040  25.383  0.00  0.00    +0.003 C 
ATOM     11  C   UNL     1      -0.709   3.716  23.948  0.00  0.00    +0.005 C 
ATOM     12  C   UNL     1      -1.231   2.763  26.230  0.00  0.00    +0.005 C 
ATOM     14  C   UNL     1       0.599   2.929  23.920  0.00  0.00    +0.000 C 
ATOM     15  C   UNL     1       0.078   1.977  26.198  0.00  0.00    +0.000 C 
ATOM     16  C   UNL     1       0.513   1.664  24.770  0.00  0.00    +0.000 C 
ENDBRANCH   8   7
ENDBRANCH   4   8
ENDBRANCH   6   4
BRANCH   6  13
ATOM     13  C   UNL     1      -4.183   3.299  23.869  0.00  0.00    +0.085 C 
BRANCH  13  17
ATOM      2  O   UNL     1      -2.431   0.187  23.319  0.00  0.00    -0.356 OA
ATOM      5  N   UNL     1      -2.679   1.525  23.039  0.00  0.00    -0.083 NA
ATOM     17  C   UNL     1      -3.649   1.882  23.887  0.00  0.00    +0.086 A 
ATOM     18  C   UNL     1      -4.048   0.821  24.718  0.00  0.00    +0.074 A 
ATOM     19  C   UNL     1      -3.252  -0.221  24.320  0.00  0.00    +0.168 A 
BRANCH  19  20
ATOM     20  C   UNL     1      -3.122  -1.620  24.745  0.00  0.00    +0.120 C 
ATOM     21  C   UNL     1      -1.669  -2.163  24.610  0.00  0.00    +0.049 C 
ATOM     22  C   UNL     1      -4.077  -2.580  23.976  0.00  0.00    +0.049 C 
BRANCH  20   3
ATOM      3  O   UNL     1      -3.457  -1.811  26.147  0.00  0.00    -0.381 OA
ATOM     24  H   UNL     1      -2.633  -1.976  26.637  0.00  0.00    +0.211 HD
ENDBRANCH  20   3
ENDBRANCH  19  20
ENDBRANCH  13  17
ENDBRANCH   6  13
TORSDOF 7
ENDMDL
MODEL 7
REMARK VINA RESULT:      -4.3      2.307      4.361
REMARK  Name = 56775508
REMARK  9 active torsions:
REMARK  status: ('A' for Active; 'I' for Inactive)
REMARK    1  A    between atoms: O_3  and  C_20
REMARK    2  A    between atoms: N_4  and  C_6
REMARK    3  A    between atoms: N_4  and  C_8
REMARK    4  A    between atoms: C_6  and  C_13
REMARK    5  A    between atoms: C_7  and  C_8
REMARK    6  A    between atoms: C_13  and  C_17
REMARK    7  A    between atoms: C_19  and  C_20
REMARK    8  A    between atoms: C_20  and  C_21
REMARK    9  A    between atoms: C_20  and  C_22
REMARK                            x       y       z     vdW  Elec       q    Type
REMARK                         _______ _______ _______ _____ _____    ______ ____
ROOT
ATOM      1  O   UNL     1      -0.463   5.538  24.754  0.00  0.00    -0.376 OA
ATOM      6  C   UNL     1      -1.102   3.502  24.832  0.00  0.00    +0.072 C 
ATOM      9  C   UNL     1      -1.526   4.836  25.438  0.00  0.00    +0.184 C 
ATOM     10  C   UNL     1      -0.068   4.326  24.072  0.00  0.00    +0.184 C 
ENDROOT
BRANCH   6   4
ATOM      4  N   UNL     1      -2.138   3.060  23.892  0.00  0.00    -0.306 NA
ATOM     23  H   UNL     1      -1.829   2.956  22.926  0.00  0.00    +0.123 HD
BRANCH   4   8
ATOM      8  C   UNL     1      -3.270   3.975  23.952  0.00  0.00    +0.085 C 
BRANCH   8   7
ATOM      7  C   UNL     1      -4.544   3.237  24.360  0.00  0.00    +0.003 C 
ATOM     11  C   UNL     1      -4.908   3.552  25.817  0.00  0.00    +0.005 C 
ATOM     12  C   UNL     1      -4.385   1.725  24.150  0.00  0.00    +0.005 C 
ATOM     14  C   UNL     1      -6.149   2.784  26.266  0.00  0.00    +0.000 C 
ATOM     15  C   UNL     1      -5.626   0.960  24.602  0.00  0.00    +0.000 C 
ATOM     16  C   UNL     1      -5.991   1.282  26.048  0.00  0.00    +0.000 C 
ENDBRANCH   8   7
ENDBRANCH   4   8
ENDBRANCH   6   4
BRANCH   6  13
ATOM     13  C   UNL     1      -0.632   2.408  25.740  0.00  0.00    +0.085 C 
BRANCH  13  17
ATOM      2  O   UNL     1      -0.875  -0.719  23.946  0.00  0.00    -0.356 OA
ATOM      5  N   UNL     1      -0.267   0.501  24.215  0.00  0.00    -0.083 NA
ATOM     17  C   UNL     1      -1.005   1.050  25.184  0.00  0.00    +0.086 A 
ATOM     18  C   UNL     1      -2.082   0.230  25.564  0.00  0.00    +0.074 A 
ATOM     19  C   UNL     1      -1.955  -0.869  24.756  0.00  0.00    +0.168 A 
BRANCH  19  20
ATOM     20  C   UNL     1      -2.720  -2.112  24.604  0.00  0.00    +0.120 C 
ATOM     21  C   UNL     1      -3.976  -1.946  23.699  0.00  0.00    +0.049 C 
ATOM     22  C   UNL     1      -3.173  -2.717  25.965  0.00  0.00    +0.049 C 
BRANCH  20   3
ATOM      3  O   UNL     1      -1.948  -3.169  23.970  0.00  0.00    -0.381 OA
ATOM     24  H   UNL     1      -2.014  -3.967  24.521  0.00  0.00    +0.211 HD
ENDBRANCH  20   3
ENDBRANCH  19  20
ENDBRANCH  13  17
ENDBRANCH   6  13
TORSDOF 7
ENDMDL
MODEL 8
REMARK VINA RESULT:      -4.2      2.118      4.414
REMARK  Name = 56775508
REMARK  9 active torsions:
REMARK  status: ('A' for Active; 'I' for Inactive)
REMARK    1  A    between atoms: O_3  and  C_20
REMARK    2  A    between atoms: N_4  and  C_6
REMARK    3  A    between atoms: N_4  and  C_8
REMARK    4  A    between atoms: C_6  and  C_13
REMARK    5  A    between atoms: C_7  and  C_8
REMARK    6  A    between atoms: C_13  and  C_17
REMARK    7  A    between atoms: C_19  and  C_20
REMARK    8  A    between atoms: C_20  and  C_21
REMARK    9  A    between atoms: C_20  and  C_22
REMARK                            x       y       z     vdW  Elec       q    Type
REMARK                         _______ _______ _______ _____ _____    ______ ____
ROOT
ATOM      1  O   UNL     1      -3.281  -3.295  24.995  0.00  0.00    -0.376 OA
ATOM      6  C   UNL     1      -2.628  -1.270  24.817  0.00  0.00    +0.072 C 
ATOM      9  C   UNL     1      -2.244  -2.627  24.240  0.00  0.00    +0.184 C 
ATOM     10  C   UNL     1      -3.757  -2.029  25.507  0.00  0.00    +0.184 C 
ENDROOT
BRANCH   6   4
ATOM      4  N   UNL     1      -3.199  -0.445  23.746  0.00  0.00    -0.306 NA
ATOM     23  H   UNL     1      -2.605   0.319  23.426  0.00  0.00    +0.123 HD
BRANCH   4   8
ATOM      8  C   UNL     1      -4.490   0.075  24.170  0.00  0.00    +0.085 C 
BRANCH   8   7
ATOM      7  C   UNL     1      -4.331   1.429  24.860  0.00  0.00    +0.003 C 
ATOM     11  C   UNL     1      -5.702   2.060  25.137  0.00  0.00    +0.005 C 
ATOM     12  C   UNL     1      -3.458   2.367  24.015  0.00  0.00    +0.005 C 
ATOM     14  C   UNL     1      -5.569   3.439  25.777  0.00  0.00    +0.000 C 
ATOM     15  C   UNL     1      -3.329   3.746  24.657  0.00  0.00    +0.000 C 
ATOM     16  C   UNL     1      -4.693   4.366  24.940  0.00  0.00    +0.000 C 
ENDBRANCH   8   7
ENDBRANCH   4   8
ENDBRANCH   6   4
BRANCH   6  13
ATOM     13  C   UNL     1      -1.633  -0.529  25.657  0.00  0.00    +0.085 C 
BRANCH  13  17
ATOM      2  O   UNL     1       0.784   1.423  23.813  0.00  0.00    -0.356 OA
ATOM      5  N   UNL     1      -0.340   1.301  24.621  0.00  0.00    -0.083 NA
ATOM     17  C   UNL     1      -0.490  -0.014  24.808  0.00  0.00    +0.086 A 
ATOM     18  C   UNL     1       0.499  -0.763  24.149  0.00  0.00    +0.074 A 
ATOM     19  C   UNL     1       1.275   0.187  23.538  0.00  0.00    +0.168 A 
BRANCH  19  20
ATOM     20  C   UNL     1       2.470   0.131  22.689  0.00  0.00    +0.120 C 
ATOM     21  C   UNL     1       3.413  -1.057  23.044  0.00  0.00    +0.049 C 
ATOM     22  C   UNL     1       3.303   1.445  22.725  0.00  0.00    +0.049 C 
BRANCH  20   3
ATOM      3  O   UNL     1       2.148  -0.063  21.284  0.00  0.00    -0.381 OA
ATOM     24  H   UNL     1       1.497   0.610  21.025  0.00  0.00    +0.211 HD
ENDBRANCH  20   3
ENDBRANCH  19  20
ENDBRANCH  13  17
ENDBRANCH   6  13
TORSDOF 7
ENDMDL
MODEL 9
REMARK VINA RESULT:      -4.1      2.171      5.427
REMARK  Name = 56775508
REMARK  9 active torsions:
REMARK  status: ('A' for Active; 'I' for Inactive)
REMARK    1  A    between atoms: O_3  and  C_20
REMARK    2  A    between atoms: N_4  and  C_6
REMARK    3  A    between atoms: N_4  and  C_8
REMARK    4  A    between atoms: C_6  and  C_13
REMARK    5  A    between atoms: C_7  and  C_8
REMARK    6  A    between atoms: C_13  and  C_17
REMARK    7  A    between atoms: C_19  and  C_20
REMARK    8  A    between atoms: C_20  and  C_21
REMARK    9  A    between atoms: C_20  and  C_22
REMARK                            x       y       z     vdW  Elec       q    Type
REMARK                         _______ _______ _______ _____ _____    ______ ____
ROOT
ATOM      1  O   UNL     1      -3.456  -3.451  25.799  0.00  0.00    -0.376 OA
ATOM      6  C   UNL     1      -3.227  -1.890  24.360  0.00  0.00    +0.072 C 
ATOM      9  C   UNL     1      -3.249  -2.023  25.879  0.00  0.00    +0.184 C 
ATOM     10  C   UNL     1      -3.351  -3.410  24.357  0.00  0.00    +0.184 C 
ENDROOT
BRANCH   6   4
ATOM      4  N   UNL     1      -1.869  -1.526  23.938  0.00  0.00    -0.306 NA
ATOM     23  H   UNL     1      -1.458  -2.139  23.234  0.00  0.00    +0.123 HD
BRANCH   4   8
ATOM      8  C   UNL     1      -1.001  -1.458  25.103  0.00  0.00    +0.085 C 
BRANCH   8   7
ATOM      7  C   UNL     1      -0.224  -0.143  25.127  0.00  0.00    +0.003 C 
ATOM     11  C   UNL     1      -0.979   0.917  25.940  0.00  0.00    +0.005 C 
ATOM     12  C   UNL     1       0.046   0.352  23.699  0.00  0.00    +0.005 C 
ATOM     14  C   UNL     1      -0.249   2.258  25.934  0.00  0.00    +0.000 C 
ATOM     15  C   UNL     1       0.774   1.694  23.697  0.00  0.00    +0.000 C 
ATOM     16  C   UNL     1       0.025   2.743  24.513  0.00  0.00    +0.000 C 
ENDBRANCH   8   7
ENDBRANCH   4   8
ENDBRANCH   6   4
BRANCH   6  13
ATOM     13  C   UNL     1      -4.287  -1.075  23.686  0.00  0.00    +0.085 C 
BRANCH  13  17
ATOM      2  O   UNL     1      -3.153   2.350  23.501  0.00  0.00    -0.356 OA
ATOM      5  N   UNL     1      -3.150   1.029  23.072  0.00  0.00    -0.083 NA
ATOM     17  C   UNL     1      -4.025   0.405  23.868  0.00  0.00    +0.086 A 
ATOM     18  C   UNL     1      -4.604   1.274  24.808  0.00  0.00    +0.074 A 
ATOM     19  C   UNL     1      -4.022   2.484  24.536  0.00  0.00    +0.168 A 
BRANCH  19  20
ATOM     20  C   UNL     1      -4.150   3.826  25.116  0.00  0.00    +0.120 C 
ATOM     21  C   UNL     1      -3.123   4.097  26.254  0.00  0.00    +0.049 C 
ATOM     22  C   UNL     1      -5.577   4.117  25.664  0.00  0.00    +0.049 C 
BRANCH  20   3
ATOM      3  O   UNL     1      -3.907   4.880  24.143  0.00  0.00    -0.381 OA
ATOM     24  H   UNL     1      -4.742   5.354  23.993  0.00  0.00    +0.211 HD
ENDBRANCH  20   3
ENDBRANCH  19  20
ENDBRANCH  13  17
ENDBRANCH   6  13
TORSDOF 7
ENDMDL
MODEL 10
REMARK VINA RESULT:      -4.0      2.296      6.364
REMARK  Name = 56775508
REMARK  9 active torsions:
REMARK  status: ('A' for Active; 'I' for Inactive)
REMARK    1  A    between atoms: O_3  and  C_20
REMARK    2  A    between atoms: N_4  and  C_6
REMARK    3  A    between atoms: N_4  and  C_8
REMARK    4  A    between atoms: C_6  and  C_13
REMARK    5  A    between atoms: C_7  and  C_8
REMARK    6  A    between atoms: C_13  and  C_17
REMARK    7  A    between atoms: C_19  and  C_20
REMARK    8  A    between atoms: C_20  and  C_21
REMARK    9  A    between atoms: C_20  and  C_22
REMARK                            x       y       z     vdW  Elec       q    Type
REMARK                         _______ _______ _______ _____ _____    ______ ____
ROOT
ATOM      1  O   UNL     1      -0.158   1.897  26.016  0.00  0.00    -0.376 OA
ATOM      6  C   UNL     1      -0.371   0.736  24.237  0.00  0.00    +0.072 C 
ATOM      9  C   UNL     1       0.339   2.016  24.663  0.00  0.00    +0.184 C 
ATOM     10  C   UNL     1      -0.777   0.628  25.703  0.00  0.00    +0.184 C 
ENDROOT
BRANCH   6   4
ATOM      4  N   UNL     1       0.638  -0.290  23.950  0.00  0.00    -0.306 NA
ATOM     23  H   UNL     1       1.389  -0.361  24.635  0.00  0.00    +0.123 HD
BRANCH   4   8
ATOM      8  C   UNL     1       1.197  -0.063  22.625  0.00  0.00    +0.085 C 
BRANCH   8   7
ATOM      7  C   UNL     1       2.713  -0.250  22.635  0.00  0.00    +0.003 C 
ATOM     11  C   UNL     1       3.122  -1.299  23.679  0.00  0.00    +0.005 C 
ATOM     12  C   UNL     1       3.422   1.086  22.896  0.00  0.00    +0.005 C 
ATOM     14  C   UNL     1       4.639  -1.465  23.746  0.00  0.00    +0.000 C 
ATOM     15  C   UNL     1       4.937   0.916  22.964  0.00  0.00    +0.000 C 
ATOM     16  C   UNL     1       5.340  -0.134  23.996  0.00  0.00    +0.000 C 
ENDBRANCH   8   7
ENDBRANCH   4   8
ENDBRANCH   6   4
BRANCH   6  13
ATOM     13  C   UNL     1      -1.441   0.812  23.192  0.00  0.00    +0.085 C 
BRANCH  13  17
ATOM      2  O   UNL     1      -4.705   0.232  24.629  0.00  0.00    -0.356 OA
ATOM      5  N   UNL     1      -3.525  -0.205  24.039  0.00  0.00    -0.083 NA
ATOM     17  C   UNL     1      -2.811   0.905  23.830  0.00  0.00    +0.086 A 
ATOM     18  C   UNL     1      -3.482   2.061  24.263  0.00  0.00    +0.074 A 
ATOM     19  C   UNL     1      -4.668   1.584  24.757  0.00  0.00    +0.168 A 
BRANCH  19  20
ATOM     20  C   UNL     1      -5.844   2.216  25.365  0.00  0.00    +0.120 C 
ATOM     21  C   UNL     1      -5.693   3.759  25.519  0.00  0.00    +0.049 C 
ATOM     22  C   UNL     1      -6.204   1.618  26.757  0.00  0.00    +0.049 C 
BRANCH  20   3
ATOM      3  O   UNL     1      -7.047   2.043  24.567  0.00  0.00    -0.381 OA
ATOM     24  H   UNL     1      -6.923   2.511  23.723  0.00  0.00    +0.211 HD
ENDBRANCH  20   3
ENDBRANCH  19  20
ENDBRANCH  13  17
ENDBRANCH   6  13
TORSDOF 7
ENDMDL
