MODEL 1
REMARK VINA RESULT:       1.6      0.000      0.000
REMARK  Name = 11867158
REMARK  6 active torsions:
REMARK  status: ('A' for Active; 'I' for Inactive)
REMARK    1  A    between atoms: S_1  and  N_10
REMARK    2  A    between atoms: S_1  and  C_24
REMARK    3  A    between atoms: O_4  and  C_23
REMARK    4  A    between atoms: N_10  and  C_21
REMARK    5  A    between atoms: C_20  and  C_23
REMARK    6  A    between atoms: C_29  and  C_30
REMARK                            x       y       z     vdW  Elec       q    Type
REMARK                         _______ _______ _______ _____ _____    ______ ____
ROOT
ATOM      2  O   UNL     1      -0.240   1.329  26.599  0.00  0.00    -0.266 OA
ATOM      3  O   UNL     1      -5.471   1.168  24.619  0.00  0.00    -0.263 OA
ATOM      8  N   UNL     1      -1.449   2.625  25.067  0.00  0.00    -0.310 N 
ATOM      9  N   UNL     1      -4.592   3.309  24.948  0.00  0.00    -0.291 N 
ATOM     11  C   UNL     1      -2.701   4.757  25.722  0.00  0.00    +0.027 C 
ATOM     12  C   UNL     1      -2.765   3.974  23.393  0.00  0.00    +0.054 C 
ATOM     13  C   UNL     1      -2.461   5.180  24.279  0.00  0.00    +0.018 C 
ATOM     14  C   UNL     1      -1.705   3.649  26.086  0.00  0.00    +0.130 C 
ATOM     15  C   UNL     1      -4.161   4.308  25.927  0.00  0.00    +0.113 C 
ATOM     16  C   UNL     1      -4.244   3.584  23.552  0.00  0.00    +0.118 C 
ATOM     17  C   UNL     1      -1.878   2.793  23.744  0.00  0.00    +0.027 A 
ATOM     18  C   UNL     1      -1.532   1.902  22.797  0.00  0.00    +0.024 A 
ATOM     19  C   UNL     1      -0.660   1.523  25.460  0.00  0.00    +0.274 A 
ATOM     20  C   UNL     1      -5.401   2.217  25.249  0.00  0.00    +0.324 C 
ATOM     21  C   UNL     1      -0.332   0.563  24.377  0.00  0.00    +0.112 A 
ATOM     22  C   UNL     1      -0.735   0.750  23.119  0.00  0.00    +0.031 A 
ENDROOT
BRANCH  20  23
ATOM      5  O   UNL     1      -6.513   1.186  27.070  0.00  0.00    -0.240 OA
ATOM     23  C   UNL     1      -6.327   2.188  26.410  0.00  0.00    +0.392 C 
BRANCH  23   4
ATOM      4  O   UNL     1      -6.871   3.401  26.572  0.00  0.00    -0.474 OA
ATOM     32  H   UNL     1      -6.688   3.775  27.460  0.00  0.00    +0.296 HD
ENDBRANCH  23   4
ENDBRANCH  20  23
BRANCH  21  10
ATOM     10  N   UNL     1       0.441  -0.578  24.652  0.00  0.00    -0.211 N 
ATOM     31  H   UNL     1       0.847  -1.000  23.805  0.00  0.00    +0.174 HD
BRANCH  10   1
ATOM      1  S   UNL     1      -0.195  -1.691  25.757  0.00  0.00    +0.072 S 
ATOM      6  O   UNL     1       0.570  -2.922  25.707  0.00  0.00    -0.150 OA
ATOM      7  O   UNL     1      -0.439  -1.033  27.027  0.00  0.00    -0.150 OA
BRANCH   1  24
ATOM     24  C   UNL     1      -1.770  -2.020  25.023  0.00  0.00    +0.109 A 
ATOM     25  C   UNL     1      -2.856  -1.238  25.376  0.00  0.00    +0.029 A 
ATOM     26  C   UNL     1      -1.888  -3.053  24.109  0.00  0.00    +0.029 A 
ATOM     27  C   UNL     1      -4.098  -1.497  24.798  0.00  0.00    +0.005 A 
ATOM     28  C   UNL     1      -3.131  -3.311  23.531  0.00  0.00    +0.005 A 
ATOM     29  C   UNL     1      -4.236  -2.534  23.875  0.00  0.00    -0.050 A 
ATOM     30  C   UNL     1      -5.564  -2.810  23.257  0.00  0.00    +0.044 C 
ENDBRANCH   1  24
ENDBRANCH  10   1
ENDBRANCH  21  10
TORSDOF 5
ENDMDL
MODEL 2
REMARK VINA RESULT:       1.9      1.771      2.335
REMARK  Name = 11867158
REMARK  6 active torsions:
REMARK  status: ('A' for Active; 'I' for Inactive)
REMARK    1  A    between atoms: S_1  and  N_10
REMARK    2  A    between atoms: S_1  and  C_24
REMARK    3  A    between atoms: O_4  and  C_23
REMARK    4  A    between atoms: N_10  and  C_21
REMARK    5  A    between atoms: C_20  and  C_23
REMARK    6  A    between atoms: C_29  and  C_30
REMARK                            x       y       z     vdW  Elec       q    Type
REMARK                         _______ _______ _______ _____ _____    ______ ____
ROOT
ATOM      2  O   UNL     1       0.058   1.563  26.643  0.00  0.00    -0.266 OA
ATOM      3  O   UNL     1      -4.413   1.720  23.281  0.00  0.00    -0.263 OA
ATOM      8  N   UNL     1      -1.197   3.286  25.670  0.00  0.00    -0.310 N 
ATOM      9  N   UNL     1      -4.321   3.402  24.902  0.00  0.00    -0.291 N 
ATOM     11  C   UNL     1      -3.150   4.434  26.860  0.00  0.00    +0.027 C 
ATOM     12  C   UNL     1      -2.543   5.115  24.577  0.00  0.00    +0.054 C 
ATOM     13  C   UNL     1      -2.796   5.634  25.990  0.00  0.00    +0.018 C 
ATOM     14  C   UNL     1      -1.940   3.493  26.919  0.00  0.00    +0.130 C 
ATOM     15  C   UNL     1      -4.408   3.722  26.327  0.00  0.00    +0.113 C 
ATOM     16  C   UNL     1      -3.830   4.473  24.031  0.00  0.00    +0.118 C 
ATOM     17  C   UNL     1      -1.412   4.104  24.554  0.00  0.00    +0.027 A 
ATOM     18  C   UNL     1      -0.639   3.979  23.459  0.00  0.00    +0.024 A 
ATOM     19  C   UNL     1      -0.189   2.299  25.689  0.00  0.00    +0.274 A 
ATOM     20  C   UNL     1      -4.789   2.220  24.335  0.00  0.00    +0.324 C 
ATOM     21  C   UNL     1       0.613   2.193  24.445  0.00  0.00    +0.112 A 
ATOM     22  C   UNL     1       0.406   2.993  23.398  0.00  0.00    +0.031 A 
ENDROOT
BRANCH  20  23
ATOM      5  O   UNL     1      -5.605   0.463  25.699  0.00  0.00    -0.240 OA
ATOM     23  C   UNL     1      -5.853   1.389  24.953  0.00  0.00    +0.392 C 
BRANCH  23   4
ATOM      4  O   UNL     1      -7.051   1.837  24.556  0.00  0.00    -0.474 OA
ATOM     32  H   UNL     1      -7.789   1.341  24.969  0.00  0.00    +0.296 HD
ENDBRANCH  23   4
ENDBRANCH  20  23
BRANCH  21  10
ATOM     10  N   UNL     1       1.641   1.239  24.344  0.00  0.00    -0.211 N 
ATOM     31  H   UNL     1       2.577   1.664  24.285  0.00  0.00    +0.174 HD
BRANCH  10   1
ATOM      1  S   UNL     1       1.388  -0.056  23.283  0.00  0.00    +0.072 S 
ATOM      6  O   UNL     1       1.082   0.449  21.959  0.00  0.00    -0.150 OA
ATOM      7  O   UNL     1       2.433  -1.046  23.465  0.00  0.00    -0.150 OA
BRANCH   1  24
ATOM     24  C   UNL     1      -0.104  -0.737  23.945  0.00  0.00    +0.109 A 
ATOM     25  C   UNL     1      -0.027  -1.792  24.837  0.00  0.00    +0.029 A 
ATOM     26  C   UNL     1      -1.321  -0.203  23.557  0.00  0.00    +0.029 A 
ATOM     27  C   UNL     1      -1.203  -2.330  25.358  0.00  0.00    +0.005 A 
ATOM     28  C   UNL     1      -2.497  -0.741  24.079  0.00  0.00    +0.005 A 
ATOM     29  C   UNL     1      -2.439  -1.805  24.980  0.00  0.00    -0.050 A 
ATOM     30  C   UNL     1      -3.696  -2.380  25.538  0.00  0.00    +0.044 C 
ENDBRANCH   1  24
ENDBRANCH  10   1
ENDBRANCH  21  10
TORSDOF 5
ENDMDL
MODEL 3
REMARK VINA RESULT:       2.9      2.124      5.359
REMARK  Name = 11867158
REMARK  6 active torsions:
REMARK  status: ('A' for Active; 'I' for Inactive)
REMARK    1  A    between atoms: S_1  and  N_10
REMARK    2  A    between atoms: S_1  and  C_24
REMARK    3  A    between atoms: O_4  and  C_23
REMARK    4  A    between atoms: N_10  and  C_21
REMARK    5  A    between atoms: C_20  and  C_23
REMARK    6  A    between atoms: C_29  and  C_30
REMARK                            x       y       z     vdW  Elec       q    Type
REMARK                         _______ _______ _______ _____ _____    ______ ____
ROOT
ATOM      2  O   UNL     1      -3.940   2.971  22.751  0.00  0.00    -0.266 OA
ATOM      3  O   UNL     1      -1.015  -0.235  26.282  0.00  0.00    -0.263 OA
ATOM      8  N   UNL     1      -2.186   3.371  24.252  0.00  0.00    -0.310 N 
ATOM      9  N   UNL     1       0.208   1.444  25.210  0.00  0.00    -0.291 N 
ATOM     11  C   UNL     1       0.277   3.329  23.563  0.00  0.00    +0.027 C 
ATOM     12  C   UNL     1      -0.326   3.775  25.904  0.00  0.00    +0.054 C 
ATOM     13  C   UNL     1       0.476   4.303  24.717  0.00  0.00    +0.018 C 
ATOM     14  C   UNL     1      -1.203   3.331  23.162  0.00  0.00    +0.130 C 
ATOM     15  C   UNL     1       0.768   1.919  23.944  0.00  0.00    +0.113 C 
ATOM     16  C   UNL     1       0.224   2.399  26.319  0.00  0.00    +0.118 C 
ATOM     17  C   UNL     1      -1.801   3.661  25.567  0.00  0.00    +0.027 A 
ATOM     18  C   UNL     1      -2.729   3.811  26.530  0.00  0.00    +0.024 A 
ATOM     19  C   UNL     1      -3.540   3.210  23.889  0.00  0.00    +0.274 A 
ATOM     20  C   UNL     1      -0.204   0.135  25.441  0.00  0.00    +0.324 C 
ATOM     21  C   UNL     1      -4.513   3.363  24.999  0.00  0.00    +0.112 A 
ATOM     22  C   UNL     1      -4.129   3.658  26.242  0.00  0.00    +0.031 A 
ENDROOT
BRANCH  20  23
ATOM      5  O   UNL     1       0.500  -0.988  23.476  0.00  0.00    -0.240 OA
ATOM     23  C   UNL     1       0.318  -1.027  24.676  0.00  0.00    +0.392 C 
BRANCH  23   4
ATOM      4  O   UNL     1       0.534  -2.048  25.515  0.00  0.00    -0.474 OA
ATOM     32  H   UNL     1       0.559  -1.760  26.452  0.00  0.00    +0.296 HD
ENDBRANCH  23   4
ENDBRANCH  20  23
BRANCH  21  10
ATOM     10  N   UNL     1      -5.890   3.216  24.759  0.00  0.00    -0.211 N 
ATOM     31  H   UNL     1      -6.411   4.098  24.866  0.00  0.00    +0.174 HD
BRANCH  10   1
ATOM      1  S   UNL     1      -6.650   1.864  25.437  0.00  0.00    +0.072 S 
ATOM      6  O   UNL     1      -6.737   2.022  26.876  0.00  0.00    -0.150 OA
ATOM      7  O   UNL     1      -7.833   1.531  24.666  0.00  0.00    -0.150 OA
BRANCH   1  24
ATOM     24  C   UNL     1      -5.442   0.613  25.117  0.00  0.00    +0.109 A 
ATOM     25  C   UNL     1      -5.269   0.158  23.822  0.00  0.00    +0.029 A 
ATOM     26  C   UNL     1      -4.693   0.111  26.167  0.00  0.00    +0.029 A 
ATOM     27  C   UNL     1      -4.317  -0.829  23.568  0.00  0.00    +0.005 A 
ATOM     28  C   UNL     1      -3.741  -0.876  25.913  0.00  0.00    +0.005 A 
ATOM     29  C   UNL     1      -3.553  -1.346  24.614  0.00  0.00    -0.050 A 
ATOM     30  C   UNL     1      -2.535  -2.401  24.343  0.00  0.00    +0.044 C 
ENDBRANCH   1  24
ENDBRANCH  10   1
ENDBRANCH  21  10
TORSDOF 5
ENDMDL
MODEL 4
REMARK VINA RESULT:       3.2      2.516      4.531
REMARK  Name = 11867158
REMARK  6 active torsions:
REMARK  status: ('A' for Active; 'I' for Inactive)
REMARK    1  A    between atoms: S_1  and  N_10
REMARK    2  A    between atoms: S_1  and  C_24
REMARK    3  A    between atoms: O_4  and  C_23
REMARK    4  A    between atoms: N_10  and  C_21
REMARK    5  A    between atoms: C_20  and  C_23
REMARK    6  A    between atoms: C_29  and  C_30
REMARK                            x       y       z     vdW  Elec       q    Type
REMARK                         _______ _______ _______ _____ _____    ______ ____
ROOT
ATOM      2  O   UNL     1      -3.528   0.294  22.339  0.00  0.00    -0.266 OA
ATOM      3  O   UNL     1      -1.157   2.590  26.857  0.00  0.00    -0.263 OA
ATOM      8  N   UNL     1      -4.220   1.875  23.923  0.00  0.00    -0.310 N 
ATOM      9  N   UNL     1      -2.506   4.025  25.598  0.00  0.00    -0.291 N 
ATOM     11  C   UNL     1      -3.952   4.397  23.588  0.00  0.00    +0.027 C 
ATOM     12  C   UNL     1      -4.948   3.544  25.667  0.00  0.00    +0.054 C 
ATOM     13  C   UNL     1      -5.163   4.510  24.505  0.00  0.00    +0.018 C 
ATOM     14  C   UNL     1      -3.901   2.978  23.009  0.00  0.00    +0.130 C 
ATOM     15  C   UNL     1      -2.658   4.759  24.341  0.00  0.00    +0.113 C 
ATOM     16  C   UNL     1      -3.693   3.962  26.453  0.00  0.00    +0.118 C 
ATOM     17  C   UNL     1      -4.798   2.115  25.176  0.00  0.00    +0.027 A 
ATOM     18  C   UNL     1      -5.194   1.089  25.951  0.00  0.00    +0.024 A 
ATOM     19  C   UNL     1      -4.015   0.568  23.434  0.00  0.00    +0.274 A 
ATOM     20  C   UNL     1      -1.299   3.516  26.066  0.00  0.00    +0.324 C 
ATOM     21  C   UNL     1      -4.449  -0.521  24.344  0.00  0.00    +0.112 A 
ATOM     22  C   UNL     1      -5.015  -0.273  25.526  0.00  0.00    +0.031 A 
ENDROOT
BRANCH  20  23
ATOM      5  O   UNL     1       0.136   4.969  24.864  0.00  0.00    -0.240 OA
ATOM     23  C   UNL     1       0.023   4.059  25.661  0.00  0.00    +0.392 C 
BRANCH  23   4
ATOM      4  O   UNL     1       0.991   3.397  26.307  0.00  0.00    -0.474 OA
ATOM     32  H   UNL     1       1.418   3.944  27.000  0.00  0.00    +0.296 HD
ENDBRANCH  23   4
ENDBRANCH  20  23
BRANCH  21  10
ATOM     10  N   UNL     1      -4.287  -1.866  23.967  0.00  0.00    -0.211 N 
ATOM     31  H   UNL     1      -5.174  -2.389  23.960  0.00  0.00    +0.174 HD
BRANCH  10   1
ATOM      1  S   UNL     1      -2.982  -2.704  24.645  0.00  0.00    +0.072 S 
ATOM      6  O   UNL     1      -3.180  -2.844  26.075  0.00  0.00    -0.150 OA
ATOM      7  O   UNL     1      -2.672  -3.865  23.833  0.00  0.00    -0.150 OA
BRANCH   1  24
ATOM     24  C   UNL     1      -1.679  -1.531  24.407  0.00  0.00    +0.109 A 
ATOM     25  C   UNL     1      -1.458  -0.563  25.371  0.00  0.00    +0.029 A 
ATOM     26  C   UNL     1      -0.906  -1.602  23.261  0.00  0.00    +0.029 A 
ATOM     27  C   UNL     1      -0.432   0.362  25.184  0.00  0.00    +0.005 A 
ATOM     28  C   UNL     1       0.120  -0.677  23.074  0.00  0.00    +0.005 A 
ATOM     29  C   UNL     1       0.358   0.306  24.035  0.00  0.00    -0.050 A 
ATOM     30  C   UNL     1       1.455   1.295  23.836  0.00  0.00    +0.044 C 
ENDBRANCH   1  24
ENDBRANCH  10   1
ENDBRANCH  21  10
TORSDOF 5
ENDMDL
MODEL 5
REMARK VINA RESULT:       3.4      1.384      2.039
REMARK  Name = 11867158
REMARK  6 active torsions:
REMARK  status: ('A' for Active; 'I' for Inactive)
REMARK    1  A    between atoms: S_1  and  N_10
REMARK    2  A    between atoms: S_1  and  C_24
REMARK    3  A    between atoms: O_4  and  C_23
REMARK    4  A    between atoms: N_10  and  C_21
REMARK    5  A    between atoms: C_20  and  C_23
REMARK    6  A    between atoms: C_29  and  C_30
REMARK                            x       y       z     vdW  Elec       q    Type
REMARK                         _______ _______ _______ _____ _____    ______ ____
ROOT
ATOM      2  O   UNL     1      -0.429   0.747  27.060  0.00  0.00    -0.266 OA
ATOM      3  O   UNL     1      -4.855   2.432  24.081  0.00  0.00    -0.263 OA
ATOM      8  N   UNL     1      -0.746   2.311  25.344  0.00  0.00    -0.310 N 
ATOM      9  N   UNL     1      -3.317   4.107  24.620  0.00  0.00    -0.291 N 
ATOM     11  C   UNL     1      -1.206   4.789  25.781  0.00  0.00    +0.027 C 
ATOM     12  C   UNL     1      -1.113   3.956  23.470  0.00  0.00    +0.054 C 
ATOM     13  C   UNL     1      -0.553   5.010  24.422  0.00  0.00    +0.018 C 
ATOM     14  C   UNL     1      -0.788   3.412  26.313  0.00  0.00    +0.130 C 
ATOM     15  C   UNL     1      -2.737   4.928  25.683  0.00  0.00    +0.113 C 
ATOM     16  C   UNL     1      -2.632   4.154  23.326  0.00  0.00    +0.118 C 
ATOM     17  C   UNL     1      -0.820   2.552  23.966  0.00  0.00    +0.027 A 
ATOM     18  C   UNL     1      -0.660   1.544  23.089  0.00  0.00    +0.024 A 
ATOM     19  C   UNL     1      -0.520   1.018  25.864  0.00  0.00    +0.274 A 
ATOM     20  C   UNL     1      -4.518   3.413  24.732  0.00  0.00    +0.324 C 
ATOM     21  C   UNL     1      -0.376  -0.054  24.848  0.00  0.00    +0.112 A 
ATOM     22  C   UNL     1      -0.431   0.198  23.540  0.00  0.00    +0.031 A 
ENDROOT
BRANCH  20  23
ATOM      5  O   UNL     1      -6.175   4.859  25.616  0.00  0.00    -0.240 OA
ATOM     23  C   UNL     1      -5.590   3.797  25.686  0.00  0.00    +0.392 C 
BRANCH  23   4
ATOM      4  O   UNL     1      -5.771   2.807  26.570  0.00  0.00    -0.474 OA
ATOM     32  H   UNL     1      -6.604   2.315  26.412  0.00  0.00    +0.296 HD
ENDBRANCH  23   4
ENDBRANCH  20  23
BRANCH  21  10
ATOM     10  N   UNL     1      -0.156  -1.384  25.248  0.00  0.00    -0.211 N 
ATOM     31  H   UNL     1       0.834  -1.660  25.190  0.00  0.00    +0.174 HD
BRANCH  10   1
ATOM      1  S   UNL     1      -1.246  -2.548  24.683  0.00  0.00    +0.072 S 
ATOM      6  O   UNL     1      -0.968  -2.843  23.291  0.00  0.00    -0.150 OA
ATOM      7  O   UNL     1      -1.358  -3.623  25.650  0.00  0.00    -0.150 OA
BRANCH   1  24
ATOM     24  C   UNL     1      -2.760  -1.634  24.735  0.00  0.00    +0.109 A 
ATOM     25  C   UNL     1      -3.570  -1.606  23.613  0.00  0.00    +0.029 A 
ATOM     26  C   UNL     1      -3.106  -0.964  25.895  0.00  0.00    +0.029 A 
ATOM     27  C   UNL     1      -4.763  -0.885  23.653  0.00  0.00    +0.005 A 
ATOM     28  C   UNL     1      -4.299  -0.243  25.935  0.00  0.00    +0.005 A 
ATOM     29  C   UNL     1      -5.128  -0.203  24.814  0.00  0.00    -0.050 A 
ATOM     30  C   UNL     1      -6.404   0.567  24.856  0.00  0.00    +0.044 C 
ENDBRANCH   1  24
ENDBRANCH  10   1
ENDBRANCH  21  10
TORSDOF 5
ENDMDL
MODEL 6
REMARK VINA RESULT:       4.1      2.656      5.603
REMARK  Name = 11867158
REMARK  6 active torsions:
REMARK  status: ('A' for Active; 'I' for Inactive)
REMARK    1  A    between atoms: S_1  and  N_10
REMARK    2  A    between atoms: S_1  and  C_24
REMARK    3  A    between atoms: O_4  and  C_23
REMARK    4  A    between atoms: N_10  and  C_21
REMARK    5  A    between atoms: C_20  and  C_23
REMARK    6  A    between atoms: C_29  and  C_30
REMARK                            x       y       z     vdW  Elec       q    Type
REMARK                         _______ _______ _______ _____ _____    ______ ____
ROOT
ATOM      2  O   UNL     1      -0.277   1.928  22.590  0.00  0.00    -0.266 OA
ATOM      3  O   UNL     1      -4.463  -0.469  25.427  0.00  0.00    -0.263 OA
ATOM      8  N   UNL     1      -0.392   0.542  24.476  0.00  0.00    -0.310 N 
ATOM      9  N   UNL     1      -2.517  -1.751  25.243  0.00  0.00    -0.291 N 
ATOM     11  C   UNL     1      -0.191  -2.005  24.351  0.00  0.00    +0.027 C 
ATOM     12  C   UNL     1      -0.552  -0.916  26.525  0.00  0.00    +0.054 C 
ATOM     13  C   UNL     1       0.345  -1.896  25.773  0.00  0.00    +0.018 C 
ATOM     14  C   UNL     1      -0.063  -0.637  23.668  0.00  0.00    +0.130 C 
ATOM     15  C   UNL     1      -1.645  -2.514  24.350  0.00  0.00    +0.113 C 
ATOM     16  C   UNL     1      -1.985  -1.474  26.579  0.00  0.00    +0.118 C 
ATOM     17  C   UNL     1      -0.555   0.450  25.864  0.00  0.00    +0.027 A 
ATOM     18  C   UNL     1      -0.738   1.559  26.604  0.00  0.00    +0.024 A 
ATOM     19  C   UNL     1      -0.430   1.781  23.801  0.00  0.00    +0.274 A 
ATOM     20  C   UNL     1      -3.830  -1.401  24.944  0.00  0.00    +0.324 C 
ATOM     21  C   UNL     1      -0.659   2.964  24.667  0.00  0.00    +0.112 A 
ATOM     22  C   UNL     1      -0.793   2.859  25.990  0.00  0.00    +0.031 A 
ENDROOT
BRANCH  20  23
ATOM      5  O   UNL     1      -4.422  -3.293  23.646  0.00  0.00    -0.240 OA
ATOM     23  C   UNL     1      -4.669  -2.150  23.973  0.00  0.00    +0.392 C 
BRANCH  23   4
ATOM      4  O   UNL     1      -5.679  -1.370  23.567  0.00  0.00    -0.474 OA
ATOM     32  H   UNL     1      -5.695  -1.260  22.592  0.00  0.00    +0.296 HD
ENDBRANCH  23   4
ENDBRANCH  20  23
BRANCH  21  10
ATOM     10  N   UNL     1      -0.724   4.251  24.106  0.00  0.00    -0.211 N 
ATOM     31  H   UNL     1       0.201   4.696  24.016  0.00  0.00    +0.174 HD
BRANCH  10   1
ATOM      1  S   UNL     1      -1.946   5.277  24.672  0.00  0.00    +0.072 S 
ATOM      6  O   UNL     1      -1.656   5.679  26.034  0.00  0.00    -0.150 OA
ATOM      7  O   UNL     1      -2.250   6.276  23.664  0.00  0.00    -0.150 OA
BRANCH   1  24
ATOM     24  C   UNL     1      -3.313   4.157  24.733  0.00  0.00    +0.109 A 
ATOM     25  C   UNL     1      -4.059   4.065  25.895  0.00  0.00    +0.029 A 
ATOM     26  C   UNL     1      -3.612   3.393  23.618  0.00  0.00    +0.029 A 
ATOM     27  C   UNL     1      -5.137   3.182  25.944  0.00  0.00    +0.005 A 
ATOM     28  C   UNL     1      -4.690   2.510  23.668  0.00  0.00    +0.005 A 
ATOM     29  C   UNL     1      -5.453   2.404  24.831  0.00  0.00    -0.050 A 
ATOM     30  C   UNL     1      -6.606   1.460  24.883  0.00  0.00    +0.044 C 
ENDBRANCH   1  24
ENDBRANCH  10   1
ENDBRANCH  21  10
TORSDOF 5
ENDMDL
MODEL 7
REMARK VINA RESULT:       5.0      2.942      4.488
REMARK  Name = 11867158
REMARK  6 active torsions:
REMARK  status: ('A' for Active; 'I' for Inactive)
REMARK    1  A    between atoms: S_1  and  N_10
REMARK    2  A    between atoms: S_1  and  C_24
REMARK    3  A    between atoms: O_4  and  C_23
REMARK    4  A    between atoms: N_10  and  C_21
REMARK    5  A    between atoms: C_20  and  C_23
REMARK    6  A    between atoms: C_29  and  C_30
REMARK                            x       y       z     vdW  Elec       q    Type
REMARK                         _______ _______ _______ _____ _____    ______ ____
ROOT
ATOM      2  O   UNL     1      -0.370   2.770  26.239  0.00  0.00    -0.266 OA
ATOM      3  O   UNL     1      -5.310   0.397  25.110  0.00  0.00    -0.263 OA
ATOM      8  N   UNL     1      -2.114   3.252  24.751  0.00  0.00    -0.310 N 
ATOM      9  N   UNL     1      -5.279   2.732  25.021  0.00  0.00    -0.291 N 
ATOM     11  C   UNL     1      -4.013   4.874  25.305  0.00  0.00    +0.027 C 
ATOM     12  C   UNL     1      -3.989   3.721  23.134  0.00  0.00    +0.054 C 
ATOM     13  C   UNL     1      -4.083   5.092  23.799  0.00  0.00    +0.018 C 
ATOM     14  C   UNL     1      -2.643   4.280  25.655  0.00  0.00    +0.130 C 
ATOM     15  C   UNL     1      -5.169   3.976  25.784  0.00  0.00    +0.113 C 
ATOM     16  C   UNL     1      -5.191   2.861  23.565  0.00  0.00    +0.118 C 
ATOM     17  C   UNL     1      -2.694   3.018  23.498  0.00  0.00    +0.027 A 
ATOM     18  C   UNL     1      -2.125   2.158  22.634  0.00  0.00    +0.024 A 
ATOM     19  C   UNL     1      -0.934   2.594  25.161  0.00  0.00    +0.274 A 
ATOM     20  C   UNL     1      -5.584   1.495  25.580  0.00  0.00    +0.324 C 
ATOM     21  C   UNL     1      -0.369   1.640  24.175  0.00  0.00    +0.112 A 
ATOM     22  C   UNL     1      -0.926   1.444  22.979  0.00  0.00    +0.031 A 
ENDROOT
BRANCH  20  23
ATOM      5  O   UNL     1      -6.255   0.332  27.533  0.00  0.00    -0.240 OA
ATOM     23  C   UNL     1      -6.320   1.342  26.861  0.00  0.00    +0.392 C 
BRANCH  23   4
ATOM      4  O   UNL     1      -7.012   2.461  27.110  0.00  0.00    -0.474 OA
ATOM     32  H   UNL     1      -6.612   3.248  26.684  0.00  0.00    +0.296 HD
ENDBRANCH  23   4
ENDBRANCH  20  23
BRANCH  21  10
ATOM     10  N   UNL     1       0.800   0.920  24.477  0.00  0.00    -0.211 N 
ATOM     31  H   UNL     1       1.614   1.529  24.643  0.00  0.00    +0.174 HD
BRANCH  10   1
ATOM      1  S   UNL     1       1.126  -0.447  23.534  0.00  0.00    +0.072 S 
ATOM      6  O   UNL     1       0.771  -1.645  24.270  0.00  0.00    -0.150 OA
ATOM      7  O   UNL     1       0.628  -0.242  22.187  0.00  0.00    -0.150 OA
BRANCH   1  24
ATOM     24  C   UNL     1       2.892  -0.381  23.458  0.00  0.00    +0.109 A 
ATOM     25  C   UNL     1       3.505   0.761  22.973  0.00  0.00    +0.029 A 
ATOM     26  C   UNL     1       3.629  -1.473  23.885  0.00  0.00    +0.029 A 
ATOM     27  C   UNL     1       4.896   0.814  22.913  0.00  0.00    +0.005 A 
ATOM     28  C   UNL     1       5.021  -1.420  23.824  0.00  0.00    +0.005 A 
ATOM     29  C   UNL     1       5.656  -0.276  23.338  0.00  0.00    -0.050 A 
ATOM     30  C   UNL     1       7.144  -0.220  23.274  0.00  0.00    +0.044 C 
ENDBRANCH   1  24
ENDBRANCH  10   1
ENDBRANCH  21  10
TORSDOF 5
ENDMDL
MODEL 8
REMARK VINA RESULT:       5.1      3.087      6.840
REMARK  Name = 11867158
REMARK  6 active torsions:
REMARK  status: ('A' for Active; 'I' for Inactive)
REMARK    1  A    between atoms: S_1  and  N_10
REMARK    2  A    between atoms: S_1  and  C_24
REMARK    3  A    between atoms: O_4  and  C_23
REMARK    4  A    between atoms: N_10  and  C_21
REMARK    5  A    between atoms: C_20  and  C_23
REMARK    6  A    between atoms: C_29  and  C_30
REMARK                            x       y       z     vdW  Elec       q    Type
REMARK                         _______ _______ _______ _____ _____    ______ ____
ROOT
ATOM      2  O   UNL     1      -0.267   2.335  26.807  0.00  0.00    -0.266 OA
ATOM      3  O   UNL     1       3.123   0.916  22.588  0.00  0.00    -0.263 OA
ATOM      8  N   UNL     1      -0.491   0.967  24.919  0.00  0.00    -0.310 N 
ATOM      9  N   UNL     1       1.708  -0.782  23.347  0.00  0.00    -0.291 N 
ATOM     11  C   UNL     1      -0.047  -1.552  24.959  0.00  0.00    +0.027 C 
ATOM     12  C   UNL     1      -0.713  -0.466  22.857  0.00  0.00    +0.054 C 
ATOM     13  C   UNL     1      -1.047  -1.609  23.811  0.00  0.00    +0.018 C 
ATOM     14  C   UNL     1      -0.244  -0.236  25.722  0.00  0.00    +0.130 C 
ATOM     15  C   UNL     1       1.395  -1.706  24.438  0.00  0.00    +0.113 C 
ATOM     16  C   UNL     1       0.702  -0.673  22.289  0.00  0.00    +0.118 C 
ATOM     17  C   UNL     1      -0.798   0.879  23.555  0.00  0.00    +0.027 A 
ATOM     18  C   UNL     1      -1.139   1.981  22.861  0.00  0.00    +0.024 A 
ATOM     19  C   UNL     1      -0.510   2.197  25.610  0.00  0.00    +0.274 A 
ATOM     20  C   UNL     1       2.927  -0.125  23.203  0.00  0.00    +0.324 C 
ATOM     21  C   UNL     1      -0.869   3.378  24.786  0.00  0.00    +0.112 A 
ATOM     22  C   UNL     1      -1.176   3.272  23.492  0.00  0.00    +0.031 A 
ENDROOT
BRANCH  20  23
ATOM      5  O   UNL     1       4.463  -1.815  23.836  0.00  0.00    -0.240 OA
ATOM     23  C   UNL     1       4.195  -0.631  23.787  0.00  0.00    +0.392 C 
BRANCH  23   4
ATOM      4  O   UNL     1       4.930   0.405  24.213  0.00  0.00    -0.474 OA
ATOM     32  H   UNL     1       4.509   1.267  24.010  0.00  0.00    +0.296 HD
ENDBRANCH  23   4
ENDBRANCH  20  23
BRANCH  21  10
ATOM     10  N   UNL     1      -0.913   4.658  25.364  0.00  0.00    -0.211 N 
ATOM     31  H   UNL     1      -0.563   4.672  26.333  0.00  0.00    +0.174 HD
BRANCH  10   1
ATOM      1  S   UNL     1      -2.317   5.570  25.111  0.00  0.00    +0.072 S 
ATOM      6  O   UNL     1      -2.594   6.377  26.283  0.00  0.00    -0.150 OA
ATOM      7  O   UNL     1      -2.271   6.181  23.796  0.00  0.00    -0.150 OA
BRANCH   1  24
ATOM     24  C   UNL     1      -3.535   4.289  25.055  0.00  0.00    +0.109 A 
ATOM     25  C   UNL     1      -3.904   3.761  23.829  0.00  0.00    +0.029 A 
ATOM     26  C   UNL     1      -4.097   3.838  26.236  0.00  0.00    +0.029 A 
ATOM     27  C   UNL     1      -4.864   2.752  23.784  0.00  0.00    +0.005 A 
ATOM     28  C   UNL     1      -5.058   2.828  26.190  0.00  0.00    +0.005 A 
ATOM     29  C   UNL     1      -5.442   2.285  24.964  0.00  0.00    -0.050 A 
ATOM     30  C   UNL     1      -6.469   1.205  24.916  0.00  0.00    +0.044 C 
ENDBRANCH   1  24
ENDBRANCH  10   1
ENDBRANCH  21  10
TORSDOF 5
ENDMDL
