MODEL 1
REMARK VINA RESULT:      -6.6      0.000      0.000
REMARK  Name = 75536565
REMARK  7 active torsions:
REMARK  status: ('A' for Active; 'I' for Inactive)
REMARK    1  A    between atoms: O_2  and  C_8
REMARK    2  A    between atoms: N_4  and  C_16
REMARK    3  A    between atoms: N_5  and  C_10
REMARK    4  A    between atoms: N_5  and  C_18
REMARK    5  A    between atoms: C_7  and  C_16
REMARK    6  A    between atoms: C_9  and  C_17
REMARK    7  A    between atoms: C_18  and  C_19
REMARK                            x       y       z     vdW  Elec       q    Type
REMARK                         _______ _______ _______ _____ _____    ______ ____
ROOT
ATOM      1  O   UNL     1       0.216   2.755  23.410  0.00  0.00    -0.371 OA
ATOM      7  C   UNL     1       0.355   1.749  24.428  0.00  0.00    +0.165 C 
ATOM      8  C   UNL     1      -0.673   2.089  25.499  0.00  0.00    +0.164 C 
ATOM     10  C   UNL     1      -0.656   3.605  25.450  0.00  0.00    +0.111 C 
ATOM     15  C   UNL     1      -0.531   3.856  23.956  0.00  0.00    +0.181 C 
ENDROOT
BRANCH   8   2
ATOM      2  O   UNL     1      -0.303   1.579  26.765  0.00  0.00    -0.388 OA
ATOM     26  H   UNL     1      -0.993   1.821  27.405  0.00  0.00    +0.210 HD
ENDBRANCH   8   2
BRANCH  10   5
ATOM      5  N   UNL     1      -1.838   4.221  26.031  0.00  0.00    -0.305 NA
ATOM     25  H   UNL     1      -1.570   5.094  26.486  0.00  0.00    +0.123 HD
BRANCH   5  18
ATOM     18  C   UNL     1      -2.836   4.510  25.008  0.00  0.00    +0.118 C 
BRANCH  18  19
ATOM      6  N   UNL     1      -5.891   2.756  26.392  0.00  0.00    -0.263 NA
ATOM     19  C   UNL     1      -4.021   3.586  25.105  0.00  0.00    -0.015 A 
ATOM     20  C   UNL     1      -4.352   2.732  24.060  0.00  0.00    +0.008 A 
ATOM     21  C   UNL     1      -4.816   3.560  26.240  0.00  0.00    +0.115 A 
ATOM     22  C   UNL     1      -5.452   1.889  24.179  0.00  0.00    +0.020 A 
ATOM     23  C   UNL     1      -6.182   1.939  25.355  0.00  0.00    +0.111 A 
ENDBRANCH  18  19
ENDBRANCH   5  18
ENDBRANCH  10   5
BRANCH   7  16
ATOM     16  C   UNL     1       0.156   0.373  23.820  0.00  0.00    +0.138 C 
BRANCH  16   4
ATOM      3  O   UNL     1      -0.065  -2.014  25.459  0.00  0.00    -0.276 OA
ATOM      4  N   UNL     1      -1.045  -0.243  24.306  0.00  0.00    -0.313 N 
ATOM     17  C   UNL     1      -1.057  -1.390  25.090  0.00  0.00    +0.216 C 
ATOM     24  H   UNL     1      -1.928   0.196  24.060  0.00  0.00    +0.149 HD
BRANCH  17   9
ATOM      9  C   UNL     1      -2.442  -1.807  25.481  0.00  0.00    +0.075 C 
ATOM     11  C   UNL     1      -2.917  -2.968  24.599  0.00  0.00    +0.013 C 
ATOM     12  C   UNL     1      -3.435  -0.665  25.256  0.00  0.00    +0.013 C 
ATOM     13  C   UNL     1      -4.224  -2.502  23.966  0.00  0.00    +0.001 C 
ATOM     14  C   UNL     1      -4.099  -0.990  23.925  0.00  0.00    +0.001 C 
ENDBRANCH  17   9
ENDBRANCH  16   4
ENDBRANCH   7  16
TORSDOF 7
ENDMDL
MODEL 2
REMARK VINA RESULT:      -6.0      2.156      4.914
REMARK  Name = 75536565
REMARK  7 active torsions:
REMARK  status: ('A' for Active; 'I' for Inactive)
REMARK    1  A    between atoms: O_2  and  C_8
REMARK    2  A    between atoms: N_4  and  C_16
REMARK    3  A    between atoms: N_5  and  C_10
REMARK    4  A    between atoms: N_5  and  C_18
REMARK    5  A    between atoms: C_7  and  C_16
REMARK    6  A    between atoms: C_9  and  C_17
REMARK    7  A    between atoms: C_18  and  C_19
REMARK                            x       y       z     vdW  Elec       q    Type
REMARK                         _______ _______ _______ _____ _____    ______ ____
ROOT
ATOM      1  O   UNL     1      -4.029   3.746  25.839  0.00  0.00    -0.371 OA
ATOM      7  C   UNL     1      -4.296   3.043  24.613  0.00  0.00    +0.165 C 
ATOM      8  C   UNL     1      -2.945   2.555  24.106  0.00  0.00    +0.164 C 
ATOM     10  C   UNL     1      -2.041   3.693  24.540  0.00  0.00    +0.111 C 
ATOM     15  C   UNL     1      -2.622   4.036  25.902  0.00  0.00    +0.181 C 
ENDROOT
BRANCH   8   2
ATOM      2  O   UNL     1      -2.946   2.362  22.705  0.00  0.00    -0.388 OA
ATOM     26  H   UNL     1      -2.253   2.923  22.319  0.00  0.00    +0.210 HD
ENDBRANCH   8   2
BRANCH  10   5
ATOM      5  N   UNL     1      -0.634   3.331  24.600  0.00  0.00    -0.305 NA
ATOM     25  H   UNL     1      -0.175   3.895  25.316  0.00  0.00    +0.123 HD
BRANCH   5  18
ATOM     18  C   UNL     1      -0.468   1.921  24.932  0.00  0.00    +0.118 C 
BRANCH  18  19
ATOM      6  N   UNL     1       2.753   1.173  23.091  0.00  0.00    -0.263 NA
ATOM     19  C   UNL     1       0.524   1.245  24.024  0.00  0.00    -0.015 A 
ATOM     20  C   UNL     1       0.175   0.113  23.296  0.00  0.00    +0.008 A 
ATOM     21  C   UNL     1       1.815   1.730  23.888  0.00  0.00    +0.115 A 
ATOM     22  C   UNL     1       1.114  -0.489  22.465  0.00  0.00    +0.020 A 
ATOM     23  C   UNL     1       2.378   0.075  22.399  0.00  0.00    +0.111 A 
ENDBRANCH  18  19
ENDBRANCH   5  18
ENDBRANCH  10   5
BRANCH   7  16
ATOM     16  C   UNL     1      -5.283   1.919  24.870  0.00  0.00    +0.138 C 
BRANCH  16   4
ATOM      3  O   UNL     1      -4.245  -0.415  23.488  0.00  0.00    -0.276 OA
ATOM      4  N   UNL     1      -4.634   0.779  25.451  0.00  0.00    -0.313 N 
ATOM     17  C   UNL     1      -4.165  -0.299  24.709  0.00  0.00    +0.216 C 
ATOM     24  H   UNL     1      -4.513   0.773  26.459  0.00  0.00    +0.149 HD
BRANCH  17   9
ATOM      9  C   UNL     1      -3.507  -1.342  25.559  0.00  0.00    +0.075 C 
ATOM     11  C   UNL     1      -2.082  -0.909  25.924  0.00  0.00    +0.013 C 
ATOM     12  C   UNL     1      -3.372  -2.658  24.792  0.00  0.00    +0.013 C 
ATOM     13  C   UNL     1      -1.170  -2.035  25.446  0.00  0.00    +0.001 C 
ATOM     14  C   UNL     1      -1.932  -2.668  24.297  0.00  0.00    +0.001 C 
ENDBRANCH  17   9
ENDBRANCH  16   4
ENDBRANCH   7  16
TORSDOF 7
ENDMDL
MODEL 3
REMARK VINA RESULT:      -5.6      2.937      6.816
REMARK  Name = 75536565
REMARK  7 active torsions:
REMARK  status: ('A' for Active; 'I' for Inactive)
REMARK    1  A    between atoms: O_2  and  C_8
REMARK    2  A    between atoms: N_4  and  C_16
REMARK    3  A    between atoms: N_5  and  C_10
REMARK    4  A    between atoms: N_5  and  C_18
REMARK    5  A    between atoms: C_7  and  C_16
REMARK    6  A    between atoms: C_9  and  C_17
REMARK    7  A    between atoms: C_18  and  C_19
REMARK                            x       y       z     vdW  Elec       q    Type
REMARK                         _______ _______ _______ _____ _____    ______ ____
ROOT
ATOM      1  O   UNL     1      -1.878  -1.994  24.300  0.00  0.00    -0.371 OA
ATOM      7  C   UNL     1      -2.105  -1.036  25.349  0.00  0.00    +0.165 C 
ATOM      8  C   UNL     1      -1.263   0.183  24.994  0.00  0.00    +0.164 C 
ATOM     10  C   UNL     1      -0.054  -0.472  24.355  0.00  0.00    +0.111 C 
ATOM     15  C   UNL     1      -0.703  -1.600  23.570  0.00  0.00    +0.181 C 
ENDROOT
BRANCH   8   2
ATOM      2  O   UNL     1      -0.931   0.944  26.139  0.00  0.00    -0.388 OA
ATOM     26  H   UNL     1      -0.693   0.331  26.855  0.00  0.00    +0.210 HD
ENDBRANCH   8   2
BRANCH  10   5
ATOM      5  N   UNL     1       0.723   0.428  23.517  0.00  0.00    -0.305 NA
ATOM     25  H   UNL     1       1.308   1.014  24.112  0.00  0.00    +0.123 HD
BRANCH   5  18
ATOM     18  C   UNL     1       1.577  -0.316  22.599  0.00  0.00    +0.118 C 
BRANCH  18  19
ATOM      6  N   UNL     1       4.905  -1.415  24.028  0.00  0.00    -0.263 NA
ATOM     19  C   UNL     1       3.020  -0.281  23.025  0.00  0.00    -0.015 A 
ATOM     20  C   UNL     1       3.797   0.855  22.833  0.00  0.00    +0.008 A 
ATOM     21  C   UNL     1       3.617  -1.381  23.622  0.00  0.00    +0.115 A 
ATOM     22  C   UNL     1       5.128   0.859  23.238  0.00  0.00    +0.020 A 
ATOM     23  C   UNL     1       5.629  -0.292  23.825  0.00  0.00    +0.111 A 
ENDBRANCH  18  19
ENDBRANCH   5  18
ENDBRANCH  10   5
BRANCH   7  16
ATOM     16  C   UNL     1      -3.588  -0.732  25.453  0.00  0.00    +0.138 C 
BRANCH  16   4
ATOM      3  O   UNL     1      -5.890   0.919  26.092  0.00  0.00    -0.276 OA
ATOM      4  N   UNL     1      -3.889   0.577  24.949  0.00  0.00    -0.313 N 
ATOM     17  C   UNL     1      -5.019   1.299  25.312  0.00  0.00    +0.216 C 
ATOM     24  H   UNL     1      -3.229   0.989  24.296  0.00  0.00    +0.149 HD
BRANCH  17   9
ATOM      9  C   UNL     1      -5.077   2.647  24.660  0.00  0.00    +0.075 C 
ATOM     11  C   UNL     1      -3.863   2.847  23.745  0.00  0.00    +0.013 C 
ATOM     12  C   UNL     1      -5.011   3.758  25.709  0.00  0.00    +0.013 C 
ATOM     13  C   UNL     1      -3.184   4.125  24.228  0.00  0.00    +0.001 C 
ATOM     14  C   UNL     1      -3.558   4.212  25.696  0.00  0.00    +0.001 C 
ENDBRANCH  17   9
ENDBRANCH  16   4
ENDBRANCH   7  16
TORSDOF 7
ENDMDL
MODEL 4
REMARK VINA RESULT:      -5.5      1.706      4.919
REMARK  Name = 75536565
REMARK  7 active torsions:
REMARK  status: ('A' for Active; 'I' for Inactive)
REMARK    1  A    between atoms: O_2  and  C_8
REMARK    2  A    between atoms: N_4  and  C_16
REMARK    3  A    between atoms: N_5  and  C_10
REMARK    4  A    between atoms: N_5  and  C_18
REMARK    5  A    between atoms: C_7  and  C_16
REMARK    6  A    between atoms: C_9  and  C_17
REMARK    7  A    between atoms: C_18  and  C_19
REMARK                            x       y       z     vdW  Elec       q    Type
REMARK                         _______ _______ _______ _____ _____    ______ ____
ROOT
ATOM      1  O   UNL     1      -0.442   3.075  26.423  0.00  0.00    -0.371 OA
ATOM      7  C   UNL     1      -0.341   3.931  25.271  0.00  0.00    +0.165 C 
ATOM      8  C   UNL     1      -0.449   3.018  24.058  0.00  0.00    +0.164 C 
ATOM     10  C   UNL     1       0.260   1.775  24.562  0.00  0.00    +0.111 C 
ATOM     15  C   UNL     1      -0.224   1.717  26.002  0.00  0.00    +0.181 C 
ENDROOT
BRANCH   8   2
ATOM      2  O   UNL     1       0.176   3.578  22.919  0.00  0.00    -0.388 OA
ATOM     26  H   UNL     1      -0.320   3.300  22.131  0.00  0.00    +0.210 HD
ENDBRANCH   8   2
BRANCH  10   5
ATOM      5  N   UNL     1      -0.061   0.573  23.809  0.00  0.00    -0.305 NA
ATOM     25  H   UNL     1       0.590   0.486  23.028  0.00  0.00    +0.123 HD
BRANCH   5  18
ATOM     18  C   UNL     1       0.045  -0.615  24.647  0.00  0.00    +0.118 C 
BRANCH  18  19
ATOM      6  N   UNL     1      -2.837  -3.023  24.173  0.00  0.00    -0.263 NA
ATOM     19  C   UNL     1      -1.289  -1.288  24.834  0.00  0.00    -0.015 A 
ATOM     20  C   UNL     1      -2.190  -0.839  25.792  0.00  0.00    +0.008 A 
ATOM     21  C   UNL     1      -1.657  -2.375  24.057  0.00  0.00    +0.115 A 
ATOM     22  C   UNL     1      -3.415  -1.480  25.942  0.00  0.00    +0.020 A 
ATOM     23  C   UNL     1      -3.688  -2.558  25.115  0.00  0.00    +0.111 A 
ENDBRANCH  18  19
ENDBRANCH   5  18
ENDBRANCH  10   5
BRANCH   7  16
ATOM     16  C   UNL     1      -1.425   4.992  25.323  0.00  0.00    +0.138 C 
BRANCH  16   4
ATOM      3  O   UNL     1      -3.566   4.034  27.035  0.00  0.00    -0.276 OA
ATOM      4  N   UNL     1      -2.694   4.460  24.917  0.00  0.00    -0.313 N 
ATOM     17  C   UNL     1      -3.665   4.023  25.810  0.00  0.00    +0.216 C 
ATOM     24  H   UNL     1      -2.883   4.409  23.920  0.00  0.00    +0.149 HD
BRANCH  17   9
ATOM      9  C   UNL     1      -4.905   3.538  25.123  0.00  0.00    +0.075 C 
ATOM     11  C   UNL     1      -5.721   2.646  26.066  0.00  0.00    +0.013 C 
ATOM     12  C   UNL     1      -4.550   2.672  23.914  0.00  0.00    +0.013 C 
ATOM     13  C   UNL     1      -5.900   1.320  25.333  0.00  0.00    +0.001 C 
ATOM     14  C   UNL     1      -4.697   1.240  24.411  0.00  0.00    +0.001 C 
ENDBRANCH  17   9
ENDBRANCH  16   4
ENDBRANCH   7  16
TORSDOF 7
ENDMDL
MODEL 5
REMARK VINA RESULT:      -4.8      1.957      4.753
REMARK  Name = 75536565
REMARK  7 active torsions:
REMARK  status: ('A' for Active; 'I' for Inactive)
REMARK    1  A    between atoms: O_2  and  C_8
REMARK    2  A    between atoms: N_4  and  C_16
REMARK    3  A    between atoms: N_5  and  C_10
REMARK    4  A    between atoms: N_5  and  C_18
REMARK    5  A    between atoms: C_7  and  C_16
REMARK    6  A    between atoms: C_9  and  C_17
REMARK    7  A    between atoms: C_18  and  C_19
REMARK                            x       y       z     vdW  Elec       q    Type
REMARK                         _______ _______ _______ _____ _____    ______ ____
ROOT
ATOM      1  O   UNL     1      -3.265   3.990  23.542  0.00  0.00    -0.371 OA
ATOM      7  C   UNL     1      -3.401   4.393  24.916  0.00  0.00    +0.165 C 
ATOM      8  C   UNL     1      -4.141   3.261  25.615  0.00  0.00    +0.164 C 
ATOM     10  C   UNL     1      -5.075   2.798  24.514  0.00  0.00    +0.111 C 
ATOM     15  C   UNL     1      -4.177   2.907  23.292  0.00  0.00    +0.181 C 
ENDROOT
BRANCH   8   2
ATOM      2  O   UNL     1      -4.833   3.713  26.764  0.00  0.00    -0.388 OA
ATOM     26  H   UNL     1      -5.776   3.509  26.652  0.00  0.00    +0.210 HD
ENDBRANCH   8   2
BRANCH  10   5
ATOM      5  N   UNL     1      -5.595   1.454  24.716  0.00  0.00    -0.305 NA
ATOM     25  H   UNL     1      -5.519   0.933  23.843  0.00  0.00    +0.123 HD
BRANCH   5  18
ATOM     18  C   UNL     1      -4.847   0.752  25.752  0.00  0.00    +0.118 C 
BRANCH  18  19
ATOM      6  N   UNL     1      -4.090  -2.160  23.456  0.00  0.00    -0.263 NA
ATOM     19  C   UNL     1      -4.293  -0.556  25.253  0.00  0.00    -0.015 A 
ATOM     20  C   UNL     1      -3.503  -1.358  26.068  0.00  0.00    +0.008 A 
ATOM     21  C   UNL     1      -4.554  -0.998  23.965  0.00  0.00    +0.115 A 
ATOM     22  C   UNL     1      -3.006  -2.561  25.579  0.00  0.00    +0.020 A 
ATOM     23  C   UNL     1      -3.326  -2.914  24.277  0.00  0.00    +0.111 A 
ENDBRANCH  18  19
ENDBRANCH   5  18
ENDBRANCH  10   5
BRANCH   7  16
ATOM     16  C   UNL     1      -2.031   4.672  25.508  0.00  0.00    +0.138 C 
BRANCH  16   4
ATOM      3  O   UNL     1      -0.037   3.742  23.612  0.00  0.00    -0.276 OA
ATOM      4  N   UNL     1      -1.245   3.474  25.587  0.00  0.00    -0.313 N 
ATOM     17  C   UNL     1      -0.307   3.107  24.629  0.00  0.00    +0.216 C 
ATOM     24  H   UNL     1      -1.388   2.873  26.393  0.00  0.00    +0.149 HD
BRANCH  17   9
ATOM      9  C   UNL     1       0.391   1.825  24.967  0.00  0.00    +0.075 C 
ATOM     11  C   UNL     1       1.140   1.288  23.741  0.00  0.00    +0.013 C 
ATOM     12  C   UNL     1      -0.620   0.745  25.358  0.00  0.00    +0.013 C 
ATOM     13  C   UNL     1       0.612  -0.126  23.518  0.00  0.00    +0.001 C 
ATOM     14  C   UNL     1      -0.789  -0.096  24.100  0.00  0.00    +0.001 C 
ENDBRANCH  17   9
ENDBRANCH  16   4
ENDBRANCH   7  16
TORSDOF 7
ENDMDL
MODEL 6
REMARK VINA RESULT:      -4.5     13.960     16.087
REMARK  Name = 75536565
REMARK  7 active torsions:
REMARK  status: ('A' for Active; 'I' for Inactive)
REMARK    1  A    between atoms: O_2  and  C_8
REMARK    2  A    between atoms: N_4  and  C_16
REMARK    3  A    between atoms: N_5  and  C_10
REMARK    4  A    between atoms: N_5  and  C_18
REMARK    5  A    between atoms: C_7  and  C_16
REMARK    6  A    between atoms: C_9  and  C_17
REMARK    7  A    between atoms: C_18  and  C_19
REMARK                            x       y       z     vdW  Elec       q    Type
REMARK                         _______ _______ _______ _____ _____    ______ ____
ROOT
ATOM      1  O   UNL     1      -3.162 -10.696  16.662  0.00  0.00    -0.371 OA
ATOM      7  C   UNL     1      -3.747 -10.775  15.350  0.00  0.00    +0.165 C 
ATOM      8  C   UNL     1      -5.026  -9.951  15.410  0.00  0.00    +0.164 C 
ATOM     10  C   UNL     1      -5.485 -10.224  16.829  0.00  0.00    +0.111 C 
ATOM     15  C   UNL     1      -4.163 -10.219  17.579  0.00  0.00    +0.181 C 
ENDROOT
BRANCH   8   2
ATOM      2  O   UNL     1      -5.968 -10.370  14.441  0.00  0.00    -0.388 OA
ATOM     26  H   UNL     1      -5.743 -11.276  14.168  0.00  0.00    +0.210 HD
ENDBRANCH   8   2
BRANCH  10   5
ATOM      5  N   UNL     1      -6.428  -9.241  17.337  0.00  0.00    -0.305 NA
ATOM     25  H   UNL     1      -6.521  -8.486  16.657  0.00  0.00    +0.123 HD
BRANCH   5  18
ATOM     18  C   UNL     1      -7.739  -9.838  17.563  0.00  0.00    +0.118 C 
BRANCH  18  19
ATOM      6  N   UNL     1     -10.024  -9.206  14.613  0.00  0.00    -0.263 NA
ATOM     19  C   UNL     1      -8.796  -9.209  16.695  0.00  0.00    -0.015 A 
ATOM     20  C   UNL     1      -9.510  -8.097  17.126  0.00  0.00    +0.008 A 
ATOM     21  C   UNL     1      -9.089  -9.721  15.441  0.00  0.00    +0.115 A 
ATOM     22  C   UNL     1     -10.481  -7.538  16.302  0.00  0.00    +0.020 A 
ATOM     23  C   UNL     1     -10.698  -8.125  15.066  0.00  0.00    +0.111 A 
ENDBRANCH  18  19
ENDBRANCH   5  18
ENDBRANCH  10   5
BRANCH   7  16
ATOM     16  C   UNL     1      -2.756 -10.273  14.316  0.00  0.00    +0.138 C 
BRANCH  16   4
ATOM      3  O   UNL     1      -1.326 -10.103  11.794  0.00  0.00    -0.276 OA
ATOM      4  N   UNL     1      -3.311 -10.327  12.994  0.00  0.00    -0.313 N 
ATOM     17  C   UNL     1      -2.547 -10.239  11.836  0.00  0.00    +0.216 C 
ATOM     24  H   UNL     1      -4.317 -10.441  12.913  0.00  0.00    +0.149 HD
BRANCH  17   9
ATOM      9  C   UNL     1      -3.372 -10.348  10.591  0.00  0.00    +0.075 C 
ATOM     11  C   UNL     1      -3.318  -9.036   9.800  0.00  0.00    +0.013 C 
ATOM     12  C   UNL     1      -4.844 -10.580  10.936  0.00  0.00    +0.013 C 
ATOM     13  C   UNL     1      -4.768  -8.596   9.623  0.00  0.00    +0.001 C 
ATOM     14  C   UNL     1      -5.488  -9.206  10.812  0.00  0.00    +0.001 C 
ENDBRANCH  17   9
ENDBRANCH  16   4
ENDBRANCH   7  16
TORSDOF 7
ENDMDL
MODEL 7
REMARK VINA RESULT:      -4.4     14.792     16.703
REMARK  Name = 75536565
REMARK  7 active torsions:
REMARK  status: ('A' for Active; 'I' for Inactive)
REMARK    1  A    between atoms: O_2  and  C_8
REMARK    2  A    between atoms: N_4  and  C_16
REMARK    3  A    between atoms: N_5  and  C_10
REMARK    4  A    between atoms: N_5  and  C_18
REMARK    5  A    between atoms: C_7  and  C_16
REMARK    6  A    between atoms: C_9  and  C_17
REMARK    7  A    between atoms: C_18  and  C_19
REMARK                            x       y       z     vdW  Elec       q    Type
REMARK                         _______ _______ _______ _____ _____    ______ ____
ROOT
ATOM      1  O   UNL     1      -2.514 -10.707  14.046  0.00  0.00    -0.371 OA
ATOM      7  C   UNL     1      -3.714 -10.781  13.257  0.00  0.00    +0.165 C 
ATOM      8  C   UNL     1      -4.821 -10.188  14.118  0.00  0.00    +0.164 C 
ATOM     10  C   UNL     1      -4.392 -10.642  15.500  0.00  0.00    +0.111 C 
ATOM     15  C   UNL     1      -2.884 -10.474  15.417  0.00  0.00    +0.181 C 
ENDROOT
BRANCH   8   2
ATOM      2  O   UNL     1      -6.095 -10.682  13.752  0.00  0.00    -0.388 OA
ATOM     26  H   UNL     1      -6.543 -10.997  14.555  0.00  0.00    +0.210 HD
ENDBRANCH   8   2
BRANCH  10   5
ATOM      5  N   UNL     1      -4.988  -9.870  16.579  0.00  0.00    -0.305 NA
ATOM     25  H   UNL     1      -5.594  -9.153  16.180  0.00  0.00    +0.123 HD
BRANCH   5  18
ATOM     18  C   UNL     1      -5.780 -10.722  17.458  0.00  0.00    +0.118 C 
BRANCH  18  19
ATOM      6  N   UNL     1      -9.344 -10.357  18.680  0.00  0.00    -0.263 NA
ATOM     19  C   UNL     1      -7.208 -10.256  17.551  0.00  0.00    -0.015 A 
ATOM     20  C   UNL     1      -7.722  -9.333  16.647  0.00  0.00    +0.008 A 
ATOM     21  C   UNL     1      -8.054 -10.733  18.541  0.00  0.00    +0.115 A 
ATOM     22  C   UNL     1      -9.046  -8.922  16.758  0.00  0.00    +0.020 A 
ATOM     23  C   UNL     1      -9.808  -9.459  17.783  0.00  0.00    +0.111 A 
ENDBRANCH  18  19
ENDBRANCH   5  18
ENDBRANCH  10   5
BRANCH   7  16
ATOM     16  C   UNL     1      -3.512 -10.043  11.946  0.00  0.00    +0.138 C 
BRANCH  16   4
ATOM      3  O   UNL     1      -4.824  -8.002  10.351  0.00  0.00    -0.276 OA
ATOM      4  N   UNL     1      -4.641 -10.209  11.076  0.00  0.00    -0.313 N 
ATOM     17  C   UNL     1      -5.206  -9.170  10.345  0.00  0.00    +0.216 C 
ATOM     24  H   UNL     1      -5.036 -11.141  10.994  0.00  0.00    +0.149 HD
BRANCH  17   9
ATOM      9  C   UNL     1      -6.357  -9.620   9.499  0.00  0.00    +0.075 C 
ATOM     11  C   UNL     1      -7.156  -8.409   9.002  0.00  0.00    +0.013 C 
ATOM     12  C   UNL     1      -7.331 -10.469  10.317  0.00  0.00    +0.013 C 
ATOM     13  C   UNL     1      -8.592  -8.641   9.461  0.00  0.00    +0.001 C 
ATOM     14  C   UNL     1      -8.451  -9.510  10.697  0.00  0.00    +0.001 C 
ENDBRANCH  17   9
ENDBRANCH  16   4
ENDBRANCH   7  16
TORSDOF 7
ENDMDL
MODEL 8
REMARK VINA RESULT:      -4.4      1.733      4.099
REMARK  Name = 75536565
REMARK  7 active torsions:
REMARK  status: ('A' for Active; 'I' for Inactive)
REMARK    1  A    between atoms: O_2  and  C_8
REMARK    2  A    between atoms: N_4  and  C_16
REMARK    3  A    between atoms: N_5  and  C_10
REMARK    4  A    between atoms: N_5  and  C_18
REMARK    5  A    between atoms: C_7  and  C_16
REMARK    6  A    between atoms: C_9  and  C_17
REMARK    7  A    between atoms: C_18  and  C_19
REMARK                            x       y       z     vdW  Elec       q    Type
REMARK                         _______ _______ _______ _____ _____    ______ ____
ROOT
ATOM      1  O   UNL     1      -0.762  -1.707  23.166  0.00  0.00    -0.371 OA
ATOM      7  C   UNL     1      -1.262  -1.825  24.510  0.00  0.00    +0.165 C 
ATOM      8  C   UNL     1      -1.035  -0.469  25.164  0.00  0.00    +0.164 C 
ATOM     10  C   UNL     1       0.270  -0.046  24.516  0.00  0.00    +0.111 C 
ATOM     15  C   UNL     1       0.070  -0.536  23.091  0.00  0.00    +0.181 C 
ENDROOT
BRANCH   8   2
ATOM      2  O   UNL     1      -0.937  -0.573  26.572  0.00  0.00    -0.388 OA
ATOM     26  H   UNL     1      -0.988  -1.513  26.813  0.00  0.00    +0.210 HD
ENDBRANCH   8   2
BRANCH  10   5
ATOM      5  N   UNL     1       0.523   1.384  24.592  0.00  0.00    -0.305 NA
ATOM     25  H   UNL     1       0.052   1.847  23.815  0.00  0.00    +0.123 HD
BRANCH   5  18
ATOM     18  C   UNL     1       0.025   1.939  25.845  0.00  0.00    +0.118 C 
BRANCH  18  19
ATOM      6  N   UNL     1      -2.588   4.655  26.194  0.00  0.00    -0.263 NA
ATOM     19  C   UNL     1      -0.719   3.230  25.629  0.00  0.00    -0.015 A 
ATOM     20  C   UNL     1      -0.270   4.171  24.710  0.00  0.00    +0.008 A 
ATOM     21  C   UNL     1      -1.873   3.518  26.340  0.00  0.00    +0.115 A 
ATOM     22  C   UNL     1      -0.979   5.354  24.531  0.00  0.00    +0.020 A 
ATOM     23  C   UNL     1      -2.122   5.546  25.291  0.00  0.00    +0.111 A 
ENDBRANCH  18  19
ENDBRANCH   5  18
ENDBRANCH  10   5
BRANCH   7  16
ATOM     16  C   UNL     1      -2.722  -2.241  24.479  0.00  0.00    +0.138 C 
BRANCH  16   4
ATOM      3  O   UNL     1      -4.101  -0.348  26.197  0.00  0.00    -0.276 OA
ATOM      4  N   UNL     1      -3.565  -1.152  24.076  0.00  0.00    -0.313 N 
ATOM     17  C   UNL     1      -4.187  -0.290  24.972  0.00  0.00    +0.216 C 
ATOM     24  H   UNL     1      -3.703  -1.011  23.080  0.00  0.00    +0.149 HD
BRANCH  17   9
ATOM      9  C   UNL     1      -4.989   0.773  24.287  0.00  0.00    +0.075 C 
ATOM     11  C   UNL     1      -4.093   1.963  23.923  0.00  0.00    +0.013 C 
ATOM     12  C   UNL     1      -6.070   1.321  25.220  0.00  0.00    +0.013 C 
ATOM     13  C   UNL     1      -4.737   3.183  24.574  0.00  0.00    +0.001 C 
ATOM     14  C   UNL     1      -5.487   2.617  25.766  0.00  0.00    +0.001 C 
ENDBRANCH  17   9
ENDBRANCH  16   4
ENDBRANCH   7  16
TORSDOF 7
ENDMDL
MODEL 9
REMARK VINA RESULT:      -4.2      2.221      4.372
REMARK  Name = 75536565
REMARK  7 active torsions:
REMARK  status: ('A' for Active; 'I' for Inactive)
REMARK    1  A    between atoms: O_2  and  C_8
REMARK    2  A    between atoms: N_4  and  C_16
REMARK    3  A    between atoms: N_5  and  C_10
REMARK    4  A    between atoms: N_5  and  C_18
REMARK    5  A    between atoms: C_7  and  C_16
REMARK    6  A    between atoms: C_9  and  C_17
REMARK    7  A    between atoms: C_18  and  C_19
REMARK                            x       y       z     vdW  Elec       q    Type
REMARK                         _______ _______ _______ _____ _____    ______ ____
ROOT
ATOM      1  O   UNL     1      -6.258   2.663  25.139  0.00  0.00    -0.371 OA
ATOM      7  C   UNL     1      -5.298   1.819  24.480  0.00  0.00    +0.165 C 
ATOM      8  C   UNL     1      -3.941   2.192  25.062  0.00  0.00    +0.164 C 
ATOM     10  C   UNL     1      -4.117   3.682  25.283  0.00  0.00    +0.111 C 
ATOM     15  C   UNL     1      -5.554   3.746  25.772  0.00  0.00    +0.181 C 
ENDROOT
BRANCH   8   2
ATOM      2  O   UNL     1      -2.885   1.892  24.170  0.00  0.00    -0.388 OA
ATOM     26  H   UNL     1      -2.329   2.684  24.079  0.00  0.00    +0.210 HD
ENDBRANCH   8   2
BRANCH  10   5
ATOM      5  N   UNL     1      -3.170   4.247  26.231  0.00  0.00    -0.305 NA
ATOM     25  H   UNL     1      -2.830   3.506  26.844  0.00  0.00    +0.123 HD
BRANCH   5  18
ATOM     18  C   UNL     1      -2.034   4.850  25.544  0.00  0.00    +0.118 C 
BRANCH  18  19
ATOM      6  N   UNL     1       0.501   2.060  25.887  0.00  0.00    -0.263 NA
ATOM     19  C   UNL     1      -0.993   3.826  25.181  0.00  0.00    -0.015 A 
ATOM     20  C   UNL     1      -0.557   3.679  23.870  0.00  0.00    +0.008 A 
ATOM     21  C   UNL     1      -0.437   2.998  26.145  0.00  0.00    +0.115 A 
ATOM     22  C   UNL     1       0.408   2.725  23.565  0.00  0.00    +0.020 A 
ATOM     23  C   UNL     1       0.900   1.947  24.601  0.00  0.00    +0.111 A 
ENDBRANCH  18  19
ENDBRANCH   5  18
ENDBRANCH  10   5
BRANCH   7  16
ATOM     16  C   UNL     1      -5.664   0.361  24.695  0.00  0.00    +0.138 C 
BRANCH  16   4
ATOM      3  O   UNL     1      -4.534  -2.052  23.542  0.00  0.00    -0.276 OA
ATOM      4  N   UNL     1      -4.542  -0.392  25.176  0.00  0.00    -0.313 N 
ATOM     17  C   UNL     1      -4.066  -1.541  24.557  0.00  0.00    +0.216 C 
ATOM     24  H   UNL     1      -4.075  -0.053  26.013  0.00  0.00    +0.149 HD
BRANCH  17   9
ATOM      9  C   UNL     1      -2.869  -2.117  25.250  0.00  0.00    +0.075 C 
ATOM     11  C   UNL     1      -2.247  -1.076  26.188  0.00  0.00    +0.013 C 
ATOM     12  C   UNL     1      -1.783  -2.484  24.237  0.00  0.00    +0.013 C 
ATOM     13  C   UNL     1      -0.790  -0.944  25.756  0.00  0.00    +0.001 C 
ATOM     14  C   UNL     1      -0.803  -1.320  24.285  0.00  0.00    +0.001 C 
ENDBRANCH  17   9
ENDBRANCH  16   4
ENDBRANCH   7  16
TORSDOF 7
ENDMDL
MODEL 10
REMARK VINA RESULT:      -3.9      2.749      4.919
REMARK  Name = 75536565
REMARK  7 active torsions:
REMARK  status: ('A' for Active; 'I' for Inactive)
REMARK    1  A    between atoms: O_2  and  C_8
REMARK    2  A    between atoms: N_4  and  C_16
REMARK    3  A    between atoms: N_5  and  C_10
REMARK    4  A    between atoms: N_5  and  C_18
REMARK    5  A    between atoms: C_7  and  C_16
REMARK    6  A    between atoms: C_9  and  C_17
REMARK    7  A    between atoms: C_18  and  C_19
REMARK                            x       y       z     vdW  Elec       q    Type
REMARK                         _______ _______ _______ _____ _____    ______ ____
ROOT
ATOM      1  O   UNL     1      -0.568   1.752  25.758  0.00  0.00    -0.371 OA
ATOM      7  C   UNL     1       0.133   0.879  24.855  0.00  0.00    +0.165 C 
ATOM      8  C   UNL     1      -0.923  -0.039  24.254  0.00  0.00    +0.164 C 
ATOM     10  C   UNL     1      -1.866  -0.210  25.429  0.00  0.00    +0.111 C 
ATOM     15  C   UNL     1      -1.864   1.189  26.023  0.00  0.00    +0.181 C 
ENDROOT
BRANCH   8   2
ATOM      2  O   UNL     1      -0.369  -1.264  23.815  0.00  0.00    -0.388 OA
ATOM     26  H   UNL     1       0.402  -1.067  23.256  0.00  0.00    +0.210 HD
ENDBRANCH   8   2
BRANCH  10   5
ATOM      5  N   UNL     1      -3.195  -0.664  25.051  0.00  0.00    -0.305 NA
ATOM     25  H   UNL     1      -3.815  -0.585  25.857  0.00  0.00    +0.123 HD
BRANCH   5  18
ATOM     18  C   UNL     1      -3.734   0.141  23.961  0.00  0.00    +0.118 C 
BRANCH  18  19
ATOM      6  N   UNL     1      -4.274   3.865  24.370  0.00  0.00    -0.263 NA
ATOM     19  C   UNL     1      -4.293   1.448  24.454  0.00  0.00    -0.015 A 
ATOM     20  C   UNL     1      -5.303   1.483  25.409  0.00  0.00    +0.008 A 
ATOM     21  C   UNL     1      -3.817   2.658  23.971  0.00  0.00    +0.115 A 
ATOM     22  C   UNL     1      -5.799   2.706  25.845  0.00  0.00    +0.020 A 
ATOM     23  C   UNL     1      -5.255   3.858  25.300  0.00  0.00    +0.111 A 
ENDBRANCH  18  19
ENDBRANCH   5  18
ENDBRANCH  10   5
BRANCH   7  16
ATOM     16  C   UNL     1       0.874   1.702  23.817  0.00  0.00    +0.138 C 
BRANCH  16   4
ATOM      3  O   UNL     1       1.468  -0.348  21.849  0.00  0.00    -0.276 OA
ATOM      4  N   UNL     1       2.154   1.129  23.514  0.00  0.00    -0.313 N 
ATOM     17  C   UNL     1       2.347   0.147  22.550  0.00  0.00    +0.216 C 
ATOM     24  H   UNL     1       2.955   1.471  24.037  0.00  0.00    +0.149 HD
BRANCH  17   9
ATOM      9  C   UNL     1       3.783  -0.258  22.418  0.00  0.00    +0.075 C 
ATOM     11  C   UNL     1       4.136  -1.317  23.469  0.00  0.00    +0.013 C 
ATOM     12  C   UNL     1       4.707   0.932  22.683  0.00  0.00    +0.013 C 
ATOM     13  C   UNL     1       5.319  -0.752  24.249  0.00  0.00    +0.001 C 
ATOM     14  C   UNL     1       5.161   0.752  24.125  0.00  0.00    +0.001 C 
ENDBRANCH  17   9
ENDBRANCH  16   4
ENDBRANCH   7  16
TORSDOF 7
ENDMDL
