MODEL 1
REMARK VINA RESULT:      -3.2      0.000      0.000
REMARK  Name = 75536874
REMARK  6 active torsions:
REMARK  status: ('A' for Active; 'I' for Inactive)
REMARK    1  A    between atoms: O_5  and  C_9
REMARK    2  A    between atoms: O_5  and  C_15
REMARK    3  A    between atoms: N_8  and  C_16
REMARK    4  A    between atoms: C_16  and  C_17
REMARK    5  A    between atoms: C_17  and  C_23
REMARK    6  A    between atoms: C_20  and  C_24
REMARK                            x       y       z     vdW  Elec       q    Type
REMARK                         _______ _______ _______ _____ _____    ______ ____
ROOT
ATOM      4  O   UNL     1      -1.678   5.125  24.504  0.00  0.00    -0.375 OA
ATOM      6  O   UNL     1       0.105   0.234  24.152  0.00  0.00    -0.253 OA
ATOM      7  N   UNL     1      -0.145   2.478  24.738  0.00  0.00    -0.280 N 
ATOM      8  N   UNL     1       1.741   1.724  23.520  0.00  0.00    -0.299 N 
ATOM      9  C   UNL     1      -2.602   2.844  24.614  0.00  0.00    +0.216 C 
ATOM     10  C   UNL     1      -1.436   2.221  25.383  0.00  0.00    +0.156 C 
ATOM     11  C   UNL     1       0.375   3.854  24.715  0.00  0.00    +0.137 C 
ATOM     12  C   UNL     1      -2.786   4.331  24.907  0.00  0.00    +0.206 C 
ATOM     13  C   UNL     1      -0.518   4.936  25.308  0.00  0.00    +0.179 C 
ATOM     14  C   UNL     1       0.536   1.391  24.136  0.00  0.00    +0.302 C 
ATOM     25  H   UNL     1       2.078   2.679  23.536  0.00  0.00    +0.150 HD
ENDROOT
BRANCH   9   5
ATOM      5  O   UNL     1      -3.793   2.158  24.995  0.00  0.00    -0.485 OA
BRANCH   5  15
ATOM     15  C   UNL     1      -3.803   0.802  24.811  0.00  0.00    +0.121 A 
ATOM     18  C   UNL     1      -3.639  -0.051  25.903  0.00  0.00    +0.046 A 
ATOM     19  C   UNL     1      -3.977   0.272  23.532  0.00  0.00    +0.046 A 
ATOM     20  C   UNL     1      -3.821  -1.962  24.437  0.00  0.00    +0.055 A 
ATOM     21  C   UNL     1      -3.648  -1.433  25.716  0.00  0.00    +0.016 A 
ATOM     22  C   UNL     1      -3.986  -1.110  23.345  0.00  0.00    +0.016 A 
BRANCH  20  24
ATOM      1  F   UNL     1      -3.863  -4.151  25.404  0.00  0.00    -0.166 F 
ATOM      2  F   UNL     1      -2.739  -3.910  23.564  0.00  0.00    -0.166 F 
ATOM      3  F   UNL     1      -4.913  -3.866  23.521  0.00  0.00    -0.166 F 
ATOM     24  C   UNL     1      -3.832  -3.440  24.236  0.00  0.00    +0.417 C 
ENDBRANCH  20  24
ENDBRANCH   5  15
ENDBRANCH   9   5
BRANCH   8  16
ATOM     16  C   UNL     1       2.584   0.757  22.852  0.00  0.00    +0.105 C 
BRANCH  16  17
ATOM     17  C   UNL     1       4.029   1.227  22.737  0.00  0.00    +0.015 C 
ATOM     23  C   UNL     1       5.010   0.286  23.421  0.00  0.00    +0.005 C 
ENDBRANCH  16  17
ENDBRANCH   8  16
TORSDOF 5
ENDMDL
MODEL 2
REMARK VINA RESULT:      -2.1      3.382      4.756
REMARK  Name = 75536874
REMARK  6 active torsions:
REMARK  status: ('A' for Active; 'I' for Inactive)
REMARK    1  A    between atoms: O_5  and  C_9
REMARK    2  A    between atoms: O_5  and  C_15
REMARK    3  A    between atoms: N_8  and  C_16
REMARK    4  A    between atoms: C_16  and  C_17
REMARK    5  A    between atoms: C_17  and  C_23
REMARK    6  A    between atoms: C_20  and  C_24
REMARK                            x       y       z     vdW  Elec       q    Type
REMARK                         _______ _______ _______ _____ _____    ______ ____
ROOT
ATOM      4  O   UNL     1      -0.505  -0.751  25.399  0.00  0.00    -0.375 OA
ATOM      6  O   UNL     1       3.064   2.027  22.797  0.00  0.00    -0.253 OA
ATOM      7  N   UNL     1       1.436   0.451  23.349  0.00  0.00    -0.280 N 
ATOM      8  N   UNL     1       3.651  -0.198  22.821  0.00  0.00    -0.299 N 
ATOM      9  C   UNL     1       0.034   1.625  25.035  0.00  0.00    +0.216 C 
ATOM     10  C   UNL     1       0.425   1.491  23.563  0.00  0.00    +0.156 C 
ATOM     11  C   UNL     1       1.062  -0.956  23.560  0.00  0.00    +0.137 C 
ATOM     12  C   UNL     1      -0.989   0.582  25.480  0.00  0.00    +0.206 C 
ATOM     13  C   UNL     1      -0.351  -1.223  24.064  0.00  0.00    +0.179 C 
ATOM     14  C   UNL     1       2.743   0.848  22.975  0.00  0.00    +0.302 C 
ATOM     25  H   UNL     1       3.356  -1.157  22.959  0.00  0.00    +0.150 HD
ENDROOT
BRANCH   9   5
ATOM      5  O   UNL     1      -0.533   2.921  25.220  0.00  0.00    -0.485 OA
BRANCH   5  15
ATOM     15  C   UNL     1      -1.894   2.983  25.335  0.00  0.00    +0.121 A 
ATOM     18  C   UNL     1      -2.478   3.838  26.270  0.00  0.00    +0.046 A 
ATOM     19  C   UNL     1      -2.701   2.190  24.517  0.00  0.00    +0.046 A 
ATOM     20  C   UNL     1      -4.671   3.108  25.570  0.00  0.00    +0.055 A 
ATOM     21  C   UNL     1      -3.866   3.901  26.388  0.00  0.00    +0.016 A 
ATOM     22  C   UNL     1      -4.089   2.253  24.635  0.00  0.00    +0.016 A 
BRANCH  20  24
ATOM      1  F   UNL     1      -6.629   2.672  26.875  0.00  0.00    -0.166 F 
ATOM      2  F   UNL     1      -6.820   2.482  24.723  0.00  0.00    -0.166 F 
ATOM      3  F   UNL     1      -6.632   4.452  25.626  0.00  0.00    -0.166 F 
ATOM     24  C   UNL     1      -6.155   3.175  25.695  0.00  0.00    +0.417 C 
ENDBRANCH  20  24
ENDBRANCH   5  15
ENDBRANCH   9   5
BRANCH   8  16
ATOM     16  C   UNL     1       5.033   0.001  22.443  0.00  0.00    +0.105 C 
BRANCH  16  17
ATOM     17  C   UNL     1       5.945   0.184  23.650  0.00  0.00    +0.015 C 
ATOM     23  C   UNL     1       5.746  -0.893  24.706  0.00  0.00    +0.005 C 
ENDBRANCH  16  17
ENDBRANCH   8  16
TORSDOF 5
ENDMDL
MODEL 3
REMARK VINA RESULT:      -1.8      3.568      5.936
REMARK  Name = 75536874
REMARK  6 active torsions:
REMARK  status: ('A' for Active; 'I' for Inactive)
REMARK    1  A    between atoms: O_5  and  C_9
REMARK    2  A    between atoms: O_5  and  C_15
REMARK    3  A    between atoms: N_8  and  C_16
REMARK    4  A    between atoms: C_16  and  C_17
REMARK    5  A    between atoms: C_17  and  C_23
REMARK    6  A    between atoms: C_20  and  C_24
REMARK                            x       y       z     vdW  Elec       q    Type
REMARK                         _______ _______ _______ _____ _____    ______ ____
ROOT
ATOM      4  O   UNL     1       1.777   0.419  22.753  0.00  0.00    -0.375 OA
ATOM      6  O   UNL     1      -2.587  -0.699  25.385  0.00  0.00    -0.253 OA
ATOM      7  N   UNL     1      -0.369  -0.653  24.665  0.00  0.00    -0.280 N 
ATOM      8  N   UNL     1      -1.678  -2.620  24.500  0.00  0.00    -0.299 N 
ATOM      9  C   UNL     1      -0.090   1.655  23.781  0.00  0.00    +0.216 C 
ATOM     10  C   UNL     1      -0.229   0.764  25.016  0.00  0.00    +0.156 C 
ATOM     11  C   UNL     1       0.780  -1.354  24.071  0.00  0.00    +0.137 C 
ATOM     12  C   UNL     1       1.330   1.684  23.222  0.00  0.00    +0.206 C 
ATOM     13  C   UNL     1       2.024  -0.521  23.794  0.00  0.00    +0.179 C 
ATOM     14  C   UNL     1      -1.619  -1.282  24.887  0.00  0.00    +0.302 C 
ATOM     25  H   UNL     1      -0.863  -3.076  24.108  0.00  0.00    +0.150 HD
ENDROOT
BRANCH   9   5
ATOM      5  O   UNL     1      -0.455   2.982  24.157  0.00  0.00    -0.485 OA
BRANCH   5  15
ATOM     15  C   UNL     1      -1.756   3.175  24.531  0.00  0.00    +0.121 A 
ATOM     18  C   UNL     1      -2.053   3.955  25.649  0.00  0.00    +0.046 A 
ATOM     19  C   UNL     1      -2.789   2.591  23.795  0.00  0.00    +0.046 A 
ATOM     20  C   UNL     1      -4.410   3.567  25.295  0.00  0.00    +0.055 A 
ATOM     21  C   UNL     1      -3.380   4.151  26.031  0.00  0.00    +0.016 A 
ATOM     22  C   UNL     1      -4.115   2.788  24.177  0.00  0.00    +0.016 A 
BRANCH  20  24
ATOM      1  F   UNL     1      -6.731   3.135  24.901  0.00  0.00    -0.166 F 
ATOM      2  F   UNL     1      -6.215   5.088  25.691  0.00  0.00    -0.166 F 
ATOM      3  F   UNL     1      -6.085   3.332  26.967  0.00  0.00    -0.166 F 
ATOM     24  C   UNL     1      -5.829   3.778  25.703  0.00  0.00    +0.417 C 
ENDBRANCH  20  24
ENDBRANCH   5  15
ENDBRANCH   9   5
BRANCH   8  16
ATOM     16  C   UNL     1      -2.864  -3.435  24.644  0.00  0.00    +0.105 C 
BRANCH  16  17
ATOM     17  C   UNL     1      -3.907  -3.139  23.573  0.00  0.00    +0.015 C 
ATOM     23  C   UNL     1      -4.627  -1.818  23.802  0.00  0.00    +0.005 C 
ENDBRANCH  16  17
ENDBRANCH   8  16
TORSDOF 5
ENDMDL
MODEL 4
REMARK VINA RESULT:      -1.8      3.362      5.944
REMARK  Name = 75536874
REMARK  6 active torsions:
REMARK  status: ('A' for Active; 'I' for Inactive)
REMARK    1  A    between atoms: O_5  and  C_9
REMARK    2  A    between atoms: O_5  and  C_15
REMARK    3  A    between atoms: N_8  and  C_16
REMARK    4  A    between atoms: C_16  and  C_17
REMARK    5  A    between atoms: C_17  and  C_23
REMARK    6  A    between atoms: C_20  and  C_24
REMARK                            x       y       z     vdW  Elec       q    Type
REMARK                         _______ _______ _______ _____ _____    ______ ____
ROOT
ATOM      4  O   UNL     1      -4.850   3.337  26.496  0.00  0.00    -0.375 OA
ATOM      6  O   UNL     1      -2.715  -0.347  23.479  0.00  0.00    -0.253 OA
ATOM      7  N   UNL     1      -4.150   1.288  24.323  0.00  0.00    -0.280 N 
ATOM      8  N   UNL     1      -4.841  -0.967  24.108  0.00  0.00    -0.299 N 
ATOM      9  C   UNL     1      -2.630   2.814  25.566  0.00  0.00    +0.216 C 
ATOM     10  C   UNL     1      -3.122   2.327  24.203  0.00  0.00    +0.156 C 
ATOM     11  C   UNL     1      -5.468   1.652  24.865  0.00  0.00    +0.137 C 
ATOM     12  C   UNL     1      -3.557   3.846  26.203  0.00  0.00    +0.206 C 
ATOM     13  C   UNL     1      -5.642   3.090  25.338  0.00  0.00    +0.179 C 
ATOM     14  C   UNL     1      -3.820  -0.034  23.936  0.00  0.00    +0.302 C 
ATOM     25  H   UNL     1      -5.742  -0.679  24.470  0.00  0.00    +0.150 HD
ENDROOT
BRANCH   9   5
ATOM      5  O   UNL     1      -1.348   3.411  25.380  0.00  0.00    -0.485 OA
BRANCH   5  15
ATOM     15  C   UNL     1      -0.409   2.655  24.734  0.00  0.00    +0.121 A 
ATOM     18  C   UNL     1       0.558   3.272  23.939  0.00  0.00    +0.046 A 
ATOM     19  C   UNL     1      -0.418   1.266  24.869  0.00  0.00    +0.046 A 
ATOM     20  C   UNL     1       1.505   1.113  23.415  0.00  0.00    +0.055 A 
ATOM     21  C   UNL     1       1.515   2.501  23.280  0.00  0.00    +0.016 A 
ATOM     22  C   UNL     1       0.539   0.495  24.209  0.00  0.00    +0.016 A 
BRANCH  20  24
ATOM      1  F   UNL     1       2.869  -0.853  23.382  0.00  0.00    -0.166 F 
ATOM      2  F   UNL     1       3.709   0.942  22.499  0.00  0.00    -0.166 F 
ATOM      3  F   UNL     1       2.113  -0.125  21.478  0.00  0.00    -0.166 F 
ATOM     24  C   UNL     1       2.528   0.288  22.710  0.00  0.00    +0.417 C 
ENDBRANCH  20  24
ENDBRANCH   5  15
ENDBRANCH   9   5
BRANCH   8  16
ATOM     16  C   UNL     1      -4.701  -2.367  23.772  0.00  0.00    +0.105 C 
BRANCH  16  17
ATOM     17  C   UNL     1      -3.529  -3.023  24.493  0.00  0.00    +0.015 C 
ATOM     23  C   UNL     1      -3.272  -2.421  25.867  0.00  0.00    +0.005 C 
ENDBRANCH  16  17
ENDBRANCH   8  16
TORSDOF 5
ENDMDL
MODEL 5
REMARK VINA RESULT:      -1.5      4.168      5.905
REMARK  Name = 75536874
REMARK  6 active torsions:
REMARK  status: ('A' for Active; 'I' for Inactive)
REMARK    1  A    between atoms: O_5  and  C_9
REMARK    2  A    between atoms: O_5  and  C_15
REMARK    3  A    between atoms: N_8  and  C_16
REMARK    4  A    between atoms: C_16  and  C_17
REMARK    5  A    between atoms: C_17  and  C_23
REMARK    6  A    between atoms: C_20  and  C_24
REMARK                            x       y       z     vdW  Elec       q    Type
REMARK                         _______ _______ _______ _____ _____    ______ ____
ROOT
ATOM      4  O   UNL     1      -2.527  -2.763  25.436  0.00  0.00    -0.375 OA
ATOM      6  O   UNL     1       0.282   1.181  23.493  0.00  0.00    -0.253 OA
ATOM      7  N   UNL     1      -0.854  -0.842  23.726  0.00  0.00    -0.280 N 
ATOM      8  N   UNL     1       1.491  -0.776  23.404  0.00  0.00    -0.299 N 
ATOM      9  C   UNL     1      -2.678  -0.307  25.330  0.00  0.00    +0.216 C 
ATOM     10  C   UNL     1      -2.140  -0.161  23.906  0.00  0.00    +0.156 C 
ATOM     11  C   UNL     1      -0.817  -2.312  23.777  0.00  0.00    +0.137 C 
ATOM     12  C   UNL     1      -3.385  -1.639  25.568  0.00  0.00    +0.206 C 
ATOM     13  C   UNL     1      -2.128  -3.022  24.093  0.00  0.00    +0.179 C 
ATOM     14  C   UNL     1       0.307  -0.053  23.537  0.00  0.00    +0.302 C 
ATOM     25  H   UNL     1       1.479  -1.788  23.429  0.00  0.00    +0.150 HD
ENDROOT
BRANCH   9   5
ATOM      5  O   UNL     1      -3.613   0.748  25.553  0.00  0.00    -0.485 OA
BRANCH   5  15
ATOM     15  C   UNL     1      -3.156   2.022  25.356  0.00  0.00    +0.121 A 
ATOM     18  C   UNL     1      -1.863   2.368  25.749  0.00  0.00    +0.046 A 
ATOM     19  C   UNL     1      -3.984   2.977  24.764  0.00  0.00    +0.046 A 
ATOM     20  C   UNL     1      -2.225   4.621  24.957  0.00  0.00    +0.055 A 
ATOM     21  C   UNL     1      -1.397   3.667  25.549  0.00  0.00    +0.016 A 
ATOM     22  C   UNL     1      -3.518   4.276  24.565  0.00  0.00    +0.016 A 
BRANCH  20  24
ATOM      1  F   UNL     1      -0.366   6.097  24.651  0.00  0.00    -0.166 F 
ATOM      2  F   UNL     1      -2.071   6.876  25.742  0.00  0.00    -0.166 F 
ATOM      3  F   UNL     1      -2.206   6.569  23.594  0.00  0.00    -0.166 F 
ATOM     24  C   UNL     1      -1.727   6.010  24.743  0.00  0.00    +0.417 C 
ENDBRANCH  20  24
ENDBRANCH   5  15
ENDBRANCH   9   5
BRANCH   8  16
ATOM     16  C   UNL     1       2.781  -0.154  23.203  0.00  0.00    +0.105 C 
BRANCH  16  17
ATOM     17  C   UNL     1       3.935  -1.069  23.599  0.00  0.00    +0.015 C 
ATOM     23  C   UNL     1       5.246  -0.318  23.781  0.00  0.00    +0.005 C 
ENDBRANCH  16  17
ENDBRANCH   8  16
TORSDOF 5
ENDMDL
MODEL 6
REMARK VINA RESULT:      -1.0      4.367      7.552
REMARK  Name = 75536874
REMARK  6 active torsions:
REMARK  status: ('A' for Active; 'I' for Inactive)
REMARK    1  A    between atoms: O_5  and  C_9
REMARK    2  A    between atoms: O_5  and  C_15
REMARK    3  A    between atoms: N_8  and  C_16
REMARK    4  A    between atoms: C_16  and  C_17
REMARK    5  A    between atoms: C_17  and  C_23
REMARK    6  A    between atoms: C_20  and  C_24
REMARK                            x       y       z     vdW  Elec       q    Type
REMARK                         _______ _______ _______ _____ _____    ______ ____
ROOT
ATOM      4  O   UNL     1      -1.236  -1.752  24.943  0.00  0.00    -0.375 OA
ATOM      6  O   UNL     1      -1.692   3.355  23.977  0.00  0.00    -0.253 OA
ATOM      7  N   UNL     1      -1.372   1.311  25.053  0.00  0.00    -0.280 N 
ATOM      8  N   UNL     1      -3.205   2.712  25.589  0.00  0.00    -0.299 N 
ATOM      9  C   UNL     1      -0.401  -0.138  23.280  0.00  0.00    +0.216 C 
ATOM     10  C   UNL     1      -0.177   1.017  24.256  0.00  0.00    +0.156 C 
ATOM     11  C   UNL     1      -1.821   0.324  26.048  0.00  0.00    +0.137 C 
ATOM     12  C   UNL     1      -0.264  -1.510  23.935  0.00  0.00    +0.206 C 
ATOM     13  C   UNL     1      -1.038  -0.980  26.123  0.00  0.00    +0.179 C 
ATOM     14  C   UNL     1      -2.064   2.523  24.811  0.00  0.00    +0.302 C 
ATOM     25  H   UNL     1      -3.477   2.019  26.276  0.00  0.00    +0.150 HD
ENDROOT
BRANCH   9   5
ATOM      5  O   UNL     1       0.575  -0.031  22.245  0.00  0.00    -0.485 OA
BRANCH   5  15
ATOM     15  C   UNL     1       1.885  -0.032  22.638  0.00  0.00    +0.121 A 
ATOM     18  C   UNL     1       2.656   1.123  22.500  0.00  0.00    +0.046 A 
ATOM     19  C   UNL     1       2.452  -1.188  23.176  0.00  0.00    +0.046 A 
ATOM     20  C   UNL     1       4.558  -0.034  23.437  0.00  0.00    +0.055 A 
ATOM     21  C   UNL     1       3.992   1.122  22.899  0.00  0.00    +0.016 A 
ATOM     22  C   UNL     1       3.788  -1.189  23.576  0.00  0.00    +0.016 A 
BRANCH  20  24
ATOM      1  F   UNL     1       6.850  -0.453  22.890  0.00  0.00    -0.166 F 
ATOM      2  F   UNL     1       6.238  -0.849  24.934  0.00  0.00    -0.166 F 
ATOM      3  F   UNL     1       6.426   1.202  24.235  0.00  0.00    -0.166 F 
ATOM     24  C   UNL     1       5.987  -0.036  23.865  0.00  0.00    +0.417 C 
ENDBRANCH  20  24
ENDBRANCH   5  15
ENDBRANCH   9   5
BRANCH   8  16
ATOM     16  C   UNL     1      -4.046   3.885  25.491  0.00  0.00    +0.105 C 
BRANCH  16  17
ATOM     17  C   UNL     1      -5.529   3.535  25.462  0.00  0.00    +0.015 C 
ATOM     23  C   UNL     1      -5.778   2.046  25.271  0.00  0.00    +0.005 C 
ENDBRANCH  16  17
ENDBRANCH   8  16
TORSDOF 5
ENDMDL
MODEL 7
REMARK VINA RESULT:      -1.0      2.393      4.931
REMARK  Name = 75536874
REMARK  6 active torsions:
REMARK  status: ('A' for Active; 'I' for Inactive)
REMARK    1  A    between atoms: O_5  and  C_9
REMARK    2  A    between atoms: O_5  and  C_15
REMARK    3  A    between atoms: N_8  and  C_16
REMARK    4  A    between atoms: C_16  and  C_17
REMARK    5  A    between atoms: C_17  and  C_23
REMARK    6  A    between atoms: C_20  and  C_24
REMARK                            x       y       z     vdW  Elec       q    Type
REMARK                         _______ _______ _______ _____ _____    ______ ____
ROOT
ATOM      4  O   UNL     1      -0.021   4.682  25.682  0.00  0.00    -0.375 OA
ATOM      6  O   UNL     1      -4.313   1.869  24.737  0.00  0.00    -0.253 OA
ATOM      7  N   UNL     1      -2.663   3.515  24.647  0.00  0.00    -0.280 N 
ATOM      8  N   UNL     1      -4.883   4.030  25.289  0.00  0.00    -0.299 N 
ATOM      9  C   UNL     1      -0.599   2.312  25.338  0.00  0.00    +0.216 C 
ATOM     10  C   UNL     1      -1.641   2.544  24.244  0.00  0.00    +0.156 C 
ATOM     11  C   UNL     1      -2.274   4.924  24.820  0.00  0.00    +0.137 C 
ATOM     12  C   UNL     1       0.482   3.390  25.373  0.00  0.00    +0.206 C 
ATOM     13  C   UNL     1      -0.799   5.257  24.637  0.00  0.00    +0.179 C 
ATOM     14  C   UNL     1      -3.980   3.050  24.881  0.00  0.00    +0.302 C 
ATOM     25  H   UNL     1      -4.586   4.994  25.384  0.00  0.00    +0.150 HD
ENDROOT
BRANCH   9   5
ATOM      5  O   UNL     1       0.025   1.054  25.088  0.00  0.00    -0.485 OA
BRANCH   5  15
ATOM     15  C   UNL     1      -0.808  -0.015  24.902  0.00  0.00    +0.121 A 
ATOM     18  C   UNL     1      -0.466  -1.016  23.992  0.00  0.00    +0.046 A 
ATOM     19  C   UNL     1      -2.001  -0.104  25.621  0.00  0.00    +0.046 A 
ATOM     20  C   UNL     1      -2.507  -2.194  24.521  0.00  0.00    +0.055 A 
ATOM     21  C   UNL     1      -1.315  -2.106  23.802  0.00  0.00    +0.016 A 
ATOM     22  C   UNL     1      -2.850  -1.194  25.430  0.00  0.00    +0.016 A 
BRANCH  20  24
ATOM      1  F   UNL     1      -2.901  -4.318  23.490  0.00  0.00    -0.166 F 
ATOM      2  F   UNL     1      -4.621  -3.026  23.767  0.00  0.00    -0.166 F 
ATOM      3  F   UNL     1      -3.711  -4.005  25.483  0.00  0.00    -0.166 F 
ATOM     24  C   UNL     1      -3.415  -3.359  24.317  0.00  0.00    +0.417 C 
ENDBRANCH  20  24
ENDBRANCH   5  15
ENDBRANCH   9   5
BRANCH   8  16
ATOM     16  C   UNL     1      -6.274   3.756  25.577  0.00  0.00    +0.105 C 
BRANCH  16  17
ATOM     17  C   UNL     1      -6.591   2.265  25.542  0.00  0.00    +0.015 C 
ATOM     23  C   UNL     1      -6.640   1.641  26.929  0.00  0.00    +0.005 C 
ENDBRANCH  16  17
ENDBRANCH   8  16
TORSDOF 5
ENDMDL
MODEL 8
REMARK VINA RESULT:       0.5      4.055      5.264
REMARK  Name = 75536874
REMARK  6 active torsions:
REMARK  status: ('A' for Active; 'I' for Inactive)
REMARK    1  A    between atoms: O_5  and  C_9
REMARK    2  A    between atoms: O_5  and  C_15
REMARK    3  A    between atoms: N_8  and  C_16
REMARK    4  A    between atoms: C_16  and  C_17
REMARK    5  A    between atoms: C_17  and  C_23
REMARK    6  A    between atoms: C_20  and  C_24
REMARK                            x       y       z     vdW  Elec       q    Type
REMARK                         _______ _______ _______ _____ _____    ______ ____
ROOT
ATOM      4  O   UNL     1      -0.942  -1.413  26.423  0.00  0.00    -0.375 OA
ATOM      6  O   UNL     1       0.817   0.324  21.829  0.00  0.00    -0.253 OA
ATOM      7  N   UNL     1       0.406  -1.010  23.697  0.00  0.00    -0.280 N 
ATOM      8  N   UNL     1       2.582  -0.218  23.203  0.00  0.00    -0.299 N 
ATOM      9  C   UNL     1      -1.869  -0.314  24.423  0.00  0.00    +0.216 C 
ATOM     10  C   UNL     1      -1.028  -1.078  23.400  0.00  0.00    +0.156 C 
ATOM     11  C   UNL     1       0.916  -1.699  24.893  0.00  0.00    +0.137 C 
ATOM     12  C   UNL     1      -2.127  -1.111  25.699  0.00  0.00    +0.206 C 
ATOM     13  C   UNL     1      -0.114  -2.380  25.785  0.00  0.00    +0.179 C 
ATOM     14  C   UNL     1       1.239  -0.257  22.834  0.00  0.00    +0.302 C 
ATOM     25  H   UNL     1       2.903  -0.717  24.024  0.00  0.00    +0.150 HD
ENDROOT
BRANCH   9   5
ATOM      5  O   UNL     1      -3.125  -0.011  23.817  0.00  0.00    -0.485 OA
BRANCH   5  15
ATOM     15  C   UNL     1      -3.733   1.147  24.217  0.00  0.00    +0.121 A 
ATOM     18  C   UNL     1      -4.949   1.098  24.898  0.00  0.00    +0.046 A 
ATOM     19  C   UNL     1      -3.137   2.379  23.942  0.00  0.00    +0.046 A 
ATOM     20  C   UNL     1      -4.974   3.509  25.029  0.00  0.00    +0.055 A 
ATOM     21  C   UNL     1      -5.570   2.278  25.305  0.00  0.00    +0.016 A 
ATOM     22  C   UNL     1      -3.758   3.560  24.348  0.00  0.00    +0.016 A 
BRANCH  20  24
ATOM      1  F   UNL     1      -6.871   4.580  26.020  0.00  0.00    -0.166 F 
ATOM      2  F   UNL     1      -5.841   5.662  24.448  0.00  0.00    -0.166 F 
ATOM      3  F   UNL     1      -4.915   5.449  26.404  0.00  0.00    -0.166 F 
ATOM     24  C   UNL     1      -5.637   4.772  25.464  0.00  0.00    +0.417 C 
ENDBRANCH  20  24
ENDBRANCH   5  15
ENDBRANCH   9   5
BRANCH   8  16
ATOM     16  C   UNL     1       3.591   0.497  22.451  0.00  0.00    +0.105 C 
BRANCH  16  17
ATOM     17  C   UNL     1       5.005   0.056  22.812  0.00  0.00    +0.015 C 
ATOM     23  C   UNL     1       5.346   0.311  24.273  0.00  0.00    +0.005 C 
ENDBRANCH  16  17
ENDBRANCH   8  16
TORSDOF 5
ENDMDL
MODEL 9
REMARK VINA RESULT:       0.6      4.318      7.219
REMARK  Name = 75536874
REMARK  6 active torsions:
REMARK  status: ('A' for Active; 'I' for Inactive)
REMARK    1  A    between atoms: O_5  and  C_9
REMARK    2  A    between atoms: O_5  and  C_15
REMARK    3  A    between atoms: N_8  and  C_16
REMARK    4  A    between atoms: C_16  and  C_17
REMARK    5  A    between atoms: C_17  and  C_23
REMARK    6  A    between atoms: C_20  and  C_24
REMARK                            x       y       z     vdW  Elec       q    Type
REMARK                         _______ _______ _______ _____ _____    ______ ____
ROOT
ATOM      4  O   UNL     1       0.101   2.296  26.270  0.00  0.00    -0.375 OA
ATOM      6  O   UNL     1      -3.949   2.219  22.982  0.00  0.00    -0.253 OA
ATOM      7  N   UNL     1      -2.271   2.938  24.433  0.00  0.00    -0.280 N 
ATOM      8  N   UNL     1      -4.562   3.193  24.975  0.00  0.00    -0.299 N 
ATOM      9  C   UNL     1      -0.458   1.267  24.103  0.00  0.00    +0.216 C 
ATOM     10  C   UNL     1      -1.215   2.466  23.531  0.00  0.00    +0.156 C 
ATOM     11  C   UNL     1      -1.887   3.564  25.707  0.00  0.00    +0.137 C 
ATOM     12  C   UNL     1       0.620   1.664  25.108  0.00  0.00    +0.206 C 
ATOM     13  C   UNL     1      -0.399   3.608  26.031  0.00  0.00    +0.179 C 
ATOM     14  C   UNL     1      -3.621   2.744  24.050  0.00  0.00    +0.302 C 
ATOM     25  H   UNL     1      -4.263   3.634  25.837  0.00  0.00    +0.150 HD
ENDROOT
BRANCH   9   5
ATOM      5  O   UNL     1       0.166   0.585  23.016  0.00  0.00    -0.485 OA
BRANCH   5  15
ATOM     15  C   UNL     1       1.517   0.397  23.108  0.00  0.00    +0.121 A 
ATOM     18  C   UNL     1       2.027  -0.867  23.406  0.00  0.00    +0.046 A 
ATOM     19  C   UNL     1       2.388   1.469  22.905  0.00  0.00    +0.046 A 
ATOM     20  C   UNL     1       4.274   0.012  23.297  0.00  0.00    +0.055 A 
ATOM     21  C   UNL     1       3.405  -1.060  23.501  0.00  0.00    +0.016 A 
ATOM     22  C   UNL     1       3.766   1.276  22.999  0.00  0.00    +0.016 A 
BRANCH  20  24
ATOM      1  F   UNL     1       6.339  -0.514  22.208  0.00  0.00    -0.166 F 
ATOM      2  F   UNL     1       6.104  -1.199  24.253  0.00  0.00    -0.166 F 
ATOM      3  F   UNL     1       6.404   0.916  23.844  0.00  0.00    -0.166 F 
ATOM     24  C   UNL     1       5.747  -0.194  23.398  0.00  0.00    +0.417 C 
ENDBRANCH  20  24
ENDBRANCH   5  15
ENDBRANCH   9   5
BRANCH   8  16
ATOM     16  C   UNL     1      -5.989   3.087  24.769  0.00  0.00    +0.105 C 
BRANCH  16  17
ATOM     17  C   UNL     1      -6.528   1.709  25.139  0.00  0.00    +0.015 C 
ATOM     23  C   UNL     1      -5.449   0.780  25.675  0.00  0.00    +0.005 C 
ENDBRANCH  16  17
ENDBRANCH   8  16
TORSDOF 5
ENDMDL
