MODEL 1
REMARK VINA RESULT:      -2.8      0.000      0.000
REMARK  Name = 45783707
REMARK  7 active torsions:
REMARK  status: ('A' for Active; 'I' for Inactive)
REMARK    1  A    between atoms: O_5  and  C_28
REMARK    2  A    between atoms: O_5  and  C_29
REMARK    3  A    between atoms: N_6  and  C_14
REMARK    4  A    between atoms: C_10  and  C_15
REMARK    5  A    between atoms: C_14  and  C_16
REMARK    6  A    between atoms: C_19  and  C_23
REMARK    7  A    between atoms: C_22  and  C_24
REMARK                            x       y       z     vdW  Elec       q    Type
REMARK                         _______ _______ _______ _____ _____    ______ ____
ROOT
ATOM      6  N   UNL     1      -5.263   2.411  25.386  0.00  0.00    -0.287 NA
ATOM     10  C   UNL     1      -4.395   3.038  24.369  0.00  0.00    +0.146 C 
ATOM     11  C   UNL     1      -4.626   4.552  24.539  0.00  0.00    +0.030 C 
ATOM     12  C   UNL     1      -5.681   4.674  25.629  0.00  0.00    +0.017 C 
ATOM     13  C   UNL     1      -6.381   3.330  25.599  0.00  0.00    +0.085 C 
ENDROOT
BRANCH  10  15
ATOM      4  O   UNL     1      -2.356   2.951  25.714  0.00  0.00    -0.336 OA
ATOM      7  N   UNL     1      -2.144   2.054  23.672  0.00  0.00    -0.190 NA
ATOM      8  N   UNL     1      -1.032   2.502  25.621  0.00  0.00    -0.056 NA
ATOM     15  C   UNL     1      -2.941   2.648  24.525  0.00  0.00    +0.245 A 
ATOM     19  C   UNL     1      -0.985   1.986  24.389  0.00  0.00    +0.204 A 
BRANCH  19  23
ATOM      9  N   UNL     1       2.584   1.532  23.450  0.00  0.00    -0.221 NA
ATOM     23  C   UNL     1       0.203   1.395  23.846  0.00  0.00    +0.041 A 
ATOM     25  C   UNL     1       0.161   0.161  23.206  0.00  0.00    +0.018 A 
ATOM     26  C   UNL     1       1.429   2.033  23.941  0.00  0.00    +0.126 A 
ATOM     27  C   UNL     1       1.329  -0.388  22.688  0.00  0.00    +0.068 A 
ATOM     28  C   UNL     1       2.504   0.331  22.835  0.00  0.00    +0.214 A 
BRANCH  28   5
ATOM      5  O   UNL     1       3.669  -0.189  22.332  0.00  0.00    -0.480 OA
ATOM     29  C   UNL     1       4.867   0.142  23.024  0.00  0.00    +0.279 C 
ENDBRANCH  28   5
ENDBRANCH  19  23
ENDBRANCH  10  15
BRANCH   6  14
ATOM     14  C   UNL     1      -5.714   1.076  25.011  0.00  0.00    +0.120 C 
BRANCH  14  16
ATOM     16  C   UNL     1      -4.575   0.093  24.962  0.00  0.00    -0.033 A 
ATOM     17  C   UNL     1      -4.345  -0.650  23.805  0.00  0.00    +0.005 A 
ATOM     18  C   UNL     1      -3.750  -0.075  26.075  0.00  0.00    +0.005 A 
ATOM     20  C   UNL     1      -3.289  -1.561  23.760  0.00  0.00    +0.012 A 
ATOM     21  C   UNL     1      -2.694  -0.986  26.029  0.00  0.00    +0.012 A 
ATOM     22  C   UNL     1      -2.464  -1.729  24.872  0.00  0.00    +0.055 A 
BRANCH  22  24
ATOM      1  F   UNL     1      -0.163  -2.204  25.320  0.00  0.00    -0.166 F 
ATOM      2  F   UNL     1      -1.047  -3.107  23.551  0.00  0.00    -0.166 F 
ATOM      3  F   UNL     1      -1.565  -3.845  25.529  0.00  0.00    -0.166 F 
ATOM     24  C   UNL     1      -1.333  -2.700  24.821  0.00  0.00    +0.417 C 
ENDBRANCH  22  24
ENDBRANCH  14  16
ENDBRANCH   6  14
TORSDOF 6
ENDMDL
MODEL 2
REMARK VINA RESULT:      -0.9      1.597      2.128
REMARK  Name = 45783707
REMARK  7 active torsions:
REMARK  status: ('A' for Active; 'I' for Inactive)
REMARK    1  A    between atoms: O_5  and  C_28
REMARK    2  A    between atoms: O_5  and  C_29
REMARK    3  A    between atoms: N_6  and  C_14
REMARK    4  A    between atoms: C_10  and  C_15
REMARK    5  A    between atoms: C_14  and  C_16
REMARK    6  A    between atoms: C_19  and  C_23
REMARK    7  A    between atoms: C_22  and  C_24
REMARK                            x       y       z     vdW  Elec       q    Type
REMARK                         _______ _______ _______ _____ _____    ______ ____
ROOT
ATOM      6  N   UNL     1      -3.433   3.266  25.636  0.00  0.00    -0.287 NA
ATOM     10  C   UNL     1      -2.809   3.712  24.375  0.00  0.00    +0.146 C 
ATOM     11  C   UNL     1      -2.130   5.049  24.726  0.00  0.00    +0.030 C 
ATOM     12  C   UNL     1      -2.480   5.301  26.186  0.00  0.00    +0.017 C 
ATOM     13  C   UNL     1      -3.734   4.477  26.399  0.00  0.00    +0.085 C 
ENDROOT
BRANCH  10  15
ATOM      4  O   UNL     1      -2.325   1.847  22.871  0.00  0.00    -0.336 OA
ATOM      7  N   UNL     1      -0.576   2.500  24.108  0.00  0.00    -0.190 NA
ATOM      8  N   UNL     1      -1.260   1.011  22.512  0.00  0.00    -0.056 NA
ATOM     15  C   UNL     1      -1.838   2.694  23.815  0.00  0.00    +0.245 A 
ATOM     19  C   UNL     1      -0.265   1.458  23.284  0.00  0.00    +0.204 A 
BRANCH  19  23
ATOM      9  N   UNL     1       3.444   1.215  23.175  0.00  0.00    -0.221 NA
ATOM     23  C   UNL     1       1.050   0.887  23.256  0.00  0.00    +0.041 A 
ATOM     25  C   UNL     1       1.232  -0.492  23.276  0.00  0.00    +0.018 A 
ATOM     26  C   UNL     1       2.178   1.689  23.205  0.00  0.00    +0.126 A 
ATOM     27  C   UNL     1       2.519  -1.018  23.247  0.00  0.00    +0.068 A 
ATOM     28  C   UNL     1       3.582  -0.129  23.197  0.00  0.00    +0.214 A 
BRANCH  28   5
ATOM      5  O   UNL     1       4.860  -0.623  23.167  0.00  0.00    -0.480 OA
ATOM     29  C   UNL     1       5.836   0.081  23.926  0.00  0.00    +0.279 C 
ENDBRANCH  28   5
ENDBRANCH  19  23
ENDBRANCH  10  15
BRANCH   6  14
ATOM     14  C   UNL     1      -4.617   2.440  25.430  0.00  0.00    +0.120 C 
BRANCH  14  16
ATOM     16  C   UNL     1      -4.259   0.999  25.180  0.00  0.00    -0.033 A 
ATOM     17  C   UNL     1      -3.191   0.418  25.862  0.00  0.00    +0.005 A 
ATOM     18  C   UNL     1      -4.996   0.246  24.266  0.00  0.00    +0.005 A 
ATOM     20  C   UNL     1      -2.859  -0.917  25.630  0.00  0.00    +0.012 A 
ATOM     21  C   UNL     1      -4.665  -1.090  24.035  0.00  0.00    +0.012 A 
ATOM     22  C   UNL     1      -3.597  -1.671  24.718  0.00  0.00    +0.055 A 
BRANCH  22  24
ATOM      1  F   UNL     1      -3.336  -3.884  25.587  0.00  0.00    -0.166 F 
ATOM      2  F   UNL     1      -1.966  -3.254  24.020  0.00  0.00    -0.166 F 
ATOM      3  F   UNL     1      -4.038  -3.707  23.543  0.00  0.00    -0.166 F 
ATOM     24  C   UNL     1      -3.244  -3.099  24.473  0.00  0.00    +0.417 C 
ENDBRANCH  22  24
ENDBRANCH  14  16
ENDBRANCH   6  14
TORSDOF 6
ENDMDL
MODEL 3
REMARK VINA RESULT:      -0.6      3.035      4.731
REMARK  Name = 45783707
REMARK  7 active torsions:
REMARK  status: ('A' for Active; 'I' for Inactive)
REMARK    1  A    between atoms: O_5  and  C_28
REMARK    2  A    between atoms: O_5  and  C_29
REMARK    3  A    between atoms: N_6  and  C_14
REMARK    4  A    between atoms: C_10  and  C_15
REMARK    5  A    between atoms: C_14  and  C_16
REMARK    6  A    between atoms: C_19  and  C_23
REMARK    7  A    between atoms: C_22  and  C_24
REMARK                            x       y       z     vdW  Elec       q    Type
REMARK                         _______ _______ _______ _____ _____    ______ ____
ROOT
ATOM      6  N   UNL     1      -4.344  -1.004  23.982  0.00  0.00    -0.287 NA
ATOM     10  C   UNL     1      -3.435  -1.386  25.080  0.00  0.00    +0.146 C 
ATOM     11  C   UNL     1      -3.304  -2.916  24.964  0.00  0.00    +0.030 C 
ATOM     12  C   UNL     1      -4.221  -3.308  23.815  0.00  0.00    +0.017 C 
ATOM     13  C   UNL     1      -5.208  -2.160  23.739  0.00  0.00    +0.085 C 
ENDROOT
BRANCH  10  15
ATOM      4  O   UNL     1      -1.882   0.308  25.910  0.00  0.00    -0.336 OA
ATOM      7  N   UNL     1      -1.102  -0.874  24.175  0.00  0.00    -0.190 NA
ATOM      8  N   UNL     1      -0.600   0.808  25.643  0.00  0.00    -0.056 NA
ATOM     15  C   UNL     1      -2.099  -0.678  25.002  0.00  0.00    +0.245 A 
ATOM     19  C   UNL     1      -0.206   0.061  24.607  0.00  0.00    +0.204 A 
BRANCH  19  23
ATOM      9  N   UNL     1       3.066  -0.793  23.063  0.00  0.00    -0.221 NA
ATOM     23  C   UNL     1       1.075   0.222  23.983  0.00  0.00    +0.041 A 
ATOM     25  C   UNL     1       1.577   1.486  23.694  0.00  0.00    +0.018 A 
ATOM     26  C   UNL     1       1.852  -0.876  23.650  0.00  0.00    +0.126 A 
ATOM     27  C   UNL     1       2.822   1.612  23.089  0.00  0.00    +0.068 A 
ATOM     28  C   UNL     1       3.521   0.451  22.796  0.00  0.00    +0.214 A 
BRANCH  28   5
ATOM      5  O   UNL     1       4.752   0.549  22.200  0.00  0.00    -0.480 OA
ATOM     29  C   UNL     1       5.867   0.095  22.958  0.00  0.00    +0.279 C 
ENDBRANCH  28   5
ENDBRANCH  19  23
ENDBRANCH  10  15
BRANCH   6  14
ATOM     14  C   UNL     1      -5.112   0.202  24.266  0.00  0.00    +0.120 C 
BRANCH  14  16
ATOM     16  C   UNL     1      -4.227   1.415  24.383  0.00  0.00    -0.033 A 
ATOM     17  C   UNL     1      -4.336   2.253  25.492  0.00  0.00    +0.005 A 
ATOM     18  C   UNL     1      -3.299   1.700  23.381  0.00  0.00    +0.005 A 
ATOM     20  C   UNL     1      -3.516   3.376  25.600  0.00  0.00    +0.012 A 
ATOM     21  C   UNL     1      -2.478   2.824  23.490  0.00  0.00    +0.012 A 
ATOM     22  C   UNL     1      -2.587   3.661  24.600  0.00  0.00    +0.055 A 
BRANCH  22  24
ATOM      1  F   UNL     1      -0.402   4.615  24.406  0.00  0.00    -0.166 F 
ATOM      2  F   UNL     1      -1.692   5.377  25.981  0.00  0.00    -0.166 F 
ATOM      3  F   UNL     1      -2.080   5.893  23.904  0.00  0.00    -0.166 F 
ATOM     24  C   UNL     1      -1.708   4.860  24.718  0.00  0.00    +0.417 C 
ENDBRANCH  22  24
ENDBRANCH  14  16
ENDBRANCH   6  14
TORSDOF 6
ENDMDL
MODEL 4
REMARK VINA RESULT:       0.0      3.422      5.172
REMARK  Name = 45783707
REMARK  7 active torsions:
REMARK  status: ('A' for Active; 'I' for Inactive)
REMARK    1  A    between atoms: O_5  and  C_28
REMARK    2  A    between atoms: O_5  and  C_29
REMARK    3  A    between atoms: N_6  and  C_14
REMARK    4  A    between atoms: C_10  and  C_15
REMARK    5  A    between atoms: C_14  and  C_16
REMARK    6  A    between atoms: C_19  and  C_23
REMARK    7  A    between atoms: C_22  and  C_24
REMARK                            x       y       z     vdW  Elec       q    Type
REMARK                         _______ _______ _______ _____ _____    ______ ____
ROOT
ATOM      6  N   UNL     1      -3.265  -0.903  24.639  0.00  0.00    -0.287 NA
ATOM     10  C   UNL     1      -2.049  -1.740  24.662  0.00  0.00    +0.146 C 
ATOM     11  C   UNL     1      -2.428  -3.003  23.866  0.00  0.00    +0.030 C 
ATOM     12  C   UNL     1      -3.891  -2.812  23.491  0.00  0.00    +0.017 C 
ATOM     13  C   UNL     1      -4.397  -1.823  24.521  0.00  0.00    +0.085 C 
ENDROOT
BRANCH  10  15
ATOM      4  O   UNL     1      -1.095   0.003  23.239  0.00  0.00    -0.336 OA
ATOM      7  N   UNL     1       0.432  -1.261  24.283  0.00  0.00    -0.190 NA
ATOM      8  N   UNL     1       0.157   0.494  22.842  0.00  0.00    -0.056 NA
ATOM     15  C   UNL     1      -0.842  -1.029  24.087  0.00  0.00    +0.245 A 
ATOM     19  C   UNL     1       1.005  -0.302  23.500  0.00  0.00    +0.204 A 
BRANCH  19  23
ATOM      9  N   UNL     1       4.625  -1.114  23.740  0.00  0.00    -0.221 NA
ATOM     23  C   UNL     1       2.428  -0.166  23.396  0.00  0.00    +0.041 A 
ATOM     25  C   UNL     1       3.001   0.991  22.879  0.00  0.00    +0.018 A 
ATOM     26  C   UNL     1       3.277  -1.180  23.809  0.00  0.00    +0.126 A 
ATOM     27  C   UNL     1       4.385   1.096  22.791  0.00  0.00    +0.068 A 
ATOM     28  C   UNL     1       5.146   0.025  23.231  0.00  0.00    +0.214 A 
BRANCH  28   5
ATOM      5  O   UNL     1       6.512   0.104  23.155  0.00  0.00    -0.480 OA
ATOM     29  C   UNL     1       7.191  -1.036  22.645  0.00  0.00    +0.279 C 
ENDBRANCH  28   5
ENDBRANCH  19  23
ENDBRANCH  10  15
BRANCH   6  14
ATOM     14  C   UNL     1      -3.384  -0.032  25.802  0.00  0.00    +0.120 C 
BRANCH  14  16
ATOM     16  C   UNL     1      -2.896   1.362  25.511  0.00  0.00    -0.033 A 
ATOM     17  C   UNL     1      -3.751   2.289  24.915  0.00  0.00    +0.005 A 
ATOM     18  C   UNL     1      -1.589   1.726  25.838  0.00  0.00    +0.005 A 
ATOM     20  C   UNL     1      -3.298   3.582  24.647  0.00  0.00    +0.012 A 
ATOM     21  C   UNL     1      -1.138   3.018  25.569  0.00  0.00    +0.012 A 
ATOM     22  C   UNL     1      -1.992   3.946  24.974  0.00  0.00    +0.055 A 
BRANCH  22  24
ATOM      1  F   UNL     1      -0.181   5.393  24.385  0.00  0.00    -0.166 F 
ATOM      2  F   UNL     1      -1.687   6.173  25.746  0.00  0.00    -0.166 F 
ATOM      3  F   UNL     1      -2.145   5.922  23.635  0.00  0.00    -0.166 F 
ATOM     24  C   UNL     1      -1.511   5.328  24.689  0.00  0.00    +0.417 C 
ENDBRANCH  22  24
ENDBRANCH  14  16
ENDBRANCH   6  14
TORSDOF 6
ENDMDL
MODEL 5
REMARK VINA RESULT:       0.2      3.398      5.145
REMARK  Name = 45783707
REMARK  7 active torsions:
REMARK  status: ('A' for Active; 'I' for Inactive)
REMARK    1  A    between atoms: O_5  and  C_28
REMARK    2  A    between atoms: O_5  and  C_29
REMARK    3  A    between atoms: N_6  and  C_14
REMARK    4  A    between atoms: C_10  and  C_15
REMARK    5  A    between atoms: C_14  and  C_16
REMARK    6  A    between atoms: C_19  and  C_23
REMARK    7  A    between atoms: C_22  and  C_24
REMARK                            x       y       z     vdW  Elec       q    Type
REMARK                         _______ _______ _______ _____ _____    ______ ____
ROOT
ATOM      6  N   UNL     1      -3.309  -0.860  24.618  0.00  0.00    -0.287 NA
ATOM     10  C   UNL     1      -2.104  -1.711  24.657  0.00  0.00    +0.146 C 
ATOM     11  C   UNL     1      -2.489  -2.972  23.860  0.00  0.00    +0.030 C 
ATOM     12  C   UNL     1      -3.944  -2.764  23.467  0.00  0.00    +0.017 C 
ATOM     13  C   UNL     1      -4.451  -1.766  24.489  0.00  0.00    +0.085 C 
ENDROOT
BRANCH  10  15
ATOM      4  O   UNL     1      -1.112   0.027  23.255  0.00  0.00    -0.336 OA
ATOM      7  N   UNL     1       0.387  -1.272  24.297  0.00  0.00    -0.190 NA
ATOM      8  N   UNL     1       0.150   0.500  22.870  0.00  0.00    -0.056 NA
ATOM     15  C   UNL     1      -0.882  -1.016  24.095  0.00  0.00    +0.245 A 
ATOM     19  C   UNL     1       0.980  -0.316  23.525  0.00  0.00    +0.204 A 
BRANCH  19  23
ATOM      9  N   UNL     1       4.339   1.110  22.809  0.00  0.00    -0.221 NA
ATOM     23  C   UNL     1       2.407  -0.203  23.431  0.00  0.00    +0.041 A 
ATOM     25  C   UNL     1       3.236  -1.241  23.844  0.00  0.00    +0.018 A 
ATOM     26  C   UNL     1       3.003   0.941  22.926  0.00  0.00    +0.126 A 
ATOM     27  C   UNL     1       4.616  -1.104  23.740  0.00  0.00    +0.068 A 
ATOM     28  C   UNL     1       5.113   0.081  23.221  0.00  0.00    +0.214 A 
BRANCH  28   5
ATOM      5  O   UNL     1       6.469   0.240  23.108  0.00  0.00    -0.480 OA
ATOM     29  C   UNL     1       7.218  -0.907  22.725  0.00  0.00    +0.279 C 
ENDBRANCH  28   5
ENDBRANCH  19  23
ENDBRANCH  10  15
BRANCH   6  14
ATOM     14  C   UNL     1      -3.432   0.015  25.778  0.00  0.00    +0.120 C 
BRANCH  14  16
ATOM     16  C   UNL     1      -2.933   1.405  25.487  0.00  0.00    -0.033 A 
ATOM     17  C   UNL     1      -1.633   1.766  25.841  0.00  0.00    +0.005 A 
ATOM     18  C   UNL     1      -3.769   2.330  24.863  0.00  0.00    +0.005 A 
ATOM     20  C   UNL     1      -1.170   3.054  25.570  0.00  0.00    +0.012 A 
ATOM     21  C   UNL     1      -3.305   3.619  24.593  0.00  0.00    +0.012 A 
ATOM     22  C   UNL     1      -2.005   3.980  24.946  0.00  0.00    +0.055 A 
BRANCH  22  24
ATOM      1  F   UNL     1      -1.626   6.214  25.710  0.00  0.00    -0.166 F 
ATOM      2  F   UNL     1      -2.176   5.947  23.623  0.00  0.00    -0.166 F 
ATOM      3  F   UNL     1      -0.187   5.397  24.309  0.00  0.00    -0.166 F 
ATOM     24  C   UNL     1      -1.508   5.355  24.655  0.00  0.00    +0.417 C 
ENDBRANCH  22  24
ENDBRANCH  14  16
ENDBRANCH   6  14
TORSDOF 6
ENDMDL
