MODEL 1
REMARK VINA RESULT:      -0.0      0.000      0.000
REMARK  Name = 11941400
REMARK  7 active torsions:
REMARK  status: ('A' for Active; 'I' for Inactive)
REMARK    1  A    between atoms: S_1  and  C_21
REMARK    2  A    between atoms: S_1  and  C_28
REMARK    3  A    between atoms: O_5  and  C_29
REMARK    4  A    between atoms: O_5  and  C_30
REMARK    5  A    between atoms: N_7  and  C_9
REMARK    6  A    between atoms: C_17  and  C_21
REMARK    7  A    between atoms: C_20  and  C_23
REMARK                            x       y       z     vdW  Elec       q    Type
REMARK                         _______ _______ _______ _____ _____    ______ ____
ROOT
ATOM      2  O   UNL     1      14.654  -7.892  32.873  0.00  0.00    -0.273 OA
ATOM      3  O   UNL     1      15.369  -9.261  27.837  0.00  0.00    -0.270 OA
ATOM      6  N   UNL     1      14.175  -8.862  29.761  0.00  0.00    -0.284 N 
ATOM      8  N   UNL     1      15.667  -6.758  31.178  0.00  0.00    -0.283 N 
ATOM      9  C   UNL     1      12.443  -8.781  31.368  0.00  0.00    +0.104 C 
ATOM     10  C   UNL     1      13.567  -7.960  30.722  0.00  0.00    +0.183 C 
ATOM     11  C   UNL     1      12.927 -10.225  31.223  0.00  0.00    +0.043 C 
ATOM     12  C   UNL     1      13.662 -10.217  29.891  0.00  0.00    +0.111 C 
ATOM     13  C   UNL     1      14.678  -7.578  31.682  0.00  0.00    +0.240 C 
ATOM     14  C   UNL     1      15.007  -8.491  28.726  0.00  0.00    +0.249 C 
ATOM     15  C   UNL     1      15.511  -7.093  28.698  0.00  0.00    +0.059 A 
ATOM     16  C   UNL     1      15.885  -6.364  29.840  0.00  0.00    +0.046 A 
ATOM     18  C   UNL     1      15.773  -6.562  27.421  0.00  0.00    +0.023 A 
ATOM     19  C   UNL     1      16.573  -5.149  29.673  0.00  0.00    +0.024 A 
ATOM     20  C   UNL     1      16.414  -5.333  27.276  0.00  0.00    -0.017 A 
ATOM     22  C   UNL     1      16.826  -4.632  28.403  0.00  0.00    +0.010 A 
ATOM     32  H   UNL     1      16.265  -6.318  31.873  0.00  0.00    +0.155 HD
ENDROOT
BRANCH  20  23
ATOM     23  C   UNL     1      16.672  -4.801  25.956  0.00  0.00    -0.018 A 
ATOM     24  C   UNL     1      16.669  -3.421  25.747  0.00  0.00    +0.012 A 
ATOM     25  C   UNL     1      16.920  -5.667  24.891  0.00  0.00    +0.012 A 
ATOM     26  C   UNL     1      16.916  -2.908  24.475  0.00  0.00    +0.046 A 
ATOM     27  C   UNL     1      17.167  -5.154  23.618  0.00  0.00    +0.046 A 
ATOM     29  C   UNL     1      17.165  -3.774  23.410  0.00  0.00    +0.120 A 
BRANCH  29   5
ATOM      5  O   UNL     1      17.405  -3.274  22.167  0.00  0.00    -0.495 OA
ATOM     30  C   UNL     1      16.967  -1.941  21.908  0.00  0.00    +0.277 C 
ENDBRANCH  29   5
ENDBRANCH  20  23
BRANCH   9   7
ATOM      4  O   UNL     1       9.793  -8.695  32.530  0.00  0.00    -0.275 OA
ATOM      7  N   UNL     1      11.191  -8.577  30.677  0.00  0.00    -0.309 N 
ATOM     17  C   UNL     1       9.965  -8.551  31.321  0.00  0.00    +0.223 C 
ATOM     31  H   UNL     1      11.217  -8.511  29.664  0.00  0.00    +0.149 HD
BRANCH  17  21
ATOM     21  C   UNL     1       8.807  -8.341  30.374  0.00  0.00    +0.164 C 
BRANCH  21   1
ATOM      1  S   UNL     1       7.259  -8.470  31.301  0.00  0.00    -0.155 S 
ATOM     28  C   UNL     1       6.701 -10.070  30.672  0.00  0.00    +0.085 C 
ENDBRANCH  21   1
ENDBRANCH  17  21
ENDBRANCH   9   7
TORSDOF 5
ENDMDL
MODEL 2
REMARK VINA RESULT:       1.1      1.655      2.192
REMARK  Name = 11941400
REMARK  7 active torsions:
REMARK  status: ('A' for Active; 'I' for Inactive)
REMARK    1  A    between atoms: S_1  and  C_21
REMARK    2  A    between atoms: S_1  and  C_28
REMARK    3  A    between atoms: O_5  and  C_29
REMARK    4  A    between atoms: O_5  and  C_30
REMARK    5  A    between atoms: N_7  and  C_9
REMARK    6  A    between atoms: C_17  and  C_21
REMARK    7  A    between atoms: C_20  and  C_23
REMARK                            x       y       z     vdW  Elec       q    Type
REMARK                         _______ _______ _______ _____ _____    ______ ____
ROOT
ATOM      2  O   UNL     1      15.445  -5.863  32.850  0.00  0.00    -0.273 OA
ATOM      3  O   UNL     1      16.776  -9.125  28.933  0.00  0.00    -0.270 OA
ATOM      6  N   UNL     1      15.417  -8.230  30.557  0.00  0.00    -0.284 N 
ATOM      8  N   UNL     1      16.198  -5.400  30.751  0.00  0.00    -0.283 N 
ATOM      9  C   UNL     1      13.645  -7.894  32.087  0.00  0.00    +0.104 C 
ATOM     10  C   UNL     1      14.535  -7.190  31.053  0.00  0.00    +0.183 C 
ATOM     11  C   UNL     1      14.513  -9.058  32.570  0.00  0.00    +0.043 C 
ATOM     12  C   UNL     1      15.288  -9.460  31.325  0.00  0.00    +0.111 C 
ATOM     13  C   UNL     1      15.446  -6.132  31.647  0.00  0.00    +0.240 C 
ATOM     14  C   UNL     1      16.170  -8.163  29.404  0.00  0.00    +0.249 C 
ATOM     15  C   UNL     1      16.273  -6.853  28.710  0.00  0.00    +0.059 A 
ATOM     16  C   UNL     1      16.371  -5.615  29.366  0.00  0.00    +0.046 A 
ATOM     18  C   UNL     1      16.447  -6.913  27.315  0.00  0.00    +0.023 A 
ATOM     19  C   UNL     1      16.708  -4.475  28.616  0.00  0.00    +0.024 A 
ATOM     20  C   UNL     1      16.734  -5.763  26.581  0.00  0.00    -0.017 A 
ATOM     22  C   UNL     1      16.878  -4.545  27.234  0.00  0.00    +0.010 A 
ATOM     32  H   UNL     1      16.615  -4.550  31.123  0.00  0.00    +0.155 HD
ENDROOT
BRANCH  20  23
ATOM     23  C   UNL     1      16.906  -5.842  25.146  0.00  0.00    -0.018 A 
ATOM     24  C   UNL     1      17.080  -7.082  24.531  0.00  0.00    +0.012 A 
ATOM     25  C   UNL     1      16.901  -4.677  24.379  0.00  0.00    +0.012 A 
ATOM     26  C   UNL     1      17.247  -7.158  23.149  0.00  0.00    +0.046 A 
ATOM     27  C   UNL     1      17.068  -4.753  22.996  0.00  0.00    +0.046 A 
ATOM     29  C   UNL     1      17.241  -5.993  22.381  0.00  0.00    +0.120 A 
BRANCH  29   5
ATOM      5  O   UNL     1      17.404  -6.066  21.032  0.00  0.00    -0.495 OA
ATOM     30  C   UNL     1      17.376  -7.366  20.444  0.00  0.00    +0.277 C 
ENDBRANCH  29   5
ENDBRANCH  20  23
BRANCH   9   7
ATOM      4  O   UNL     1      11.001  -6.743  32.334  0.00  0.00    -0.275 OA
ATOM      7  N   UNL     1      12.425  -8.370  31.479  0.00  0.00    -0.309 N 
ATOM     17  C   UNL     1      11.198  -7.750  31.656  0.00  0.00    +0.223 C 
ATOM     31  H   UNL     1      12.467  -9.235  30.949  0.00  0.00    +0.149 HD
BRANCH  17  21
ATOM     21  C   UNL     1      10.074  -8.451  30.930  0.00  0.00    +0.164 C 
BRANCH  21   1
ATOM      1  S   UNL     1       8.724  -8.758  32.096  0.00  0.00    -0.155 S 
ATOM     28  C   UNL     1       8.621 -10.554  31.922  0.00  0.00    +0.085 C 
ENDBRANCH  21   1
ENDBRANCH  17  21
ENDBRANCH   9   7
TORSDOF 5
ENDMDL
MODEL 3
REMARK VINA RESULT:       1.5      2.648      3.420
REMARK  Name = 11941400
REMARK  7 active torsions:
REMARK  status: ('A' for Active; 'I' for Inactive)
REMARK    1  A    between atoms: S_1  and  C_21
REMARK    2  A    between atoms: S_1  and  C_28
REMARK    3  A    between atoms: O_5  and  C_29
REMARK    4  A    between atoms: O_5  and  C_30
REMARK    5  A    between atoms: N_7  and  C_9
REMARK    6  A    between atoms: C_17  and  C_21
REMARK    7  A    between atoms: C_20  and  C_23
REMARK                            x       y       z     vdW  Elec       q    Type
REMARK                         _______ _______ _______ _____ _____    ______ ____
ROOT
ATOM      2  O   UNL     1      16.597  -3.416  32.237  0.00  0.00    -0.273 OA
ATOM      3  O   UNL     1      17.388  -7.489  28.991  0.00  0.00    -0.270 OA
ATOM      6  N   UNL     1      16.247  -6.208  30.522  0.00  0.00    -0.284 N 
ATOM      8  N   UNL     1      17.114  -3.441  30.019  0.00  0.00    -0.283 N 
ATOM      9  C   UNL     1      14.672  -5.472  32.125  0.00  0.00    +0.104 C 
ATOM     10  C   UNL     1      15.454  -5.045  30.875  0.00  0.00    +0.183 C 
ATOM     11  C   UNL     1      15.561  -6.549  32.751  0.00  0.00    +0.043 C 
ATOM     12  C   UNL     1      16.177  -7.241  31.544  0.00  0.00    +0.111 C 
ATOM     13  C   UNL     1      16.453  -3.931  31.127  0.00  0.00    +0.240 C 
ATOM     14  C   UNL     1      16.864  -6.421  29.307  0.00  0.00    +0.249 C 
ATOM     15  C   UNL     1      16.918  -5.293  28.341  0.00  0.00    +0.059 A 
ATOM     16  C   UNL     1      17.122  -3.951  28.702  0.00  0.00    +0.046 A 
ATOM     18  C   UNL     1      16.929  -5.653  26.981  0.00  0.00    +0.023 A 
ATOM     19  C   UNL     1      17.398  -3.012  27.693  0.00  0.00    +0.024 A 
ATOM     20  C   UNL     1      17.158  -4.699  25.991  0.00  0.00    -0.017 A 
ATOM     22  C   UNL     1      17.405  -3.379  26.348  0.00  0.00    +0.010 A 
ATOM     32  H   UNL     1      17.592  -2.553  30.154  0.00  0.00    +0.155 HD
ENDROOT
BRANCH  20  23
ATOM     23  C   UNL     1      17.162  -5.086  24.597  0.00  0.00    -0.018 A 
ATOM     24  C   UNL     1      17.043  -4.114  23.603  0.00  0.00    +0.012 A 
ATOM     25  C   UNL     1      17.282  -6.431  24.247  0.00  0.00    +0.012 A 
ATOM     26  C   UNL     1      17.045  -4.488  22.259  0.00  0.00    +0.046 A 
ATOM     27  C   UNL     1      17.284  -6.804  22.903  0.00  0.00    +0.046 A 
ATOM     29  C   UNL     1      17.166  -5.833  21.909  0.00  0.00    +0.120 A 
BRANCH  29   5
ATOM      5  O   UNL     1      17.168  -6.198  20.598  0.00  0.00    -0.495 OA
ATOM     30  C   UNL     1      17.034  -7.590  20.313  0.00  0.00    +0.277 C 
ENDBRANCH  29   5
ENDBRANCH  20  23
BRANCH   9   7
ATOM      4  O   UNL     1      12.079  -4.374  32.796  0.00  0.00    -0.275 OA
ATOM      7  N   UNL     1      13.378  -6.005  31.767  0.00  0.00    -0.309 N 
ATOM     17  C   UNL     1      12.183  -5.407  32.136  0.00  0.00    +0.223 C 
ATOM     31  H   UNL     1      13.353  -6.893  31.275  0.00  0.00    +0.149 HD
BRANCH  17  21
ATOM     21  C   UNL     1      10.971  -6.169  31.655  0.00  0.00    +0.164 C 
BRANCH  21   1
ATOM      1  S   UNL     1      10.977  -7.816  32.406  0.00  0.00    -0.155 S 
ATOM     28  C   UNL     1       9.191  -8.052  32.551  0.00  0.00    +0.085 C 
ENDBRANCH  21   1
ENDBRANCH  17  21
ENDBRANCH   9   7
TORSDOF 5
ENDMDL
