MODEL 1
REMARK VINA RESULT:      10.4      0.000      0.000
REMARK  Name = 11911724
REMARK  10 active torsions:
REMARK  status: ('A' for Active; 'I' for Inactive)
REMARK    1  A    between atoms: N_4  and  C_12
REMARK    2  A    between atoms: N_5  and  C_13
REMARK    3  A    between atoms: N_8  and  C_27
REMARK    4  A    between atoms: N_8  and  C_33
REMARK    5  A    between atoms: N_8  and  C_34
REMARK    6  A    between atoms: N_9  and  C_32
REMARK    7  A    between atoms: N_9  and  C_35
REMARK    8  A    between atoms: N_9  and  C_36
REMARK    9  A    between atoms: C_16  and  C_18
REMARK   10  A    between atoms: C_19  and  C_26
REMARK                            x       y       z     vdW  Elec       q    Type
REMARK                         _______ _______ _______ _____ _____    ______ ____
ROOT
ATOM      1  O   UNL     1      -2.872  -1.299  26.104  0.00  0.00    -0.370 OA
ATOM      2  O   UNL     1      -4.211  -1.506  23.294  0.00  0.00    -0.370 OA
ATOM     10  C   UNL     1      -2.927  -1.038  23.741  0.00  0.00    +0.171 C 
ATOM     11  C   UNL     1      -3.140  -0.339  25.069  0.00  0.00    +0.171 C 
ATOM     12  C   UNL     1      -2.030  -2.206  24.079  0.00  0.00    +0.130 C 
ATOM     13  C   UNL     1      -4.606   0.029  25.063  0.00  0.00    +0.130 C 
ATOM     14  C   UNL     1      -2.442  -2.530  25.504  0.00  0.00    +0.185 C 
ATOM     15  C   UNL     1      -5.221  -1.070  24.215  0.00  0.00    +0.185 C 
ENDROOT
BRANCH  13   5
ATOM      5  N   UNL     1      -4.791   1.315  24.427  0.00  0.00    -0.306 N 
ATOM      6  N   UNL     1      -2.888   2.221  25.456  0.00  0.00    -0.214 NA
ATOM      7  N   UNL     1      -4.233   3.546  23.958  0.00  0.00    -0.223 NA
ATOM     17  C   UNL     1      -3.945   2.392  24.620  0.00  0.00    +0.216 A 
ATOM     19  C   UNL     1      -2.084   3.293  25.622  0.00  0.00    +0.076 A 
ATOM     22  C   UNL     1      -3.388   4.576  24.170  0.00  0.00    +0.116 A 
ATOM     23  C   UNL     1      -2.287   4.507  24.999  0.00  0.00    +0.048 A 
ATOM     38  H   UNL     1      -5.545   1.438  23.761  0.00  0.00    +0.149 HD
BRANCH  19  26
ATOM     26  C   UNL     1      -0.967   3.089  26.514  0.00  0.00    +0.001 A 
ATOM     28  C   UNL     1      -1.170   3.061  27.896  0.00  0.00    +0.012 A 
ATOM     29  C   UNL     1       0.319   2.915  25.998  0.00  0.00    +0.012 A 
ATOM     30  C   UNL     1      -0.091   2.861  28.757  0.00  0.00    +0.024 A 
ATOM     31  C   UNL     1       1.398   2.715  26.860  0.00  0.00    +0.024 A 
ATOM     32  C   UNL     1       1.193   2.688  28.239  0.00  0.00    +0.029 A 
BRANCH  32   9
ATOM      9  N   UNL     1       2.283   2.487  29.110  0.00  0.00    -0.336 N 
ATOM     35  C   UNL     1       2.079   1.901  30.420  0.00  0.00    +0.129 C 
ATOM     36  C   UNL     1       3.625   2.851  28.702  0.00  0.00    +0.129 C 
ENDBRANCH  32   9
ENDBRANCH  19  26
ENDBRANCH  13   5
BRANCH  12   4
ATOM      3  O   UNL     1      -0.964   0.255  23.052  0.00  0.00    -0.270 OA
ATOM      4  N   UNL     1      -0.638  -1.832  24.010  0.00  0.00    -0.304 N 
ATOM     16  C   UNL     1      -0.217  -0.614  23.495  0.00  0.00    +0.244 C 
ATOM     37  H   UNL     1       0.041  -2.547  24.252  0.00  0.00    +0.149 HD
BRANCH  16  18
ATOM     18  C   UNL     1       1.251  -0.391  23.471  0.00  0.00    +0.037 A 
ATOM     20  C   UNL     1       2.089  -1.450  23.750  0.00  0.00    +0.015 A 
ATOM     21  C   UNL     1       1.730   0.867  23.169  0.00  0.00    +0.015 A 
ATOM     24  C   UNL     1       3.469  -1.242  23.726  0.00  0.00    +0.024 A 
ATOM     25  C   UNL     1       3.109   1.075  23.146  0.00  0.00    +0.024 A 
ATOM     27  C   UNL     1       3.978   0.021  23.425  0.00  0.00    +0.029 A 
BRANCH  27   8
ATOM      8  N   UNL     1       5.373   0.231  23.400  0.00  0.00    -0.336 N 
ATOM     33  C   UNL     1       5.986   1.198  24.288  0.00  0.00    +0.129 C 
ATOM     34  C   UNL     1       6.213  -0.527  22.493  0.00  0.00    +0.129 C 
ENDBRANCH  27   8
ENDBRANCH  16  18
ENDBRANCH  12   4
TORSDOF 6
ENDMDL
