MODEL 1
REMARK VINA RESULT:      -0.8      0.000      0.000
REMARK  Name = 38031193
REMARK  13 active torsions:
REMARK  status: ('A' for Active; 'I' for Inactive)
REMARK    1  A    between atoms: O_1  and  C_21
REMARK    2  A    between atoms: N_3  and  C_11
REMARK    3  A    between atoms: C_6  and  C_10
REMARK    4  A    between atoms: C_7  and  C_11
REMARK    5  A    between atoms: C_9  and  C_14
REMARK    6  A    between atoms: C_10  and  C_17
REMARK    7  A    between atoms: C_10  and  C_18
REMARK    8  A    between atoms: C_13  and  C_22
REMARK    9  A    between atoms: C_14  and  C_23
REMARK   10  A    between atoms: C_24  and  C_25
REMARK   11  A    between atoms: C_25  and  C_26
REMARK   12  A    between atoms: C_25  and  C_27
REMARK   13  A    between atoms: C_25  and  C_28
REMARK                            x       y       z     vdW  Elec       q    Type
REMARK                         _______ _______ _______ _____ _____    ______ ____
ROOT
ATOM      6  C   UNL     1       1.140  -0.111  23.137  0.00  0.00    +0.000 C 
ATOM      7  C   UNL     1       0.292  -0.768  24.250  0.00  0.00    +0.029 C 
ATOM      8  C   UNL     1       0.583   1.275  22.783  0.00  0.00    +0.012 C 
ATOM      9  C   UNL     1       0.498   2.229  23.994  0.00  0.00    +0.024 C 
ATOM     12  C   UNL     1      -0.053   0.194  25.359  0.00  0.00    -0.023 C 
ATOM     13  C   UNL     1       0.044   1.533  25.269  0.00  0.00    -0.073 C 
ATOM     22  C   UNL     1      -0.244   2.396  26.466  0.00  0.00    +0.039 C 
ENDROOT
BRANCH   6  10
ATOM     10  C   UNL     1       2.620  -0.028  23.537  0.00  0.00    -0.013 C 
ATOM     17  C   UNL     1       3.240  -1.421  23.573  0.00  0.00    +0.007 C 
ATOM     18  C   UNL     1       3.381   0.878  22.574  0.00  0.00    +0.007 C 
ENDBRANCH   6  10
BRANCH   7  11
ATOM     11  C   UNL     1      -0.998  -1.378  23.693  0.00  0.00    +0.092 C 
BRANCH  11   3
ATOM      3  N   UNL     1      -1.745  -2.058  24.750  0.00  0.00    -0.302 NA
ATOM     15  C   UNL     1      -2.161  -1.140  25.818  0.00  0.00    +0.087 C 
ATOM     16  C   UNL     1      -2.887  -2.819  24.222  0.00  0.00    +0.087 C 
ATOM     19  C   UNL     1      -3.312  -0.211  25.427  0.00  0.00    +0.046 C 
ATOM     20  C   UNL     1      -4.063  -1.946  23.777  0.00  0.00    +0.046 C 
ATOM     21  C   UNL     1      -4.502  -1.000  24.890  0.00  0.00    +0.117 C 
BRANCH  21   1
ATOM      1  O   UNL     1      -5.477  -0.089  24.396  0.00  0.00    -0.392 OA
ATOM     29  H   UNL     1      -5.113   0.809  24.490  0.00  0.00    +0.210 HD
ENDBRANCH  21   1
ENDBRANCH  11   3
ENDBRANCH   7  11
BRANCH   9  14
ATOM     14  C   UNL     1      -0.387   3.422  23.617  0.00  0.00    +0.105 C 
BRANCH  14  23
ATOM      2  O   UNL     1      -2.495   3.680  24.820  0.00  0.00    -0.424 OA
ATOM      4  N   UNL     1      -2.612   2.320  23.049  0.00  0.00    -0.112 NA
ATOM      5  N   UNL     1      -3.865   2.374  23.629  0.00  0.00    -0.112 NA
ATOM     23  C   UNL     1      -1.845   3.096  23.777  0.00  0.00    +0.218 A 
ATOM     24  C   UNL     1      -3.750   3.178  24.660  0.00  0.00    +0.223 A 
BRANCH  24  25
ATOM     25  C   UNL     1      -4.763   3.603  25.633  0.00  0.00    +0.040 C 
ATOM     26  C   UNL     1      -4.121   4.072  26.985  0.00  0.00    +0.020 C 
ATOM     27  C   UNL     1      -5.763   2.447  25.986  0.00  0.00    +0.020 C 
ATOM     28  C   UNL     1      -5.685   4.803  25.197  0.00  0.00    +0.020 C 
ENDBRANCH  24  25
ENDBRANCH  14  23
ENDBRANCH   9  14
TORSDOF 7
ENDMDL
MODEL 2
REMARK VINA RESULT:      -0.6      1.935      5.954
REMARK  Name = 38031193
REMARK  13 active torsions:
REMARK  status: ('A' for Active; 'I' for Inactive)
REMARK    1  A    between atoms: O_1  and  C_21
REMARK    2  A    between atoms: N_3  and  C_11
REMARK    3  A    between atoms: C_6  and  C_10
REMARK    4  A    between atoms: C_7  and  C_11
REMARK    5  A    between atoms: C_9  and  C_14
REMARK    6  A    between atoms: C_10  and  C_17
REMARK    7  A    between atoms: C_10  and  C_18
REMARK    8  A    between atoms: C_13  and  C_22
REMARK    9  A    between atoms: C_14  and  C_23
REMARK   10  A    between atoms: C_24  and  C_25
REMARK   11  A    between atoms: C_25  and  C_26
REMARK   12  A    between atoms: C_25  and  C_27
REMARK   13  A    between atoms: C_25  and  C_28
REMARK                            x       y       z     vdW  Elec       q    Type
REMARK                         _______ _______ _______ _____ _____    ______ ____
ROOT
ATOM      6  C   UNL     1      -3.781   2.337  25.263  0.00  0.00    +0.000 C 
ATOM      7  C   UNL     1      -3.751   2.137  23.730  0.00  0.00    +0.029 C 
ATOM      8  C   UNL     1      -2.368   2.213  25.850  0.00  0.00    +0.012 C 
ATOM      9  C   UNL     1      -1.357   3.197  25.224  0.00  0.00    +0.024 C 
ATOM     12  C   UNL     1      -2.612   2.874  23.073  0.00  0.00    -0.023 C 
ATOM     13  C   UNL     1      -1.541   3.366  23.723  0.00  0.00    -0.073 C 
ATOM     22  C   UNL     1      -0.503   4.162  22.981  0.00  0.00    +0.039 C 
ENDROOT
BRANCH   6  10
ATOM     10  C   UNL     1      -4.422   3.680  25.640  0.00  0.00    -0.013 C 
ATOM     17  C   UNL     1      -5.931   3.525  25.795  0.00  0.00    +0.007 C 
ATOM     18  C   UNL     1      -3.800   4.226  26.921  0.00  0.00    +0.007 C 
ENDBRANCH   6  10
BRANCH   7  11
ATOM     11  C   UNL     1      -3.675   0.655  23.354  0.00  0.00    +0.092 C 
BRANCH  11   3
ATOM      3  N   UNL     1      -4.544  -0.141  24.218  0.00  0.00    -0.302 NA
ATOM     15  C   UNL     1      -4.801  -1.479  23.668  0.00  0.00    +0.087 C 
ATOM     16  C   UNL     1      -4.040  -0.217  25.596  0.00  0.00    +0.087 C 
ATOM     19  C   UNL     1      -3.611  -2.434  23.770  0.00  0.00    +0.046 C 
ATOM     20  C   UNL     1      -2.823  -1.130  25.764  0.00  0.00    +0.046 C 
ATOM     21  C   UNL     1      -3.094  -2.523  25.202  0.00  0.00    +0.117 C 
BRANCH  21   1
ATOM      1  O   UNL     1      -1.897  -3.292  25.216  0.00  0.00    -0.392 OA
ATOM     29  H   UNL     1      -2.134  -4.198  25.481  0.00  0.00    +0.210 HD
ENDBRANCH  21   1
ENDBRANCH  11   3
ENDBRANCH   7  11
BRANCH   9  14
ATOM     14  C   UNL     1       0.061   2.752  25.605  0.00  0.00    +0.105 C 
BRANCH  14  23
ATOM      2  O   UNL     1       1.712   1.648  24.187  0.00  0.00    -0.424 OA
ATOM      4  N   UNL     1      -0.119   0.426  24.582  0.00  0.00    -0.112 NA
ATOM      5  N   UNL     1       0.724  -0.315  23.775  0.00  0.00    -0.112 NA
ATOM     23  C   UNL     1       0.498   1.564  24.797  0.00  0.00    +0.218 A 
ATOM     24  C   UNL     1       1.779   0.437  23.569  0.00  0.00    +0.223 A 
BRANCH  24  25
ATOM     25  C   UNL     1       2.991   0.157  22.789  0.00  0.00    +0.040 C 
ATOM     26  C   UNL     1       2.658  -0.262  21.315  0.00  0.00    +0.020 C 
ATOM     27  C   UNL     1       3.834  -1.010  23.411  0.00  0.00    +0.020 C 
ATOM     28  C   UNL     1       4.011   1.347  22.640  0.00  0.00    +0.020 C 
ENDBRANCH  24  25
ENDBRANCH  14  23
ENDBRANCH   9  14
TORSDOF 7
ENDMDL
MODEL 3
REMARK VINA RESULT:      -0.3      1.808      2.404
REMARK  Name = 38031193
REMARK  13 active torsions:
REMARK  status: ('A' for Active; 'I' for Inactive)
REMARK    1  A    between atoms: O_1  and  C_21
REMARK    2  A    between atoms: N_3  and  C_11
REMARK    3  A    between atoms: C_6  and  C_10
REMARK    4  A    between atoms: C_7  and  C_11
REMARK    5  A    between atoms: C_9  and  C_14
REMARK    6  A    between atoms: C_10  and  C_17
REMARK    7  A    between atoms: C_10  and  C_18
REMARK    8  A    between atoms: C_13  and  C_22
REMARK    9  A    between atoms: C_14  and  C_23
REMARK   10  A    between atoms: C_24  and  C_25
REMARK   11  A    between atoms: C_25  and  C_26
REMARK   12  A    between atoms: C_25  and  C_27
REMARK   13  A    between atoms: C_25  and  C_28
REMARK                            x       y       z     vdW  Elec       q    Type
REMARK                         _______ _______ _______ _____ _____    ______ ____
ROOT
ATOM      6  C   UNL     1      -0.499   0.684  23.229  0.00  0.00    +0.000 C 
ATOM      7  C   UNL     1      -1.315   0.206  24.452  0.00  0.00    +0.029 C 
ATOM      8  C   UNL     1      -0.402   2.216  23.211  0.00  0.00    +0.012 C 
ATOM      9  C   UNL     1       0.210   2.806  24.500  0.00  0.00    +0.024 C 
ATOM     12  C   UNL     1      -0.943   0.936  25.718  0.00  0.00    -0.023 C 
ATOM     13  C   UNL     1      -0.252   2.091  25.761  0.00  0.00    -0.073 C 
ATOM     22  C   UNL     1       0.141   2.690  27.083  0.00  0.00    +0.039 C 
ENDROOT
BRANCH   6  10
ATOM     10  C   UNL     1       0.894   0.041  23.200  0.00  0.00    -0.013 C 
ATOM     17  C   UNL     1       0.921  -1.210  24.073  0.00  0.00    +0.007 C 
ATOM     18  C   UNL     1       1.297  -0.292  21.767  0.00  0.00    +0.007 C 
ENDBRANCH   6  10
BRANCH   7  11
ATOM     11  C   UNL     1      -2.822   0.344  24.216  0.00  0.00    +0.092 C 
BRANCH  11   3
ATOM      3  N   UNL     1      -3.570  -0.469  25.173  0.00  0.00    -0.302 NA
ATOM     15  C   UNL     1      -4.756  -1.089  24.568  0.00  0.00    +0.087 C 
ATOM     16  C   UNL     1      -2.722  -1.470  25.835  0.00  0.00    +0.087 C 
ATOM     19  C   UNL     1      -4.441  -2.254  23.629  0.00  0.00    +0.046 C 
ATOM     20  C   UNL     1      -2.336  -2.649  24.938  0.00  0.00    +0.046 C 
ATOM     21  C   UNL     1      -3.570  -3.300  24.319  0.00  0.00    +0.117 C 
BRANCH  21   1
ATOM      1  O   UNL     1      -3.175  -4.277  23.363  0.00  0.00    -0.392 OA
ATOM     29  H   UNL     1      -3.745  -4.170  22.582  0.00  0.00    +0.210 HD
ENDBRANCH  21   1
ENDBRANCH  11   3
ENDBRANCH   7  11
BRANCH   9  14
ATOM     14  C   UNL     1      -0.071   4.313  24.531  0.00  0.00    +0.105 C 
BRANCH  14  23
ATOM      2  O   UNL     1      -2.422   3.695  24.746  0.00  0.00    -0.424 OA
ATOM      4  N   UNL     1      -1.885   5.618  25.754  0.00  0.00    -0.112 NA
ATOM      5  N   UNL     1      -3.233   5.392  25.955  0.00  0.00    -0.112 NA
ATOM     23  C   UNL     1      -1.452   4.603  25.044  0.00  0.00    +0.218 A 
ATOM     24  C   UNL     1      -3.504   4.259  25.349  0.00  0.00    +0.223 A 
BRANCH  24  25
ATOM     25  C   UNL     1      -4.776   3.536  25.240  0.00  0.00    +0.040 C 
ATOM     26  C   UNL     1      -4.887   2.739  23.894  0.00  0.00    +0.020 C 
ATOM     27  C   UNL     1      -6.010   4.504  25.295  0.00  0.00    +0.020 C 
ATOM     28  C   UNL     1      -5.063   2.465  26.358  0.00  0.00    +0.020 C 
ENDBRANCH  24  25
ENDBRANCH  14  23
ENDBRANCH   9  14
TORSDOF 7
ENDMDL
MODEL 4
REMARK VINA RESULT:      -0.2      2.145      5.727
REMARK  Name = 38031193
REMARK  13 active torsions:
REMARK  status: ('A' for Active; 'I' for Inactive)
REMARK    1  A    between atoms: O_1  and  C_21
REMARK    2  A    between atoms: N_3  and  C_11
REMARK    3  A    between atoms: C_6  and  C_10
REMARK    4  A    between atoms: C_7  and  C_11
REMARK    5  A    between atoms: C_9  and  C_14
REMARK    6  A    between atoms: C_10  and  C_17
REMARK    7  A    between atoms: C_10  and  C_18
REMARK    8  A    between atoms: C_13  and  C_22
REMARK    9  A    between atoms: C_14  and  C_23
REMARK   10  A    between atoms: C_24  and  C_25
REMARK   11  A    between atoms: C_25  and  C_26
REMARK   12  A    between atoms: C_25  and  C_27
REMARK   13  A    between atoms: C_25  and  C_28
REMARK                            x       y       z     vdW  Elec       q    Type
REMARK                         _______ _______ _______ _____ _____    ______ ____
ROOT
ATOM      6  C   UNL     1      -4.794   1.579  25.641  0.00  0.00    +0.000 C 
ATOM      7  C   UNL     1      -4.632   1.236  24.142  0.00  0.00    +0.029 C 
ATOM      8  C   UNL     1      -3.645   2.481  26.114  0.00  0.00    +0.012 C 
ATOM      9  C   UNL     1      -3.515   3.786  25.299  0.00  0.00    +0.024 C 
ATOM     12  C   UNL     1      -4.245   2.434  23.312  0.00  0.00    -0.023 C 
ATOM     13  C   UNL     1      -3.757   3.585  23.810  0.00  0.00    -0.073 C 
ATOM     22  C   UNL     1      -3.484   4.750  22.899  0.00  0.00    +0.039 C 
ENDROOT
BRANCH   6  10
ATOM     10  C   UNL     1      -6.157   2.225  25.923  0.00  0.00    -0.013 C 
ATOM     17  C   UNL     1      -7.086   2.051  24.726  0.00  0.00    +0.007 C 
ATOM     18  C   UNL     1      -6.779   1.628  27.181  0.00  0.00    +0.007 C 
ENDBRANCH   6  10
BRANCH   7  11
ATOM     11  C   UNL     1      -3.606   0.120  23.924  0.00  0.00    +0.092 C 
BRANCH  11   3
ATOM      3  N   UNL     1      -4.000  -1.090  24.642  0.00  0.00    -0.302 NA
ATOM     15  C   UNL     1      -3.602  -2.313  23.933  0.00  0.00    +0.087 C 
ATOM     16  C   UNL     1      -3.517  -1.095  26.030  0.00  0.00    +0.087 C 
ATOM     19  C   UNL     1      -2.103  -2.609  23.996  0.00  0.00    +0.046 C 
ATOM     20  C   UNL     1      -2.014  -1.351  26.165  0.00  0.00    +0.046 C 
ATOM     21  C   UNL     1      -1.602  -2.627  25.436  0.00  0.00    +0.117 C 
BRANCH  21   1
ATOM      1  O   UNL     1      -0.184  -2.747  25.433  0.00  0.00    -0.392 OA
ATOM     29  H   UNL     1       0.071  -3.223  26.242  0.00  0.00    +0.210 HD
ENDBRANCH  21   1
ENDBRANCH  11   3
ENDBRANCH   7  11
BRANCH   9  14
ATOM     14  C   UNL     1      -2.153   4.420  25.603  0.00  0.00    +0.105 C 
BRANCH  14  23
ATOM      2  O   UNL     1      -0.920   2.690  24.402  0.00  0.00    -0.424 OA
ATOM      4  N   UNL     1      -0.168   3.081  26.471  0.00  0.00    -0.112 NA
ATOM      5  N   UNL     1       0.616   2.089  25.912  0.00  0.00    -0.112 NA
ATOM     23  C   UNL     1      -1.050   3.401  25.555  0.00  0.00    +0.218 A 
ATOM     24  C   UNL     1       0.140   1.892  24.705  0.00  0.00    +0.223 A 
BRANCH  24  25
ATOM     25  C   UNL     1       0.587   0.958  23.664  0.00  0.00    +0.040 C 
ATOM     26  C   UNL     1       1.986   1.357  23.078  0.00  0.00    +0.020 C 
ATOM     27  C   UNL     1      -0.410   0.903  22.455  0.00  0.00    +0.020 C 
ATOM     28  C   UNL     1       0.758  -0.543  24.106  0.00  0.00    +0.020 C 
ENDBRANCH  24  25
ENDBRANCH  14  23
ENDBRANCH   9  14
TORSDOF 7
ENDMDL
MODEL 5
REMARK VINA RESULT:       0.0      2.215      4.695
REMARK  Name = 38031193
REMARK  13 active torsions:
REMARK  status: ('A' for Active; 'I' for Inactive)
REMARK    1  A    between atoms: O_1  and  C_21
REMARK    2  A    between atoms: N_3  and  C_11
REMARK    3  A    between atoms: C_6  and  C_10
REMARK    4  A    between atoms: C_7  and  C_11
REMARK    5  A    between atoms: C_9  and  C_14
REMARK    6  A    between atoms: C_10  and  C_17
REMARK    7  A    between atoms: C_10  and  C_18
REMARK    8  A    between atoms: C_13  and  C_22
REMARK    9  A    between atoms: C_14  and  C_23
REMARK   10  A    between atoms: C_24  and  C_25
REMARK   11  A    between atoms: C_25  and  C_26
REMARK   12  A    between atoms: C_25  and  C_27
REMARK   13  A    between atoms: C_25  and  C_28
REMARK                            x       y       z     vdW  Elec       q    Type
REMARK                         _______ _______ _______ _____ _____    ______ ____
ROOT
ATOM      6  C   UNL     1      -3.772  -1.142  23.984  0.00  0.00    +0.000 C 
ATOM      7  C   UNL     1      -3.707  -0.898  25.510  0.00  0.00    +0.029 C 
ATOM      8  C   UNL     1      -2.554  -0.520  23.288  0.00  0.00    +0.012 C 
ATOM      9  C   UNL     1      -1.206  -1.037  23.833  0.00  0.00    +0.024 C 
ATOM     12  C   UNL     1      -2.331  -1.138  26.077  0.00  0.00    -0.023 C 
ATOM     13  C   UNL     1      -1.204  -1.216  25.344  0.00  0.00    -0.073 C 
ATOM     22  C   UNL     1       0.107  -1.545  26.003  0.00  0.00    +0.039 C 
ENDROOT
BRANCH   6  10
ATOM     10  C   UNL     1      -3.891  -2.638  23.662  0.00  0.00    -0.013 C 
ATOM     17  C   UNL     1      -3.493  -3.476  24.872  0.00  0.00    +0.007 C 
ATOM     18  C   UNL     1      -5.310  -2.974  23.214  0.00  0.00    +0.007 C 
ENDBRANCH   6  10
BRANCH   7  11
ATOM     11  C   UNL     1      -4.162   0.518  25.877  0.00  0.00    +0.092 C 
BRANCH  11   3
ATOM      3  N   UNL     1      -5.555   0.728  25.489  0.00  0.00    -0.302 NA
ATOM     15  C   UNL     1      -6.354   1.309  26.575  0.00  0.00    +0.087 C 
ATOM     16  C   UNL     1      -5.676   1.517  24.255  0.00  0.00    +0.087 C 
ATOM     19  C   UNL     1      -6.069   2.789  26.835  0.00  0.00    +0.046 C 
ATOM     20  C   UNL     1      -5.367   3.005  24.435  0.00  0.00    +0.046 C 
ATOM     21  C   UNL     1      -6.205   3.612  25.558  0.00  0.00    +0.117 C 
BRANCH  21   1
ATOM      1  O   UNL     1      -5.778   4.944  25.816  0.00  0.00    -0.392 OA
ATOM     29  H   UNL     1      -5.836   5.089  26.776  0.00  0.00    +0.210 HD
ENDBRANCH  21   1
ENDBRANCH  11   3
ENDBRANCH   7  11
BRANCH   9  14
ATOM     14  C   UNL     1      -0.088  -0.109  23.341  0.00  0.00    +0.105 C 
BRANCH  14  23
ATOM      2  O   UNL     1      -1.184   1.951  24.056  0.00  0.00    -0.424 OA
ATOM      4  N   UNL     1       0.888   1.691  24.856  0.00  0.00    -0.112 NA
ATOM      5  N   UNL     1       0.391   2.887  25.338  0.00  0.00    -0.112 NA
ATOM     23  C   UNL     1      -0.065   1.179  24.113  0.00  0.00    +0.218 A 
ATOM     24  C   UNL     1      -0.820   2.999  24.845  0.00  0.00    +0.223 A 
BRANCH  24  25
ATOM     25  C   UNL     1      -1.810   4.067  25.028  0.00  0.00    +0.040 C 
ATOM     26  C   UNL     1      -2.909   4.048  23.909  0.00  0.00    +0.020 C 
ATOM     27  C   UNL     1      -1.154   5.491  24.993  0.00  0.00    +0.020 C 
ATOM     28  C   UNL     1      -2.621   4.038  26.378  0.00  0.00    +0.020 C 
ENDBRANCH  24  25
ENDBRANCH  14  23
ENDBRANCH   9  14
TORSDOF 7
ENDMDL
MODEL 6
REMARK VINA RESULT:       0.1      1.752      2.531
REMARK  Name = 38031193
REMARK  13 active torsions:
REMARK  status: ('A' for Active; 'I' for Inactive)
REMARK    1  A    between atoms: O_1  and  C_21
REMARK    2  A    between atoms: N_3  and  C_11
REMARK    3  A    between atoms: C_6  and  C_10
REMARK    4  A    between atoms: C_7  and  C_11
REMARK    5  A    between atoms: C_9  and  C_14
REMARK    6  A    between atoms: C_10  and  C_17
REMARK    7  A    between atoms: C_10  and  C_18
REMARK    8  A    between atoms: C_13  and  C_22
REMARK    9  A    between atoms: C_14  and  C_23
REMARK   10  A    between atoms: C_24  and  C_25
REMARK   11  A    between atoms: C_25  and  C_26
REMARK   12  A    between atoms: C_25  and  C_27
REMARK   13  A    between atoms: C_25  and  C_28
REMARK                            x       y       z     vdW  Elec       q    Type
REMARK                         _______ _______ _______ _____ _____    ______ ____
ROOT
ATOM      6  C   UNL     1      -0.613   0.753  23.635  0.00  0.00    +0.000 C 
ATOM      7  C   UNL     1      -0.422   1.010  25.149  0.00  0.00    +0.029 C 
ATOM      8  C   UNL     1      -1.636   1.735  23.048  0.00  0.00    +0.012 C 
ATOM      9  C   UNL     1      -1.265   3.216  23.275  0.00  0.00    +0.024 C 
ATOM     12  C   UNL     1      -0.310   2.477  25.477  0.00  0.00    -0.023 C 
ATOM     13  C   UNL     1      -0.670   3.476  24.651  0.00  0.00    -0.073 C 
ATOM     22  C   UNL     1      -0.435   4.909  25.046  0.00  0.00    +0.039 C 
ENDROOT
BRANCH   6  10
ATOM     10  C   UNL     1       0.723   0.829  22.883  0.00  0.00    -0.013 C 
ATOM     17  C   UNL     1       1.866   1.104  23.854  0.00  0.00    +0.007 C 
ATOM     18  C   UNL     1       0.970  -0.461  22.107  0.00  0.00    +0.007 C 
ENDBRANCH   6  10
BRANCH   7  11
ATOM     11  C   UNL     1      -1.555   0.394  25.974  0.00  0.00    +0.092 C 
BRANCH  11   3
ATOM      3  N   UNL     1      -1.264  -1.004  26.287  0.00  0.00    -0.302 NA
ATOM     15  C   UNL     1      -2.415  -1.691  26.887  0.00  0.00    +0.087 C 
ATOM     16  C   UNL     1      -0.749  -1.738  25.123  0.00  0.00    +0.087 C 
ATOM     19  C   UNL     1      -3.535  -2.013  25.895  0.00  0.00    +0.046 C 
ATOM     20  C   UNL     1      -1.812  -2.062  24.070  0.00  0.00    +0.046 C 
ATOM     21  C   UNL     1      -3.003  -2.786  24.692  0.00  0.00    +0.117 C 
BRANCH  21   1
ATOM      1  O   UNL     1      -4.044  -2.920  23.731  0.00  0.00    -0.392 OA
ATOM     29  H   UNL     1      -3.760  -2.456  22.925  0.00  0.00    +0.210 HD
ENDBRANCH  21   1
ENDBRANCH  11   3
ENDBRANCH   7  11
BRANCH   9  14
ATOM     14  C   UNL     1      -2.498   4.081  22.985  0.00  0.00    +0.105 C 
BRANCH  14  23
ATOM      2  O   UNL     1      -4.182   2.653  24.023  0.00  0.00    -0.424 OA
ATOM      4  N   UNL     1      -4.024   4.691  24.931  0.00  0.00    -0.112 NA
ATOM      5  N   UNL     1      -5.006   3.995  25.611  0.00  0.00    -0.112 NA
ATOM     23  C   UNL     1      -3.571   3.869  24.013  0.00  0.00    +0.218 A 
ATOM     24  C   UNL     1      -5.065   2.811  25.047  0.00  0.00    +0.223 A 
BRANCH  24  25
ATOM     25  C   UNL     1      -5.925   1.666  25.365  0.00  0.00    +0.040 C 
ATOM     26  C   UNL     1      -5.164   0.301  25.227  0.00  0.00    +0.020 C 
ATOM     27  C   UNL     1      -7.172   1.584  24.417  0.00  0.00    +0.020 C 
ATOM     28  C   UNL     1      -6.530   1.634  26.819  0.00  0.00    +0.020 C 
ENDBRANCH  24  25
ENDBRANCH  14  23
ENDBRANCH   9  14
TORSDOF 7
ENDMDL
MODEL 7
REMARK VINA RESULT:       0.2      1.855      4.956
REMARK  Name = 38031193
REMARK  13 active torsions:
REMARK  status: ('A' for Active; 'I' for Inactive)
REMARK    1  A    between atoms: O_1  and  C_21
REMARK    2  A    between atoms: N_3  and  C_11
REMARK    3  A    between atoms: C_6  and  C_10
REMARK    4  A    between atoms: C_7  and  C_11
REMARK    5  A    between atoms: C_9  and  C_14
REMARK    6  A    between atoms: C_10  and  C_17
REMARK    7  A    between atoms: C_10  and  C_18
REMARK    8  A    between atoms: C_13  and  C_22
REMARK    9  A    between atoms: C_14  and  C_23
REMARK   10  A    between atoms: C_24  and  C_25
REMARK   11  A    between atoms: C_25  and  C_26
REMARK   12  A    between atoms: C_25  and  C_27
REMARK   13  A    between atoms: C_25  and  C_28
REMARK                            x       y       z     vdW  Elec       q    Type
REMARK                         _______ _______ _______ _____ _____    ______ ____
ROOT
ATOM      6  C   UNL     1      -0.769   2.605  27.123  0.00  0.00    +0.000 C 
ATOM      7  C   UNL     1      -1.633   3.804  26.668  0.00  0.00    +0.029 C 
ATOM      8  C   UNL     1      -0.473   1.675  25.938  0.00  0.00    +0.012 C 
ATOM      9  C   UNL     1       0.219   2.388  24.757  0.00  0.00    +0.024 C 
ATOM     12  C   UNL     1      -1.160   4.397  25.365  0.00  0.00    -0.023 C 
ATOM     13  C   UNL     1      -0.324   3.786  24.504  0.00  0.00    -0.073 C 
ATOM     22  C   UNL     1       0.152   4.504  23.272  0.00  0.00    +0.039 C 
ENDROOT
BRANCH   6  10
ATOM     10  C   UNL     1       0.528   3.074  27.796  0.00  0.00    -0.013 C 
ATOM     17  C   UNL     1       0.519   2.711  29.278  0.00  0.00    +0.007 C 
ATOM     18  C   UNL     1       1.740   2.465  27.098  0.00  0.00    +0.007 C 
ENDBRANCH   6  10
BRANCH   7  11
ATOM     11  C   UNL     1      -3.110   3.421  26.540  0.00  0.00    +0.092 C 
BRANCH  11   3
ATOM      3  N   UNL     1      -3.616   3.754  25.210  0.00  0.00    -0.302 NA
ATOM     15  C   UNL     1      -3.679   2.581  24.329  0.00  0.00    +0.087 C 
ATOM     16  C   UNL     1      -4.908   4.453  25.265  0.00  0.00    +0.087 C 
ATOM     19  C   UNL     1      -4.817   1.614  24.659  0.00  0.00    +0.046 C 
ATOM     20  C   UNL     1      -6.089   3.550  25.628  0.00  0.00    +0.046 C 
ATOM     21  C   UNL     1      -6.161   2.336  24.705  0.00  0.00    +0.117 C 
BRANCH  21   1
ATOM      1  O   UNL     1      -7.157   1.432  25.169  0.00  0.00    -0.392 OA
ATOM     29  H   UNL     1      -6.733   0.564  25.286  0.00  0.00    +0.210 HD
ENDBRANCH  21   1
ENDBRANCH  11   3
ENDBRANCH   7  11
BRANCH   9  14
ATOM     14  C   UNL     1       0.138   1.483  23.521  0.00  0.00    +0.105 C 
BRANCH  14  23
ATOM      2  O   UNL     1      -1.707   0.009  24.134  0.00  0.00    -0.424 OA
ATOM      4  N   UNL     1       0.272  -1.020  23.974  0.00  0.00    -0.112 NA
ATOM      5  N   UNL     1      -0.674  -1.965  24.322  0.00  0.00    -0.112 NA
ATOM     23  C   UNL     1      -0.376   0.117  23.875  0.00  0.00    +0.218 A 
ATOM     24  C   UNL     1      -1.814  -1.321  24.406  0.00  0.00    +0.223 A 
BRANCH  24  25
ATOM     25  C   UNL     1      -3.152  -1.825  24.738  0.00  0.00    +0.040 C 
ATOM     26  C   UNL     1      -3.622  -1.356  26.160  0.00  0.00    +0.020 C 
ATOM     27  C   UNL     1      -3.208  -3.392  24.739  0.00  0.00    +0.020 C 
ATOM     28  C   UNL     1      -4.317  -1.388  23.774  0.00  0.00    +0.020 C 
ENDBRANCH  24  25
ENDBRANCH  14  23
ENDBRANCH   9  14
TORSDOF 7
ENDMDL
MODEL 8
REMARK VINA RESULT:       0.7      1.966      5.036
REMARK  Name = 38031193
REMARK  13 active torsions:
REMARK  status: ('A' for Active; 'I' for Inactive)
REMARK    1  A    between atoms: O_1  and  C_21
REMARK    2  A    between atoms: N_3  and  C_11
REMARK    3  A    between atoms: C_6  and  C_10
REMARK    4  A    between atoms: C_7  and  C_11
REMARK    5  A    between atoms: C_9  and  C_14
REMARK    6  A    between atoms: C_10  and  C_17
REMARK    7  A    between atoms: C_10  and  C_18
REMARK    8  A    between atoms: C_13  and  C_22
REMARK    9  A    between atoms: C_14  and  C_23
REMARK   10  A    between atoms: C_24  and  C_25
REMARK   11  A    between atoms: C_25  and  C_26
REMARK   12  A    between atoms: C_25  and  C_27
REMARK   13  A    between atoms: C_25  and  C_28
REMARK                            x       y       z     vdW  Elec       q    Type
REMARK                         _______ _______ _______ _____ _____    ______ ____
ROOT
ATOM      6  C   UNL     1      -1.216   3.655  25.490  0.00  0.00    +0.000 C 
ATOM      7  C   UNL     1      -2.679   3.397  25.062  0.00  0.00    +0.029 C 
ATOM      8  C   UNL     1      -0.311   2.501  25.040  0.00  0.00    +0.012 C 
ATOM      9  C   UNL     1      -0.362   2.239  23.519  0.00  0.00    +0.024 C 
ATOM     12  C   UNL     1      -2.786   2.883  23.648  0.00  0.00    -0.023 C 
ATOM     13  C   UNL     1      -1.761   2.375  22.938  0.00  0.00    -0.073 C 
ATOM     22  C   UNL     1      -1.959   1.971  21.503  0.00  0.00    +0.039 C 
ENDROOT
BRANCH   6  10
ATOM     10  C   UNL     1      -0.706   5.000  24.955  0.00  0.00    -0.013 C 
ATOM     17  C   UNL     1      -0.056   4.817  23.588  0.00  0.00    +0.007 C 
ATOM     18  C   UNL     1      -1.848   6.009  24.879  0.00  0.00    +0.007 C 
ENDBRANCH   6  10
BRANCH   7  11
ATOM     11  C   UNL     1      -3.381   2.417  26.006  0.00  0.00    +0.092 C 
BRANCH  11   3
ATOM      3  N   UNL     1      -4.613   3.001  26.533  0.00  0.00    -0.302 NA
ATOM     15  C   UNL     1      -5.268   3.887  25.562  0.00  0.00    +0.087 C 
ATOM     16  C   UNL     1      -5.542   1.979  27.036  0.00  0.00    +0.087 C 
ATOM     19  C   UNL     1      -5.956   3.151  24.411  0.00  0.00    +0.046 C 
ATOM     20  C   UNL     1      -6.240   1.177  25.936  0.00  0.00    +0.046 C 
ATOM     21  C   UNL     1      -6.930   2.098  24.932  0.00  0.00    +0.117 C 
BRANCH  21   1
ATOM      1  O   UNL     1      -7.422   1.338  23.835  0.00  0.00    -0.392 OA
ATOM     29  H   UNL     1      -7.674   0.462  24.175  0.00  0.00    +0.210 HD
ENDBRANCH  21   1
ENDBRANCH  11   3
ENDBRANCH   7  11
BRANCH   9  14
ATOM     14  C   UNL     1       0.273   0.873  23.235  0.00  0.00    +0.105 C 
BRANCH  14  23
ATOM      2  O   UNL     1      -1.729  -0.297  23.994  0.00  0.00    -0.424 OA
ATOM      4  N   UNL     1       0.180  -1.116  24.823  0.00  0.00    -0.112 NA
ATOM      5  N   UNL     1      -0.864  -1.867  25.330  0.00  0.00    -0.112 NA
ATOM     23  C   UNL     1      -0.372  -0.212  24.049  0.00  0.00    +0.218 A 
ATOM     24  C   UNL     1      -1.959  -1.354  24.821  0.00  0.00    +0.223 A 
BRANCH  24  25
ATOM     25  C   UNL     1      -3.357  -1.755  25.012  0.00  0.00    +0.040 C 
ATOM     26  C   UNL     1      -3.866  -1.444  26.463  0.00  0.00    +0.020 C 
ATOM     27  C   UNL     1      -3.566  -3.293  24.780  0.00  0.00    +0.020 C 
ATOM     28  C   UNL     1      -4.412  -1.066  24.067  0.00  0.00    +0.020 C 
ENDBRANCH  24  25
ENDBRANCH  14  23
ENDBRANCH   9  14
TORSDOF 7
ENDMDL
MODEL 9
REMARK VINA RESULT:       1.1      2.060      6.262
REMARK  Name = 38031193
REMARK  13 active torsions:
REMARK  status: ('A' for Active; 'I' for Inactive)
REMARK    1  A    between atoms: O_1  and  C_21
REMARK    2  A    between atoms: N_3  and  C_11
REMARK    3  A    between atoms: C_6  and  C_10
REMARK    4  A    between atoms: C_7  and  C_11
REMARK    5  A    between atoms: C_9  and  C_14
REMARK    6  A    between atoms: C_10  and  C_17
REMARK    7  A    between atoms: C_10  and  C_18
REMARK    8  A    between atoms: C_13  and  C_22
REMARK    9  A    between atoms: C_14  and  C_23
REMARK   10  A    between atoms: C_24  and  C_25
REMARK   11  A    between atoms: C_25  and  C_26
REMARK   12  A    between atoms: C_25  and  C_27
REMARK   13  A    between atoms: C_25  and  C_28
REMARK                            x       y       z     vdW  Elec       q    Type
REMARK                         _______ _______ _______ _____ _____    ______ ____
ROOT
ATOM      6  C   UNL     1      -3.355   2.786  23.905  0.00  0.00    +0.000 C 
ATOM      7  C   UNL     1      -3.363   3.347  25.346  0.00  0.00    +0.029 C 
ATOM      8  C   UNL     1      -3.912   1.356  23.880  0.00  0.00    +0.012 C 
ATOM      9  C   UNL     1      -5.335   1.242  24.468  0.00  0.00    +0.024 C 
ATOM     12  C   UNL     1      -4.645   3.041  26.079  0.00  0.00    -0.023 C 
ATOM     13  C   UNL     1      -5.543   2.114  25.696  0.00  0.00    -0.073 C 
ATOM     22  C   UNL     1      -6.833   1.950  26.454  0.00  0.00    +0.039 C 
ENDROOT
BRANCH   6  10
ATOM     10  C   UNL     1      -4.132   3.699  22.945  0.00  0.00    -0.013 C 
ATOM     17  C   UNL     1      -3.902   5.164  23.302  0.00  0.00    +0.007 C 
ATOM     18  C   UNL     1      -3.723   3.424  21.502  0.00  0.00    +0.007 C 
ENDBRANCH   6  10
BRANCH   7  11
ATOM     11  C   UNL     1      -2.179   2.823  26.163  0.00  0.00    +0.092 C 
BRANCH  11   3
ATOM      3  N   UNL     1      -1.025   3.709  26.025  0.00  0.00    -0.302 NA
ATOM     15  C   UNL     1       0.208   3.102  26.543  0.00  0.00    +0.087 C 
ATOM     16  C   UNL     1      -0.850   4.183  24.645  0.00  0.00    +0.087 C 
ATOM     19  C   UNL     1       0.784   2.002  25.649  0.00  0.00    +0.046 C 
ATOM     20  C   UNL     1      -0.310   3.120  23.686  0.00  0.00    +0.046 C 
ATOM     21  C   UNL     1       0.977   2.496  24.218  0.00  0.00    +0.117 C 
BRANCH  21   1
ATOM      1  O   UNL     1       1.361   1.400  23.397  0.00  0.00    -0.392 OA
ATOM     29  H   UNL     1       0.980   0.594  23.788  0.00  0.00    +0.210 HD
ENDBRANCH  21   1
ENDBRANCH  11   3
ENDBRANCH   7  11
BRANCH   9  14
ATOM     14  C   UNL     1      -5.641  -0.238  24.727  0.00  0.00    +0.105 C 
BRANCH  14  23
ATOM      2  O   UNL     1      -3.262  -0.674  25.050  0.00  0.00    -0.424 OA
ATOM      4  N   UNL     1      -4.319  -2.223  23.832  0.00  0.00    -0.112 NA
ATOM      5  N   UNL     1      -2.992  -2.593  23.936  0.00  0.00    -0.112 NA
ATOM     23  C   UNL     1      -4.431  -1.097  24.497  0.00  0.00    +0.218 A 
ATOM     24  C   UNL     1      -2.412  -1.660  24.654  0.00  0.00    +0.223 A 
BRANCH  24  25
ATOM     25  C   UNL     1      -1.013  -1.542  25.080  0.00  0.00    +0.040 C 
ATOM     26  C   UNL     1      -0.857  -0.617  26.338  0.00  0.00    +0.020 C 
ATOM     27  C   UNL     1      -0.104  -0.932  23.956  0.00  0.00    +0.020 C 
ATOM     28  C   UNL     1      -0.295  -2.883  25.486  0.00  0.00    +0.020 C 
ENDBRANCH  24  25
ENDBRANCH  14  23
ENDBRANCH   9  14
TORSDOF 7
ENDMDL
MODEL 10
REMARK VINA RESULT:       1.4      2.160      5.216
REMARK  Name = 38031193
REMARK  13 active torsions:
REMARK  status: ('A' for Active; 'I' for Inactive)
REMARK    1  A    between atoms: O_1  and  C_21
REMARK    2  A    between atoms: N_3  and  C_11
REMARK    3  A    between atoms: C_6  and  C_10
REMARK    4  A    between atoms: C_7  and  C_11
REMARK    5  A    between atoms: C_9  and  C_14
REMARK    6  A    between atoms: C_10  and  C_17
REMARK    7  A    between atoms: C_10  and  C_18
REMARK    8  A    between atoms: C_13  and  C_22
REMARK    9  A    between atoms: C_14  and  C_23
REMARK   10  A    between atoms: C_24  and  C_25
REMARK   11  A    between atoms: C_25  and  C_26
REMARK   12  A    between atoms: C_25  and  C_27
REMARK   13  A    between atoms: C_25  and  C_28
REMARK                            x       y       z     vdW  Elec       q    Type
REMARK                         _______ _______ _______ _____ _____    ______ ____
ROOT
ATOM      6  C   UNL     1      -3.073  -0.958  25.133  0.00  0.00    +0.000 C 
ATOM      7  C   UNL     1      -2.944  -0.277  23.751  0.00  0.00    +0.029 C 
ATOM      8  C   UNL     1      -3.744  -0.011  26.139  0.00  0.00    +0.012 C 
ATOM      9  C   UNL     1      -5.131   0.487  25.680  0.00  0.00    +0.024 C 
ATOM     12  C   UNL     1      -4.197   0.459  23.349  0.00  0.00    -0.023 C 
ATOM     13  C   UNL     1      -5.190   0.798  24.192  0.00  0.00    -0.073 C 
ATOM     22  C   UNL     1      -6.437   1.456  23.669  0.00  0.00    +0.039 C 
ENDROOT
BRANCH   6  10
ATOM     10  C   UNL     1      -3.833  -2.288  25.033  0.00  0.00    -0.013 C 
ATOM     17  C   UNL     1      -4.228  -2.567  23.587  0.00  0.00    +0.007 C 
ATOM     18  C   UNL     1      -2.986  -3.427  25.592  0.00  0.00    +0.007 C 
ENDBRANCH   6  10
BRANCH   7  11
ATOM     11  C   UNL     1      -1.756   0.689  23.704  0.00  0.00    +0.092 C 
BRANCH  11   3
ATOM      3  N   UNL     1      -0.694   0.242  24.602  0.00  0.00    -0.302 NA
ATOM     15  C   UNL     1      -0.052  -0.994  24.135  0.00  0.00    +0.087 C 
ATOM     16  C   UNL     1       0.299   1.296  24.857  0.00  0.00    +0.087 C 
ATOM     19  C   UNL     1       0.871  -0.800  22.931  0.00  0.00    +0.046 C 
ATOM     20  C   UNL     1       1.234   1.568  23.677  0.00  0.00    +0.046 C 
ATOM     21  C   UNL     1       1.909   0.285  23.198  0.00  0.00    +0.117 C 
BRANCH  21   1
ATOM      1  O   UNL     1       2.635   0.537  22.001  0.00  0.00    -0.392 OA
ATOM     29  H   UNL     1       2.946   1.458  22.035  0.00  0.00    +0.210 HD
ENDBRANCH  21   1
ENDBRANCH  11   3
ENDBRANCH   7  11
BRANCH   9  14
ATOM     14  C   UNL     1      -5.539   1.678  26.556  0.00  0.00    +0.105 C 
BRANCH  14  23
ATOM      2  O   UNL     1      -3.545   2.876  25.822  0.00  0.00    -0.424 OA
ATOM      4  N   UNL     1      -5.386   4.141  25.925  0.00  0.00    -0.112 NA
ATOM      5  N   UNL     1      -4.343   4.940  25.498  0.00  0.00    -0.112 NA
ATOM     23  C   UNL     1      -4.875   2.945  26.102  0.00  0.00    +0.218 A 
ATOM     24  C   UNL     1      -3.287   4.161  25.453  0.00  0.00    +0.223 A 
BRANCH  24  25
ATOM     25  C   UNL     1      -1.907   4.476  25.065  0.00  0.00    +0.040 C 
ATOM     26  C   UNL     1      -0.860   3.817  26.029  0.00  0.00    +0.020 C 
ATOM     27  C   UNL     1      -1.628   6.020  25.082  0.00  0.00    +0.020 C 
ATOM     28  C   UNL     1      -1.467   4.011  23.626  0.00  0.00    +0.020 C 
ENDBRANCH  24  25
ENDBRANCH  14  23
ENDBRANCH   9  14
TORSDOF 7
ENDMDL
