MODEL 1
REMARK VINA RESULT:      -5.5      0.000      0.000
REMARK  Name = 26742909
REMARK  6 active torsions:
REMARK  status: ('A' for Active; 'I' for Inactive)
REMARK    1  A    between atoms: N_5  and  C_18
REMARK    2  A    between atoms: C_7  and  C_13
REMARK    3  A    between atoms: C_8  and  C_12
REMARK    4  A    between atoms: C_12  and  C_14
REMARK    5  A    between atoms: C_13  and  C_15
REMARK    6  A    between atoms: C_17  and  C_19
REMARK                            x       y       z     vdW  Elec       q    Type
REMARK                         _______ _______ _______ _____ _____    ______ ____
ROOT
ATOM      4  N   UNL     1      -7.458 -10.778  10.779  0.00  0.00    -0.316 NA
ATOM      7  C   UNL     1      -4.987 -10.284   9.243  0.00  0.00    +0.004 C 
ATOM      8  C   UNL     1      -4.977 -10.697  10.734  0.00  0.00    +0.012 C 
ATOM      9  C   UNL     1      -6.298 -10.766   8.598  0.00  0.00    +0.019 C 
ATOM     10  C   UNL     1      -6.265 -10.264  11.453  0.00  0.00    +0.085 C 
ATOM     11  C   UNL     1      -7.531 -10.333   9.390  0.00  0.00    +0.081 C 
ATOM     30  H   UNL     1      -8.289 -10.464  11.279  0.00  0.00    +0.122 HD
ENDROOT
BRANCH   8  12
ATOM     12  C   UNL     1      -3.745 -10.192  11.487  0.00  0.00    +0.064 C 
BRANCH  12  14
ATOM      3  O   UNL     1      -3.353 -10.753  15.022  0.00  0.00    -0.354 OA
ATOM      6  N   UNL     1      -2.861 -10.697  13.724  0.00  0.00    -0.083 NA
ATOM     14  C   UNL     1      -3.908 -10.350  12.971  0.00  0.00    +0.085 A 
ATOM     16  C   UNL     1      -5.077 -10.174  13.733  0.00  0.00    +0.076 A 
ATOM     17  C   UNL     1      -4.674 -10.439  15.015  0.00  0.00    +0.167 A 
BRANCH  17  19
ATOM      1  F   UNL     1      -7.192 -10.496  19.975  0.00  0.00    -0.205 F 
ATOM     19  C   UNL     1      -5.323 -10.455  16.293  0.00  0.00    +0.020 A 
ATOM     22  C   UNL     1      -6.692 -10.204  16.383  0.00  0.00    +0.014 A 
ATOM     23  C   UNL     1      -4.585 -10.720  17.447  0.00  0.00    +0.014 A 
ATOM     26  C   UNL     1      -7.324 -10.219  17.627  0.00  0.00    +0.039 A 
ATOM     27  C   UNL     1      -5.216 -10.734  18.691  0.00  0.00    +0.039 A 
ATOM     29  C   UNL     1      -6.586 -10.483  18.781  0.00  0.00    +0.123 A 
ENDBRANCH  17  19
ENDBRANCH  12  14
ENDBRANCH   8  12
BRANCH   7  13
ATOM     13  C   UNL     1      -4.785  -8.782   9.011  0.00  0.00    +0.100 C 
BRANCH  13  15
ATOM      2  O   UNL     1      -6.090  -7.723  10.737  0.00  0.00    -0.275 OA
ATOM      5  N   UNL     1      -6.752  -7.533   8.491  0.00  0.00    -0.285 N 
ATOM     15  C   UNL     1      -5.942  -7.954   9.542  0.00  0.00    +0.217 C 
ATOM     31  H   UNL     1      -6.486  -7.815   7.550  0.00  0.00    +0.155 HD
BRANCH   5  18
ATOM     18  C   UNL     1      -7.925  -6.745   8.569  0.00  0.00    +0.033 A 
ATOM     20  C   UNL     1      -9.159  -7.353   8.799  0.00  0.00    +0.023 A 
ATOM     21  C   UNL     1      -7.847  -5.360   8.418  0.00  0.00    +0.023 A 
ATOM     24  C   UNL     1     -10.316  -6.576   8.876  0.00  0.00    +0.002 A 
ATOM     25  C   UNL     1      -9.004  -4.584   8.495  0.00  0.00    +0.002 A 
ATOM     28  C   UNL     1     -10.238  -5.192   8.725  0.00  0.00    +0.000 A 
ENDBRANCH   5  18
ENDBRANCH  13  15
ENDBRANCH   7  13
TORSDOF 6
ENDMDL
MODEL 2
REMARK VINA RESULT:      -4.6     14.671     17.934
REMARK  Name = 26742909
REMARK  6 active torsions:
REMARK  status: ('A' for Active; 'I' for Inactive)
REMARK    1  A    between atoms: N_5  and  C_18
REMARK    2  A    between atoms: C_7  and  C_13
REMARK    3  A    between atoms: C_8  and  C_12
REMARK    4  A    between atoms: C_12  and  C_14
REMARK    5  A    between atoms: C_13  and  C_15
REMARK    6  A    between atoms: C_17  and  C_19
REMARK                            x       y       z     vdW  Elec       q    Type
REMARK                         _______ _______ _______ _____ _____    ______ ____
ROOT
ATOM      4  N   UNL     1      -1.609   5.628  25.025  0.00  0.00    -0.316 NA
ATOM      7  C   UNL     1      -2.924   3.090  25.757  0.00  0.00    +0.004 C 
ATOM      8  C   UNL     1      -1.822   3.179  24.675  0.00  0.00    +0.012 C 
ATOM      9  C   UNL     1      -2.767   4.268  26.732  0.00  0.00    +0.019 C 
ATOM     10  C   UNL     1      -1.774   4.572  24.026  0.00  0.00    +0.085 C 
ATOM     11  C   UNL     1      -2.686   5.614  26.013  0.00  0.00    +0.081 C 
ATOM     30  H   UNL     1      -1.591   6.535  24.559  0.00  0.00    +0.122 HD
ENDROOT
BRANCH   8  12
ATOM     12  C   UNL     1      -1.941   2.092  23.606  0.00  0.00    +0.064 C 
BRANCH  12  14
ATOM      3  O   UNL     1       0.541  -0.507  23.386  0.00  0.00    -0.354 OA
ATOM      6  N   UNL     1      -0.775  -0.066  23.447  0.00  0.00    -0.083 NA
ATOM     14  C   UNL     1      -0.691   1.265  23.524  0.00  0.00    +0.085 A 
ATOM     16  C   UNL     1       0.641   1.716  23.516  0.00  0.00    +0.076 A 
ATOM     17  C   UNL     1       1.375   0.563  23.428  0.00  0.00    +0.167 A 
BRANCH  17  19
ATOM      1  F   UNL     1       6.809  -0.609  23.214  0.00  0.00    -0.205 F 
ATOM     19  C   UNL     1       2.776   0.261  23.374  0.00  0.00    +0.020 A 
ATOM     22  C   UNL     1       3.684   1.238  22.966  0.00  0.00    +0.014 A 
ATOM     23  C   UNL     1       3.230  -1.009  23.728  0.00  0.00    +0.014 A 
ATOM     26  C   UNL     1       5.047   0.944  22.912  0.00  0.00    +0.039 A 
ATOM     27  C   UNL     1       4.592  -1.304  23.673  0.00  0.00    +0.039 A 
ATOM     29  C   UNL     1       5.501  -0.327  23.266  0.00  0.00    +0.123 A 
ENDBRANCH  17  19
ENDBRANCH  12  14
ENDBRANCH   8  12
BRANCH   7  13
ATOM     13  C   UNL     1      -4.348   3.035  25.192  0.00  0.00    +0.100 C 
BRANCH  13  15
ATOM      2  O   UNL     1      -5.982   1.341  24.678  0.00  0.00    -0.275 OA
ATOM      5  N   UNL     1      -3.741   0.732  25.035  0.00  0.00    -0.285 N 
ATOM     15  C   UNL     1      -4.814   1.614  24.934  0.00  0.00    +0.217 C 
ATOM     31  H   UNL     1      -2.829   1.125  25.257  0.00  0.00    +0.155 HD
BRANCH   5  18
ATOM     18  C   UNL     1      -3.761  -0.673  24.865  0.00  0.00    +0.033 A 
ATOM     20  C   UNL     1      -4.325  -1.228  23.716  0.00  0.00    +0.023 A 
ATOM     21  C   UNL     1      -3.216  -1.503  25.845  0.00  0.00    +0.023 A 
ATOM     24  C   UNL     1      -4.345  -2.613  23.548  0.00  0.00    +0.002 A 
ATOM     25  C   UNL     1      -3.237  -2.888  25.676  0.00  0.00    +0.002 A 
ATOM     28  C   UNL     1      -3.801  -3.442  24.527  0.00  0.00    +0.000 A 
ENDBRANCH   5  18
ENDBRANCH  13  15
ENDBRANCH   7  13
TORSDOF 6
ENDMDL
MODEL 3
REMARK VINA RESULT:      -4.1     14.719     17.918
REMARK  Name = 26742909
REMARK  6 active torsions:
REMARK  status: ('A' for Active; 'I' for Inactive)
REMARK    1  A    between atoms: N_5  and  C_18
REMARK    2  A    between atoms: C_7  and  C_13
REMARK    3  A    between atoms: C_8  and  C_12
REMARK    4  A    between atoms: C_12  and  C_14
REMARK    5  A    between atoms: C_13  and  C_15
REMARK    6  A    between atoms: C_17  and  C_19
REMARK                            x       y       z     vdW  Elec       q    Type
REMARK                         _______ _______ _______ _____ _____    ______ ____
ROOT
ATOM      4  N   UNL     1      -6.216   4.821  26.048  0.00  0.00    -0.316 NA
ATOM      7  C   UNL     1      -4.077   2.902  25.374  0.00  0.00    +0.004 C 
ATOM      8  C   UNL     1      -3.792   4.284  26.008  0.00  0.00    +0.012 C 
ATOM      9  C   UNL     1      -5.512   2.475  25.727  0.00  0.00    +0.019 C 
ATOM     10  C   UNL     1      -4.889   5.305  25.665  0.00  0.00    +0.085 C 
ATOM     11  C   UNL     1      -6.541   3.554  25.395  0.00  0.00    +0.081 C 
ATOM     30  H   UNL     1      -6.915   5.519  25.797  0.00  0.00    +0.122 HD
ENDROOT
BRANCH   8  12
ATOM     12  C   UNL     1      -2.412   4.836  25.646  0.00  0.00    +0.064 C 
BRANCH  12  14
ATOM      3  O   UNL     1      -0.218   1.985  25.789  0.00  0.00    -0.354 OA
ATOM      6  N   UNL     1      -1.139   2.856  26.355  0.00  0.00    -0.083 NA
ATOM     14  C   UNL     1      -1.431   3.730  25.387  0.00  0.00    +0.085 A 
ATOM     16  C   UNL     1      -0.730   3.461  24.198  0.00  0.00    +0.076 A 
ATOM     17  C   UNL     1       0.018   2.355  24.504  0.00  0.00    +0.167 A 
BRANCH  17  19
ATOM      1  F   UNL     1       3.655  -0.797  21.714  0.00  0.00    -0.205 F 
ATOM     19  C   UNL     1       0.956   1.542  23.786  0.00  0.00    +0.020 A 
ATOM     22  C   UNL     1       2.269   1.980  23.612  0.00  0.00    +0.014 A 
ATOM     23  C   UNL     1       0.555   0.314  23.259  0.00  0.00    +0.014 A 
ATOM     26  C   UNL     1       3.181   1.189  22.913  0.00  0.00    +0.039 A 
ATOM     27  C   UNL     1       1.466  -0.476  22.559  0.00  0.00    +0.039 A 
ATOM     29  C   UNL     1       2.780  -0.039  22.386  0.00  0.00    +0.123 A 
ENDBRANCH  17  19
ENDBRANCH  12  14
ENDBRANCH   8  12
BRANCH   7  13
ATOM     13  C   UNL     1      -3.852   2.853  23.858  0.00  0.00    +0.100 C 
BRANCH  13  15
ATOM      2  O   UNL     1      -2.830   1.334  22.293  0.00  0.00    -0.275 OA
ATOM      5  N   UNL     1      -3.570   0.540  24.377  0.00  0.00    -0.285 N 
ATOM     15  C   UNL     1      -3.349   1.499  23.392  0.00  0.00    +0.217 C 
ATOM     31  H   UNL     1      -4.015   0.846  25.239  0.00  0.00    +0.155 HD
BRANCH   5  18
ATOM     18  C   UNL     1      -3.245  -0.837  24.329  0.00  0.00    +0.033 A 
ATOM     20  C   UNL     1      -4.212  -1.767  23.949  0.00  0.00    +0.023 A 
ATOM     21  C   UNL     1      -1.958  -1.262  24.660  0.00  0.00    +0.023 A 
ATOM     24  C   UNL     1      -3.892  -3.125  23.901  0.00  0.00    +0.002 A 
ATOM     25  C   UNL     1      -1.640  -2.620  24.612  0.00  0.00    +0.002 A 
ATOM     28  C   UNL     1      -2.606  -3.551  24.232  0.00  0.00    +0.000 A 
ENDBRANCH   5  18
ENDBRANCH  13  15
ENDBRANCH   7  13
TORSDOF 6
ENDMDL
MODEL 4
REMARK VINA RESULT:      -3.7      2.536      5.118
REMARK  Name = 26742909
REMARK  6 active torsions:
REMARK  status: ('A' for Active; 'I' for Inactive)
REMARK    1  A    between atoms: N_5  and  C_18
REMARK    2  A    between atoms: C_7  and  C_13
REMARK    3  A    between atoms: C_8  and  C_12
REMARK    4  A    between atoms: C_12  and  C_14
REMARK    5  A    between atoms: C_13  and  C_15
REMARK    6  A    between atoms: C_17  and  C_19
REMARK                            x       y       z     vdW  Elec       q    Type
REMARK                         _______ _______ _______ _____ _____    ______ ____
ROOT
ATOM      4  N   UNL     1      -6.722  -8.014   9.835  0.00  0.00    -0.316 NA
ATOM      7  C   UNL     1      -5.736 -10.777   9.516  0.00  0.00    +0.004 C 
ATOM      8  C   UNL     1      -5.994 -10.136  10.900  0.00  0.00    +0.012 C 
ATOM      9  C   UNL     1      -6.603 -10.065   8.463  0.00  0.00    +0.019 C 
ATOM     10  C   UNL     1      -5.853  -8.605  10.853  0.00  0.00    +0.085 C 
ATOM     11  C   UNL     1      -6.440  -8.547   8.504  0.00  0.00    +0.081 C 
ATOM     30  H   UNL     1      -6.594  -7.003   9.828  0.00  0.00    +0.122 HD
ENDROOT
BRANCH   8  12
ATOM     12  C   UNL     1      -5.116 -10.723  12.006  0.00  0.00    +0.064 C 
BRANCH  12  14
ATOM      3  O   UNL     1      -5.673  -9.815  15.445  0.00  0.00    -0.354 OA
ATOM      6  N   UNL     1      -4.850 -10.012  14.344  0.00  0.00    -0.083 NA
ATOM     14  C   UNL     1      -5.669 -10.412  13.366  0.00  0.00    +0.085 A 
ATOM     16  C   UNL     1      -7.007 -10.485  13.790  0.00  0.00    +0.076 A 
ATOM     17  C   UNL     1      -6.955 -10.100  15.103  0.00  0.00    +0.167 A 
BRANCH  17  19
ATOM      1  F   UNL     1     -10.719  -9.481  19.152  0.00  0.00    -0.205 F 
ATOM     19  C   UNL     1      -7.926  -9.941  16.146  0.00  0.00    +0.020 A 
ATOM     22  C   UNL     1      -8.982  -9.043  15.986  0.00  0.00    +0.014 A 
ATOM     23  C   UNL     1      -7.814 -10.683  17.322  0.00  0.00    +0.014 A 
ATOM     26  C   UNL     1      -9.926  -8.889  17.001  0.00  0.00    +0.039 A 
ATOM     27  C   UNL     1      -8.758 -10.528  18.338  0.00  0.00    +0.039 A 
ATOM     29  C   UNL     1      -9.814  -9.631  18.177  0.00  0.00    +0.123 A 
ENDBRANCH  17  19
ENDBRANCH  12  14
ENDBRANCH   8  12
BRANCH   7  13
ATOM     13  C   UNL     1      -4.262 -10.781   9.096  0.00  0.00    +0.100 C 
BRANCH  13  15
ATOM      2  O   UNL     1      -3.555  -8.526   9.560  0.00  0.00    -0.275 OA
ATOM      5  N   UNL     1      -2.624 -10.312  10.768  0.00  0.00    -0.285 N 
ATOM     15  C   UNL     1      -3.452  -9.720   9.819  0.00  0.00    +0.217 C 
ATOM     31  H   UNL     1      -2.661 -11.325  10.857  0.00  0.00    +0.155 HD
BRANCH   5  18
ATOM     18  C   UNL     1      -1.719  -9.668  11.645  0.00  0.00    +0.033 A 
ATOM     20  C   UNL     1      -0.790  -8.758  11.141  0.00  0.00    +0.023 A 
ATOM     21  C   UNL     1      -1.756  -9.942  13.012  0.00  0.00    +0.023 A 
ATOM     24  C   UNL     1       0.103  -8.123  12.005  0.00  0.00    +0.002 A 
ATOM     25  C   UNL     1      -0.863  -9.307  13.875  0.00  0.00    +0.002 A 
ATOM     28  C   UNL     1       0.066  -8.397  13.371  0.00  0.00    +0.000 A 
ENDBRANCH   5  18
ENDBRANCH  13  15
ENDBRANCH   7  13
TORSDOF 6
ENDMDL
MODEL 5
REMARK VINA RESULT:      -3.2      3.071      7.226
REMARK  Name = 26742909
REMARK  6 active torsions:
REMARK  status: ('A' for Active; 'I' for Inactive)
REMARK    1  A    between atoms: N_5  and  C_18
REMARK    2  A    between atoms: C_7  and  C_13
REMARK    3  A    between atoms: C_8  and  C_12
REMARK    4  A    between atoms: C_12  and  C_14
REMARK    5  A    between atoms: C_13  and  C_15
REMARK    6  A    between atoms: C_17  and  C_19
REMARK                            x       y       z     vdW  Elec       q    Type
REMARK                         _______ _______ _______ _____ _____    ______ ____
ROOT
ATOM      4  N   UNL     1      -0.921  -9.355  14.606  0.00  0.00    -0.316 NA
ATOM      7  C   UNL     1      -3.152 -10.436  13.006  0.00  0.00    +0.004 C 
ATOM      8  C   UNL     1      -1.800 -10.019  12.381  0.00  0.00    +0.012 C 
ATOM      9  C   UNL     1      -2.934 -10.781  14.489  0.00  0.00    +0.019 C 
ATOM     10  C   UNL     1      -1.098  -8.935  13.215  0.00  0.00    +0.085 C 
ATOM     11  C   UNL     1      -2.196  -9.676  15.243  0.00  0.00    +0.081 C 
ATOM     30  H   UNL     1      -0.462  -8.609  15.128  0.00  0.00    +0.122 HD
ENDROOT
BRANCH   8  12
ATOM     12  C   UNL     1      -1.925  -9.577  10.922  0.00  0.00    +0.064 C 
BRANCH  12  14
ATOM      3  O   UNL     1      -5.166 -10.468   9.631  0.00  0.00    -0.354 OA
ATOM      6  N   UNL     1      -3.850 -10.766   9.960  0.00  0.00    -0.083 NA
ATOM     14  C   UNL     1      -3.351  -9.629  10.455  0.00  0.00    +0.085 A 
ATOM     16  C   UNL     1      -4.299  -8.590  10.462  0.00  0.00    +0.076 A 
ATOM     17  C   UNL     1      -5.422  -9.170   9.935  0.00  0.00    +0.167 A 
BRANCH  17  19
ATOM      1  F   UNL     1     -10.579  -7.404   8.828  0.00  0.00    -0.205 F 
ATOM     19  C   UNL     1      -6.751  -8.715   9.648  0.00  0.00    +0.020 A 
ATOM     22  C   UNL     1      -6.945  -7.563   8.887  0.00  0.00    +0.014 A 
ATOM     23  C   UNL     1      -7.850  -9.425  10.133  0.00  0.00    +0.014 A 
ATOM     26  C   UNL     1      -8.238  -7.120   8.609  0.00  0.00    +0.039 A 
ATOM     27  C   UNL     1      -9.144  -8.982   9.855  0.00  0.00    +0.039 A 
ATOM     29  C   UNL     1      -9.338  -7.829   9.093  0.00  0.00    +0.123 A 
ENDBRANCH  17  19
ENDBRANCH  12  14
ENDBRANCH   8  12
BRANCH   7  13
ATOM     13  C   UNL     1      -4.261  -9.390  12.847  0.00  0.00    +0.100 C 
BRANCH  13  15
ATOM      2  O   UNL     1      -6.363 -10.560  12.731  0.00  0.00    -0.275 OA
ATOM      5  N   UNL     1      -5.770  -9.420  14.697  0.00  0.00    -0.285 N 
ATOM     15  C   UNL     1      -5.593  -9.872  13.392  0.00  0.00    +0.217 C 
ATOM     31  H   UNL     1      -5.027  -8.854  15.103  0.00  0.00    +0.155 HD
BRANCH   5  18
ATOM     18  C   UNL     1      -6.876  -9.654  15.548  0.00  0.00    +0.033 A 
ATOM     20  C   UNL     1      -8.163  -9.718  15.016  0.00  0.00    +0.023 A 
ATOM     21  C   UNL     1      -6.679  -9.821  16.920  0.00  0.00    +0.023 A 
ATOM     24  C   UNL     1      -9.254  -9.948  15.855  0.00  0.00    +0.002 A 
ATOM     25  C   UNL     1      -7.770 -10.050  17.758  0.00  0.00    +0.002 A 
ATOM     28  C   UNL     1      -9.058 -10.115  17.225  0.00  0.00    +0.000 A 
ENDBRANCH   5  18
ENDBRANCH  13  15
ENDBRANCH   7  13
TORSDOF 6
ENDMDL
