MODEL 1
REMARK VINA RESULT:      -2.5      0.000      0.000
REMARK  Name = 45783453
REMARK  8 active torsions:
REMARK  status: ('A' for Active; 'I' for Inactive)
REMARK    1  A    between atoms: O_3  and  C_22
REMARK    2  A    between atoms: O_3  and  C_25
REMARK    3  A    between atoms: O_4  and  C_26
REMARK    4  A    between atoms: O_4  and  C_27
REMARK    5  A    between atoms: N_5  and  C_9
REMARK    6  A    between atoms: C_10  and  C_18
REMARK    7  A    between atoms: C_19  and  C_20
REMARK    8  A    between atoms: C_25  and  C_26
REMARK                            x       y       z     vdW  Elec       q    Type
REMARK                         _______ _______ _______ _____ _____    ______ ____
ROOT
ATOM      2  O   UNL     1      -1.530   2.584  24.973  0.00  0.00    -0.336 OA
ATOM      6  N   UNL     1      -1.431   1.067  23.329  0.00  0.00    -0.189 NA
ATOM      7  N   UNL     1      -0.169   2.397  24.699  0.00  0.00    -0.054 NA
ATOM     18  C   UNL     1      -2.202   1.765  24.124  0.00  0.00    +0.245 A 
ATOM     19  C   UNL     1      -0.193   1.488  23.719  0.00  0.00    +0.221 A 
ENDROOT
BRANCH  19  20
ATOM      8  N   UNL     1       0.824  -0.024  22.220  0.00  0.00    -0.252 NA
ATOM     20  C   UNL     1       1.002   0.980  23.108  0.00  0.00    +0.115 A 
ATOM     21  C   UNL     1       2.237   1.515  23.436  0.00  0.00    +0.077 A 
ATOM     22  C   UNL     1       3.361   0.985  22.814  0.00  0.00    +0.124 A 
ATOM     23  C   UNL     1       1.940  -0.513  21.635  0.00  0.00    +0.115 A 
ATOM     24  C   UNL     1       3.219  -0.049  21.895  0.00  0.00    +0.065 A 
BRANCH  22   3
ATOM      3  O   UNL     1       4.597   1.477  23.103  0.00  0.00    -0.490 OA
BRANCH   3  25
ATOM     25  C   UNL     1       5.652   0.529  23.267  0.00  0.00    +0.257 C 
BRANCH  25  26
ATOM     26  C   UNL     1       5.424  -0.248  24.549  0.00  0.00    +0.200 C 
BRANCH  26   4
ATOM      4  O   UNL     1       5.483  -1.640  24.266  0.00  0.00    -0.380 OA
ATOM     27  C   UNL     1       4.194  -2.173  24.001  0.00  0.00    +0.194 C 
ENDBRANCH  26   4
ENDBRANCH  25  26
ENDBRANCH   3  25
ENDBRANCH  22   3
ENDBRANCH  19  20
BRANCH  18  10
ATOM      5  N   UNL     1      -4.211   1.126  25.447  0.00  0.00    -0.288 NA
ATOM     10  C   UNL     1      -3.713   1.784  24.222  0.00  0.00    +0.146 C 
ATOM     11  C   UNL     1      -5.472   1.783  25.787  0.00  0.00    +0.085 C 
ATOM     12  C   UNL     1      -4.287   3.212  24.287  0.00  0.00    +0.030 C 
ATOM     13  C   UNL     1      -5.140   3.241  25.547  0.00  0.00    +0.017 C 
BRANCH   5   9
ATOM      1  O   UNL     1      -3.346  -2.820  24.302  0.00  0.00    -0.380 OA
ATOM      9  C   UNL     1      -4.366  -0.320  25.300  0.00  0.00    +0.062 C 
ATOM     14  C   UNL     1      -3.217  -1.070  25.983  0.00  0.00    +0.047 C 
ATOM     15  C   UNL     1      -4.432  -0.701  23.819  0.00  0.00    +0.047 C 
ATOM     16  C   UNL     1      -3.323  -2.565  25.706  0.00  0.00    +0.161 C 
ATOM     17  C   UNL     1      -4.471  -2.217  23.662  0.00  0.00    +0.161 C 
ENDBRANCH   5   9
ENDBRANCH  18  10
TORSDOF 7
ENDMDL
MODEL 2
REMARK VINA RESULT:      -1.3      1.293      3.039
REMARK  Name = 45783453
REMARK  8 active torsions:
REMARK  status: ('A' for Active; 'I' for Inactive)
REMARK    1  A    between atoms: O_3  and  C_22
REMARK    2  A    between atoms: O_3  and  C_25
REMARK    3  A    between atoms: O_4  and  C_26
REMARK    4  A    between atoms: O_4  and  C_27
REMARK    5  A    between atoms: N_5  and  C_9
REMARK    6  A    between atoms: C_10  and  C_18
REMARK    7  A    between atoms: C_19  and  C_20
REMARK    8  A    between atoms: C_25  and  C_26
REMARK                            x       y       z     vdW  Elec       q    Type
REMARK                         _______ _______ _______ _____ _____    ______ ____
ROOT
ATOM      2  O   UNL     1      -1.155   1.245  25.506  0.00  0.00    -0.336 OA
ATOM      6  N   UNL     1      -0.837  -0.226  23.847  0.00  0.00    -0.189 NA
ATOM      7  N   UNL     1       0.116   1.516  24.984  0.00  0.00    -0.054 NA
ATOM     18  C   UNL     1      -1.647   0.207  24.781  0.00  0.00    +0.245 A 
ATOM     19  C   UNL     1       0.230   0.607  24.010  0.00  0.00    +0.221 A 
ENDROOT
BRANCH  19  20
ATOM      8  N   UNL     1       1.249  -0.213  22.046  0.00  0.00    -0.252 NA
ATOM     20  C   UNL     1       1.398   0.506  23.182  0.00  0.00    +0.115 A 
ATOM     21  C   UNL     1       2.579   1.123  23.561  0.00  0.00    +0.077 A 
ATOM     22  C   UNL     1       3.679   0.992  22.720  0.00  0.00    +0.124 A 
ATOM     23  C   UNL     1       2.340  -0.317  21.255  0.00  0.00    +0.115 A 
ATOM     24  C   UNL     1       3.566   0.260  21.543  0.00  0.00    +0.065 A 
BRANCH  22   3
ATOM      3  O   UNL     1       4.862   1.579  23.048  0.00  0.00    -0.490 OA
BRANCH   3  25
ATOM     25  C   UNL     1       5.650   0.938  24.051  0.00  0.00    +0.257 C 
BRANCH  25  26
ATOM     26  C   UNL     1       6.003  -0.461  23.582  0.00  0.00    +0.200 C 
BRANCH  26   4
ATOM      4  O   UNL     1       5.451  -1.408  24.489  0.00  0.00    -0.380 OA
ATOM     27  C   UNL     1       4.312  -2.052  23.938  0.00  0.00    +0.194 C 
ENDBRANCH  26   4
ENDBRANCH  25  26
ENDBRANCH   3  25
ENDBRANCH  22   3
ENDBRANCH  19  20
BRANCH  18  10
ATOM      5  N   UNL     1      -4.037   0.012  24.117  0.00  0.00    -0.288 NA
ATOM     10  C   UNL     1      -3.030  -0.283  25.156  0.00  0.00    +0.146 C 
ATOM     11  C   UNL     1      -5.051  -1.038  24.214  0.00  0.00    +0.085 C 
ATOM     12  C   UNL     1      -3.092  -1.811  25.338  0.00  0.00    +0.030 C 
ATOM     13  C   UNL     1      -4.201  -2.277  24.406  0.00  0.00    +0.017 C 
BRANCH   5   9
ATOM      1  O   UNL     1      -4.577   3.948  25.472  0.00  0.00    -0.380 OA
ATOM      9  C   UNL     1      -4.616   1.348  24.238  0.00  0.00    +0.062 C 
ATOM     14  C   UNL     1      -3.599   2.426  23.850  0.00  0.00    +0.047 C 
ATOM     15  C   UNL     1      -5.112   1.586  25.667  0.00  0.00    +0.047 C 
ATOM     16  C   UNL     1      -4.174   3.814  24.109  0.00  0.00    +0.161 C 
ATOM     17  C   UNL     1      -5.602   3.020  25.825  0.00  0.00    +0.161 C 
ENDBRANCH   5   9
ENDBRANCH  18  10
TORSDOF 7
ENDMDL
MODEL 3
REMARK VINA RESULT:      -0.5     16.092     19.119
REMARK  Name = 45783453
REMARK  8 active torsions:
REMARK  status: ('A' for Active; 'I' for Inactive)
REMARK    1  A    between atoms: O_3  and  C_22
REMARK    2  A    between atoms: O_3  and  C_25
REMARK    3  A    between atoms: O_4  and  C_26
REMARK    4  A    between atoms: O_4  and  C_27
REMARK    5  A    between atoms: N_5  and  C_9
REMARK    6  A    between atoms: C_10  and  C_18
REMARK    7  A    between atoms: C_19  and  C_20
REMARK    8  A    between atoms: C_25  and  C_26
REMARK                            x       y       z     vdW  Elec       q    Type
REMARK                         _______ _______ _______ _____ _____    ______ ____
ROOT
ATOM      2  O   UNL     1      15.051  -9.036  25.816  0.00  0.00    -0.336 OA
ATOM      6  N   UNL     1      15.990  -7.636  27.290  0.00  0.00    -0.189 NA
ATOM      7  N   UNL     1      15.388  -7.882  25.097  0.00  0.00    -0.054 NA
ATOM     18  C   UNL     1      15.438  -8.808  27.098  0.00  0.00    +0.245 A 
ATOM     19  C   UNL     1      15.937  -7.104  26.035  0.00  0.00    +0.221 A 
ENDROOT
BRANCH  19  20
ATOM      8  N   UNL     1      16.698  -5.017  26.830  0.00  0.00    -0.252 NA
ATOM     20  C   UNL     1      16.441  -5.791  25.751  0.00  0.00    +0.115 A 
ATOM     21  C   UNL     1      16.638  -5.386  24.441  0.00  0.00    +0.077 A 
ATOM     22  C   UNL     1      17.130  -4.104  24.224  0.00  0.00    +0.124 A 
ATOM     23  C   UNL     1      17.174  -3.778  26.579  0.00  0.00    +0.115 A 
ATOM     24  C   UNL     1      17.405  -3.277  25.308  0.00  0.00    +0.065 A 
BRANCH  22   3
ATOM      3  O   UNL     1      17.340  -3.659  22.955  0.00  0.00    -0.490 OA
BRANCH   3  25
ATOM     25  C   UNL     1      17.097  -2.276  22.702  0.00  0.00    +0.257 C 
BRANCH  25  26
ATOM     26  C   UNL     1      15.745  -1.898  23.276  0.00  0.00    +0.200 C 
BRANCH  26   4
ATOM      4  O   UNL     1      14.790  -2.883  22.903  0.00  0.00    -0.380 OA
ATOM     27  C   UNL     1      13.953  -2.424  21.851  0.00  0.00    +0.194 C 
ENDBRANCH  26   4
ENDBRANCH  25  26
ENDBRANCH   3  25
ENDBRANCH  22   3
ENDBRANCH  19  20
BRANCH  18  10
ATOM      5  N   UNL     1      14.881  -9.418  29.445  0.00  0.00    -0.288 NA
ATOM     10  C   UNL     1      15.180  -9.922  28.090  0.00  0.00    +0.146 C 
ATOM     11  C   UNL     1      14.007 -10.410  30.072  0.00  0.00    +0.085 C 
ATOM     12  C   UNL     1      13.958 -10.781  27.715  0.00  0.00    +0.030 C 
ATOM     13  C   UNL     1      13.058 -10.749  28.941  0.00  0.00    +0.017 C 
BRANCH   5   9
ATOM      1  O   UNL     1      17.252  -8.326  32.734  0.00  0.00    -0.380 OA
ATOM      9  C   UNL     1      16.080  -9.161  30.240  0.00  0.00    +0.062 C 
ATOM     14  C   UNL     1      16.133 -10.074  31.470  0.00  0.00    +0.047 C 
ATOM     15  C   UNL     1      16.126  -7.694  30.676  0.00  0.00    +0.047 C 
ATOM     16  C   UNL     1      17.316  -9.701  32.356  0.00  0.00    +0.161 C 
ATOM     17  C   UNL     1      17.310  -7.453  31.606  0.00  0.00    +0.161 C 
ENDBRANCH   5   9
ENDBRANCH  18  10
TORSDOF 7
ENDMDL
MODEL 4
REMARK VINA RESULT:      -0.3      1.602      3.450
REMARK  Name = 45783453
REMARK  8 active torsions:
REMARK  status: ('A' for Active; 'I' for Inactive)
REMARK    1  A    between atoms: O_3  and  C_22
REMARK    2  A    between atoms: O_3  and  C_25
REMARK    3  A    between atoms: O_4  and  C_26
REMARK    4  A    between atoms: O_4  and  C_27
REMARK    5  A    between atoms: N_5  and  C_9
REMARK    6  A    between atoms: C_10  and  C_18
REMARK    7  A    between atoms: C_19  and  C_20
REMARK    8  A    between atoms: C_25  and  C_26
REMARK                            x       y       z     vdW  Elec       q    Type
REMARK                         _______ _______ _______ _____ _____    ______ ____
ROOT
ATOM      2  O   UNL     1      -1.917  -0.565  25.613  0.00  0.00    -0.336 OA
ATOM      6  N   UNL     1      -1.501   0.941  24.009  0.00  0.00    -0.189 NA
ATOM      7  N   UNL     1      -0.697  -0.939  25.036  0.00  0.00    -0.054 NA
ATOM     18  C   UNL     1      -2.322   0.549  24.950  0.00  0.00    +0.245 A 
ATOM     19  C   UNL     1      -0.520  -0.002  24.098  0.00  0.00    +0.221 A 
ENDROOT
BRANCH  19  20
ATOM      8  N   UNL     1       0.511  -0.691  22.091  0.00  0.00    -0.252 NA
ATOM     20  C   UNL     1       0.626   0.020  23.235  0.00  0.00    +0.115 A 
ATOM     21  C   UNL     1       1.756   0.739  23.592  0.00  0.00    +0.077 A 
ATOM     22  C   UNL     1       2.837   0.726  22.718  0.00  0.00    +0.124 A 
ATOM     23  C   UNL     1       1.582  -0.680  21.267  0.00  0.00    +0.115 A 
ATOM     24  C   UNL     1       2.757   0.005  21.531  0.00  0.00    +0.065 A 
BRANCH  22   3
ATOM      3  O   UNL     1       3.970   1.416  23.023  0.00  0.00    -0.490 OA
BRANCH   3  25
ATOM     25  C   UNL     1       5.186   0.672  23.090  0.00  0.00    +0.257 C 
BRANCH  25  26
ATOM     26  C   UNL     1       5.408   0.214  24.519  0.00  0.00    +0.200 C 
BRANCH  26   4
ATOM      4  O   UNL     1       5.638  -1.189  24.527  0.00  0.00    -0.380 OA
ATOM     27  C   UNL     1       4.577  -1.894  23.899  0.00  0.00    +0.194 C 
ENDBRANCH  26   4
ENDBRANCH  25  26
ENDBRANCH   3  25
ENDBRANCH  22   3
ENDBRANCH  19  20
BRANCH  18  10
ATOM      5  N   UNL     1      -4.169   2.131  24.420  0.00  0.00    -0.288 NA
ATOM     10  C   UNL     1      -3.636   1.157  25.394  0.00  0.00    +0.146 C 
ATOM     11  C   UNL     1      -5.625   2.097  24.555  0.00  0.00    +0.085 C 
ATOM     12  C   UNL     1      -4.755   0.110  25.550  0.00  0.00    +0.030 C 
ATOM     13  C   UNL     1      -5.894   0.611  24.675  0.00  0.00    +0.017 C 
BRANCH   5   9
ATOM      1  O   UNL     1      -1.543   5.184  25.607  0.00  0.00    -0.380 OA
ATOM      9  C   UNL     1      -3.631   3.477  24.599  0.00  0.00    +0.062 C 
ATOM     14  C   UNL     1      -2.281   3.631  23.890  0.00  0.00    +0.047 C 
ATOM     15  C   UNL     1      -3.479   3.797  26.089  0.00  0.00    +0.047 C 
ATOM     16  C   UNL     1      -1.673   4.994  24.198  0.00  0.00    +0.161 C 
ATOM     17  C   UNL     1      -2.804   5.151  26.274  0.00  0.00    +0.161 C 
ENDBRANCH   5   9
ENDBRANCH  18  10
TORSDOF 7
ENDMDL
