MODEL 1
REMARK VINA RESULT:      11.9      0.000      0.000
REMARK  Name = 11913137
REMARK  6 active torsions:
REMARK  status: ('A' for Active; 'I' for Inactive)
REMARK    1  A    between atoms: O_6  and  C_31
REMARK    2  A    between atoms: O_6  and  C_35
REMARK    3  A    between atoms: N_9  and  C_15
REMARK    4  A    between atoms: C_11  and  C_16
REMARK    5  A    between atoms: C_19  and  C_23
REMARK    6  A    between atoms: C_22  and  C_24
REMARK                            x       y       z     vdW  Elec       q    Type
REMARK                         _______ _______ _______ _____ _____    ______ ____
ROOT
ATOM      3  O   UNL     1      -3.782   3.308  22.297  0.00  0.00    -0.270 OA
ATOM      5  O   UNL     1       1.559  -1.104  20.991  0.00  0.00    -0.270 OA
ATOM      7  N   UNL     1      -1.801   2.205  22.888  0.00  0.00    -0.283 N 
ATOM      8  N   UNL     1       0.559   0.641  22.177  0.00  0.00    -0.294 N 
ATOM     11  C   UNL     1      -0.753   1.928  23.880  0.00  0.00    +0.179 C 
ATOM     12  C   UNL     1       0.611   1.651  23.244  0.00  0.00    +0.140 C 
ATOM     13  C   UNL     1      -1.540   1.782  21.511  0.00  0.00    +0.128 C 
ATOM     14  C   UNL     1      -0.698   0.518  21.440  0.00  0.00    +0.127 C 
ATOM     19  C   UNL     1      -2.955   2.961  23.139  0.00  0.00    +0.247 C 
ATOM     22  C   UNL     1       1.607  -0.229  21.855  0.00  0.00    +0.247 C 
ENDROOT
BRANCH  22  24
ATOM      1  F   UNL     1       5.186  -2.162  24.499  0.00  0.00    -0.205 F 
ATOM     24  C   UNL     1       2.873  -0.099  22.592  0.00  0.00    +0.040 A 
ATOM     27  C   UNL     1       3.440  -1.214  23.208  0.00  0.00    +0.051 A 
ATOM     28  C   UNL     1       3.506   1.142  22.676  0.00  0.00    +0.013 A 
ATOM     32  C   UNL     1       4.641  -1.091  23.907  0.00  0.00    +0.124 A 
ATOM     33  C   UNL     1       4.707   1.265  23.374  0.00  0.00    +0.004 A 
ATOM     34  C   UNL     1       5.274   0.149  23.990  0.00  0.00    +0.038 A 
ENDBRANCH  22  24
BRANCH  19  23
ATOM     23  C   UNL     1      -3.215   3.387  24.519  0.00  0.00    +0.037 A 
ATOM     25  C   UNL     1      -4.381   2.979  25.167  0.00  0.00    +0.016 A 
ATOM     26  C   UNL     1      -2.296   4.200  25.183  0.00  0.00    +0.016 A 
ATOM     29  C   UNL     1      -4.628   3.383  26.478  0.00  0.00    +0.046 A 
ATOM     30  C   UNL     1      -2.543   4.603  26.495  0.00  0.00    +0.046 A 
ATOM     31  C   UNL     1      -3.708   4.195  27.143  0.00  0.00    +0.120 A 
BRANCH  31   6
ATOM      6  O   UNL     1      -3.948   4.588  28.424  0.00  0.00    -0.495 OA
ATOM     35  C   UNL     1      -3.309   3.846  29.461  0.00  0.00    +0.277 C 
ENDBRANCH  31   6
ENDBRANCH  19  23
BRANCH  11  16
ATOM      2  O   UNL     1      -0.687   0.501  25.795  0.00  0.00    -0.274 OA
ATOM      9  N   UNL     1      -2.161  -0.003  24.066  0.00  0.00    -0.302 N 
ATOM     16  C   UNL     1      -1.186   0.747  24.700  0.00  0.00    +0.236 C 
ATOM     36  H   UNL     1      -2.520   0.313  23.169  0.00  0.00    +0.150 HD
BRANCH   9  15
ATOM      4  O   UNL     1      -0.506  -2.136  24.499  0.00  0.00    -0.274 OA
ATOM     10  N   UNL     1      -2.250  -3.600  24.323  0.00  0.00    -0.314 N 
ATOM     15  C   UNL     1      -2.727  -1.200  24.631  0.00  0.00    +0.159 C 
ATOM     17  C   UNL     1      -4.103  -1.478  24.042  0.00  0.00    +0.033 C 
ATOM     18  C   UNL     1      -4.598  -2.833  24.523  0.00  0.00    +0.021 C 
ATOM     20  C   UNL     1      -3.641  -3.909  24.047  0.00  0.00    +0.104 C 
ATOM     21  C   UNL     1      -1.722  -2.330  24.442  0.00  0.00    +0.233 C 
ATOM     37  H   UNL     1      -1.589  -4.367  24.256  0.00  0.00    +0.149 HD
ENDBRANCH   9  15
ENDBRANCH  11  16
TORSDOF 5
ENDMDL
MODEL 2
REMARK VINA RESULT:      12.0      2.679      4.443
REMARK  Name = 11913137
REMARK  6 active torsions:
REMARK  status: ('A' for Active; 'I' for Inactive)
REMARK    1  A    between atoms: O_6  and  C_31
REMARK    2  A    between atoms: O_6  and  C_35
REMARK    3  A    between atoms: N_9  and  C_15
REMARK    4  A    between atoms: C_11  and  C_16
REMARK    5  A    between atoms: C_19  and  C_23
REMARK    6  A    between atoms: C_22  and  C_24
REMARK                            x       y       z     vdW  Elec       q    Type
REMARK                         _______ _______ _______ _____ _____    ______ ____
ROOT
ATOM      3  O   UNL     1      -4.470  -1.988  24.338  0.00  0.00    -0.270 OA
ATOM      5  O   UNL     1       2.519  -2.828  24.727  0.00  0.00    -0.270 OA
ATOM      7  N   UNL     1      -2.274  -1.171  24.379  0.00  0.00    -0.283 N 
ATOM      8  N   UNL     1       0.609  -1.591  24.201  0.00  0.00    -0.294 N 
ATOM     11  C   UNL     1      -1.346  -0.032  24.360  0.00  0.00    +0.179 C 
ATOM     12  C   UNL     1      -0.011  -0.362  23.686  0.00  0.00    +0.140 C 
ATOM     13  C   UNL     1      -1.698  -2.500  24.169  0.00  0.00    +0.128 C 
ATOM     14  C   UNL     1      -0.288  -2.619  24.726  0.00  0.00    +0.127 C 
ATOM     19  C   UNL     1      -3.670  -1.059  24.443  0.00  0.00    +0.247 C 
ATOM     22  C   UNL     1       1.989  -1.820  24.262  0.00  0.00    +0.247 C 
ENDROOT
BRANCH  22  24
ATOM      1  F   UNL     1       6.453  -0.109  23.440  0.00  0.00    -0.205 F 
ATOM     24  C   UNL     1       2.890  -0.788  23.726  0.00  0.00    +0.040 A 
ATOM     27  C   UNL     1       4.272  -0.941  23.839  0.00  0.00    +0.051 A 
ATOM     28  C   UNL     1       2.362   0.344  23.104  0.00  0.00    +0.013 A 
ATOM     32  C   UNL     1       5.127   0.038  23.331  0.00  0.00    +0.124 A 
ATOM     33  C   UNL     1       3.217   1.322  22.595  0.00  0.00    +0.004 A 
ATOM     34  C   UNL     1       4.599   1.169  22.709  0.00  0.00    +0.038 A 
ENDBRANCH  22  24
BRANCH  19  23
ATOM     23  C   UNL     1      -4.247   0.275  24.652  0.00  0.00    +0.037 A 
ATOM     25  C   UNL     1      -5.218   0.468  25.634  0.00  0.00    +0.016 A 
ATOM     26  C   UNL     1      -3.824   1.348  23.868  0.00  0.00    +0.016 A 
ATOM     29  C   UNL     1      -5.765   1.735  25.834  0.00  0.00    +0.046 A 
ATOM     30  C   UNL     1      -4.371   2.615  24.068  0.00  0.00    +0.046 A 
ATOM     31  C   UNL     1      -5.342   2.809  25.050  0.00  0.00    +0.120 A 
BRANCH  31   6
ATOM      6  O   UNL     1      -5.875   4.046  25.246  0.00  0.00    -0.495 OA
ATOM     35  C   UNL     1      -4.994   5.067  25.711  0.00  0.00    +0.277 C 
ENDBRANCH  31   6
ENDBRANCH  19  23
BRANCH  11  16
ATOM      2  O   UNL     1      -1.557  -0.228  26.731  0.00  0.00    -0.274 OA
ATOM      9  N   UNL     1      -0.374   1.573  25.852  0.00  0.00    -0.302 N 
ATOM     16  C   UNL     1      -1.110   0.404  25.777  0.00  0.00    +0.236 C 
ATOM     36  H   UNL     1      -0.031   1.995  24.992  0.00  0.00    +0.150 HD
BRANCH   9  15
ATOM      4  O   UNL     1       0.970   3.951  25.756  0.00  0.00    -0.274 OA
ATOM     10  N   UNL     1       1.887   3.584  27.815  0.00  0.00    -0.314 N 
ATOM     15  C   UNL     1      -0.032   2.212  27.095  0.00  0.00    +0.159 C 
ATOM     17  C   UNL     1       0.416   1.185  28.126  0.00  0.00    +0.033 C 
ATOM     18  C   UNL     1       0.935   1.899  29.364  0.00  0.00    +0.021 C 
ATOM     20  C   UNL     1       2.129   2.753  28.980  0.00  0.00    +0.104 C 
ATOM     21  C   UNL     1       0.998   3.297  26.799  0.00  0.00    +0.233 C 
ATOM     37  H   UNL     1       2.539   4.345  27.652  0.00  0.00    +0.149 HD
ENDBRANCH   9  15
ENDBRANCH  11  16
TORSDOF 5
ENDMDL
