MODEL 1
REMARK VINA RESULT:      -1.0      0.000      0.000
REMARK  Name = 44716320
REMARK  7 active torsions:
REMARK  status: ('A' for Active; 'I' for Inactive)
REMARK    1  A    between atoms: N_2  and  C_18
REMARK    2  A    between atoms: N_3  and  C_13
REMARK    3  A    between atoms: N_3  and  C_17
REMARK    4  A    between atoms: C_7  and  C_14
REMARK    5  A    between atoms: C_8  and  C_13
REMARK    6  A    between atoms: C_16  and  C_19
REMARK    7  A    between atoms: C_17  and  C_20
REMARK                            x       y       z     vdW  Elec       q    Type
REMARK                         _______ _______ _______ _____ _____    ______ ____
ROOT
ATOM      1  N   UNL     1      -4.292   3.655  24.280  0.00  0.00    -0.298 NA
ATOM      6  C   UNL     1      -2.199   3.404  25.809  0.00  0.00    +0.002 C 
ATOM      7  C   UNL     1      -1.782   3.402  24.312  0.00  0.00    +0.055 C 
ATOM      8  C   UNL     1      -4.519   2.578  25.278  0.00  0.00    +0.071 C 
ATOM      9  C   UNL     1      -3.220   2.273  26.056  0.00  0.00    +0.024 C 
ATOM     10  C   UNL     1      -2.931   4.739  26.065  0.00  0.00    +0.019 C 
ATOM     11  C   UNL     1      -3.087   3.351  23.468  0.00  0.00    +0.094 C 
ATOM     12  C   UNL     1      -4.044   4.916  25.019  0.00  0.00    +0.085 C 
ENDROOT
BRANCH   7  14
ATOM      2  N   UNL     1      -1.067   1.328  23.036  0.00  0.00    -0.270 N 
ATOM      4  N   UNL     1      -0.021   0.534  22.750  0.00  0.00    -0.171 NA
ATOM     14  C   UNL     1      -0.757   2.375  23.854  0.00  0.00    +0.044 A 
ATOM     15  C   UNL     1       0.585   2.257  24.122  0.00  0.00    +0.053 A 
ATOM     16  C   UNL     1       0.986   1.107  23.416  0.00  0.00    +0.093 A 
ATOM     18  C   UNL     1      -2.363   1.015  22.481  0.00  0.00    +0.172 C 
BRANCH  16  19
ATOM     19  C   UNL     1       2.309   0.545  23.366  0.00  0.00    +0.002 A 
ATOM     21  C   UNL     1       2.506  -0.805  23.665  0.00  0.00    +0.010 A 
ATOM     22  C   UNL     1       3.397   1.346  23.018  0.00  0.00    +0.010 A 
ATOM     24  C   UNL     1       3.788  -1.350  23.616  0.00  0.00    +0.001 A 
ATOM     25  C   UNL     1       4.679   0.800  22.969  0.00  0.00    +0.001 A 
ATOM     26  C   UNL     1       4.875  -0.548  23.269  0.00  0.00    +0.000 A 
ENDBRANCH  16  19
ENDBRANCH   7  14
BRANCH   8  13
ATOM     13  C   UNL     1      -5.116   1.316  24.649  0.00  0.00    +0.100 C 
BRANCH  13   3
ATOM      3  N   UNL     1      -4.818   0.146  25.459  0.00  0.00    -0.309 NA
ATOM     30  H   UNL     1      -5.661  -0.131  25.960  0.00  0.00    +0.122 HD
BRANCH   3  17
ATOM     17  C   UNL     1      -4.374  -0.966  24.627  0.00  0.00    +0.136 C 
BRANCH  17  20
ATOM      5  N   UNL     1      -2.263  -0.529  25.750  0.00  0.00    -0.259 NA
ATOM     20  C   UNL     1      -2.936  -1.318  24.881  0.00  0.00    +0.055 A 
ATOM     23  C   UNL     1      -2.379  -2.408  24.231  0.00  0.00    +0.024 A 
ATOM     27  C   UNL     1      -1.046  -2.707  24.489  0.00  0.00    +0.003 A 
ATOM     28  C   UNL     1      -0.970  -0.852  25.975  0.00  0.00    +0.111 A 
ATOM     29  C   UNL     1      -0.321  -1.920  25.375  0.00  0.00    +0.020 A 
ENDBRANCH  17  20
ENDBRANCH   3  17
ENDBRANCH  13   3
ENDBRANCH   8  13
TORSDOF 6
ENDMDL
MODEL 2
REMARK VINA RESULT:      -0.8      1.392      4.111
REMARK  Name = 44716320
REMARK  7 active torsions:
REMARK  status: ('A' for Active; 'I' for Inactive)
REMARK    1  A    between atoms: N_2  and  C_18
REMARK    2  A    between atoms: N_3  and  C_13
REMARK    3  A    between atoms: N_3  and  C_17
REMARK    4  A    between atoms: C_7  and  C_14
REMARK    5  A    between atoms: C_8  and  C_13
REMARK    6  A    between atoms: C_16  and  C_19
REMARK    7  A    between atoms: C_17  and  C_20
REMARK                            x       y       z     vdW  Elec       q    Type
REMARK                         _______ _______ _______ _____ _____    ______ ____
ROOT
ATOM      1  N   UNL     1      -3.922  -0.308  25.636  0.00  0.00    -0.298 NA
ATOM      6  C   UNL     1      -2.861  -1.592  23.635  0.00  0.00    +0.002 C 
ATOM      7  C   UNL     1      -1.771  -1.208  24.673  0.00  0.00    +0.055 C 
ATOM      8  C   UNL     1      -4.368   0.295  24.353  0.00  0.00    +0.071 C 
ATOM      9  C   UNL     1      -3.592  -0.317  23.165  0.00  0.00    +0.024 C 
ATOM     10  C   UNL     1      -3.897  -2.461  24.379  0.00  0.00    +0.019 C 
ATOM     11  C   UNL     1      -2.441  -0.278  25.725  0.00  0.00    +0.094 C 
ATOM     12  C   UNL     1      -4.357  -1.725  25.649  0.00  0.00    +0.085 C 
ENDROOT
BRANCH   7  14
ATOM      2  N   UNL     1      -0.375   0.508  23.427  0.00  0.00    -0.270 N 
ATOM      4  N   UNL     1       0.877   0.836  23.065  0.00  0.00    -0.171 NA
ATOM     14  C   UNL     1      -0.455  -0.642  24.157  0.00  0.00    +0.044 A 
ATOM     15  C   UNL     1       0.834  -1.098  24.280  0.00  0.00    +0.053 A 
ATOM     16  C   UNL     1       1.612  -0.150  23.590  0.00  0.00    +0.093 A 
ATOM     18  C   UNL     1      -1.471   1.360  23.028  0.00  0.00    +0.172 C 
BRANCH  16  19
ATOM     19  C   UNL     1       3.041  -0.166  23.420  0.00  0.00    +0.002 A 
ATOM     21  C   UNL     1       3.683   0.910  22.806  0.00  0.00    +0.010 A 
ATOM     22  C   UNL     1       3.785  -1.257  23.871  0.00  0.00    +0.010 A 
ATOM     24  C   UNL     1       5.067   0.895  22.642  0.00  0.00    +0.001 A 
ATOM     25  C   UNL     1       5.170  -1.271  23.708  0.00  0.00    +0.001 A 
ATOM     26  C   UNL     1       5.811  -0.196  23.093  0.00  0.00    +0.000 A 
ENDBRANCH  16  19
ENDBRANCH   7  14
BRANCH   8  13
ATOM     13  C   UNL     1      -4.281   1.823  24.365  0.00  0.00    +0.100 C 
BRANCH  13   3
ATOM      3  N   UNL     1      -4.777   2.358  25.623  0.00  0.00    -0.309 NA
ATOM     30  H   UNL     1      -4.463   1.756  26.384  0.00  0.00    +0.122 HD
BRANCH   3  17
ATOM     17  C   UNL     1      -4.280   3.709  25.850  0.00  0.00    +0.136 C 
BRANCH  17  20
ATOM      5  N   UNL     1      -2.049   2.829  26.242  0.00  0.00    -0.259 NA
ATOM     20  C   UNL     1      -2.793   3.798  25.662  0.00  0.00    +0.055 A 
ATOM     23  C   UNL     1      -2.264   4.842  24.919  0.00  0.00    +0.024 A 
ATOM     27  C   UNL     1      -0.884   4.895  24.763  0.00  0.00    +0.003 A 
ATOM     28  C   UNL     1      -0.711   2.914  26.068  0.00  0.00    +0.111 A 
ATOM     29  C   UNL     1      -0.085   3.917  25.345  0.00  0.00    +0.020 A 
ENDBRANCH  17  20
ENDBRANCH   3  17
ENDBRANCH  13   3
ENDBRANCH   8  13
TORSDOF 6
ENDMDL
MODEL 3
REMARK VINA RESULT:       0.1      1.387      2.092
REMARK  Name = 44716320
REMARK  7 active torsions:
REMARK  status: ('A' for Active; 'I' for Inactive)
REMARK    1  A    between atoms: N_2  and  C_18
REMARK    2  A    between atoms: N_3  and  C_13
REMARK    3  A    between atoms: N_3  and  C_17
REMARK    4  A    between atoms: C_7  and  C_14
REMARK    5  A    between atoms: C_8  and  C_13
REMARK    6  A    between atoms: C_16  and  C_19
REMARK    7  A    between atoms: C_17  and  C_20
REMARK                            x       y       z     vdW  Elec       q    Type
REMARK                         _______ _______ _______ _____ _____    ______ ____
ROOT
ATOM      1  N   UNL     1      -5.048   3.779  24.454  0.00  0.00    -0.298 NA
ATOM      6  C   UNL     1      -3.315   3.861  26.396  0.00  0.00    +0.002 C 
ATOM      7  C   UNL     1      -2.595   3.943  25.021  0.00  0.00    +0.055 C 
ATOM      8  C   UNL     1      -5.302   2.669  25.409  0.00  0.00    +0.071 C 
ATOM      9  C   UNL     1      -4.166   2.575  26.451  0.00  0.00    +0.024 C 
ATOM     10  C   UNL     1      -4.291   5.055  26.458  0.00  0.00    +0.019 C 
ATOM     11  C   UNL     1      -3.665   3.686  23.923  0.00  0.00    +0.094 C 
ATOM     12  C   UNL     1      -5.171   5.056  25.196  0.00  0.00    +0.085 C 
ENDROOT
BRANCH   7  14
ATOM      2  N   UNL     1      -0.494   2.770  25.832  0.00  0.00    -0.270 N 
ATOM      4  N   UNL     1       0.554   2.025  25.443  0.00  0.00    -0.171 NA
ATOM     14  C   UNL     1      -1.342   3.103  24.816  0.00  0.00    +0.044 A 
ATOM     15  C   UNL     1      -0.810   2.536  23.683  0.00  0.00    +0.053 A 
ATOM     16  C   UNL     1       0.356   1.885  24.129  0.00  0.00    +0.093 A 
ATOM     18  C   UNL     1      -0.622   3.137  27.223  0.00  0.00    +0.172 C 
BRANCH  16  19
ATOM     19  C   UNL     1       1.283   1.134  23.325  0.00  0.00    +0.002 A 
ATOM     21  C   UNL     1       2.645   1.433  23.369  0.00  0.00    +0.010 A 
ATOM     22  C   UNL     1       0.822   0.104  22.504  0.00  0.00    +0.010 A 
ATOM     24  C   UNL     1       3.545   0.705  22.591  0.00  0.00    +0.001 A 
ATOM     25  C   UNL     1       1.721  -0.624  21.726  0.00  0.00    +0.001 A 
ATOM     26  C   UNL     1       3.082  -0.324  21.769  0.00  0.00    +0.000 A 
ENDBRANCH  16  19
ENDBRANCH   7  14
BRANCH   8  13
ATOM     13  C   UNL     1      -5.538   1.333  24.701  0.00  0.00    +0.100 C 
BRANCH  13   3
ATOM      3  N   UNL     1      -4.800   0.265  25.356  0.00  0.00    -0.309 NA
ATOM     30  H   UNL     1      -5.427  -0.226  25.994  0.00  0.00    +0.122 HD
BRANCH   3  17
ATOM     17  C   UNL     1      -4.278  -0.685  24.381  0.00  0.00    +0.136 C 
BRANCH  17  20
ATOM      5  N   UNL     1      -2.459  -2.276  24.135  0.00  0.00    -0.259 NA
ATOM     20  C   UNL     1      -2.891  -1.141  24.729  0.00  0.00    +0.055 A 
ATOM     23  C   UNL     1      -2.134  -0.396  25.621  0.00  0.00    +0.024 A 
ATOM     27  C   UNL     1      -0.854  -0.845  25.920  0.00  0.00    +0.003 A 
ATOM     28  C   UNL     1      -1.208  -2.681  24.451  0.00  0.00    +0.111 A 
ATOM     29  C   UNL     1      -0.374  -2.008  25.329  0.00  0.00    +0.020 A 
ENDBRANCH  17  20
ENDBRANCH   3  17
ENDBRANCH  13   3
ENDBRANCH   8  13
TORSDOF 6
ENDMDL
MODEL 4
REMARK VINA RESULT:       0.1      1.668      6.205
REMARK  Name = 44716320
REMARK  7 active torsions:
REMARK  status: ('A' for Active; 'I' for Inactive)
REMARK    1  A    between atoms: N_2  and  C_18
REMARK    2  A    between atoms: N_3  and  C_13
REMARK    3  A    between atoms: N_3  and  C_17
REMARK    4  A    between atoms: C_7  and  C_14
REMARK    5  A    between atoms: C_8  and  C_13
REMARK    6  A    between atoms: C_16  and  C_19
REMARK    7  A    between atoms: C_17  and  C_20
REMARK                            x       y       z     vdW  Elec       q    Type
REMARK                         _______ _______ _______ _____ _____    ______ ____
ROOT
ATOM      1  N   UNL     1      -2.784  -2.625  23.706  0.00  0.00    -0.298 NA
ATOM      6  C   UNL     1      -2.880  -1.528  26.066  0.00  0.00    +0.002 C 
ATOM      7  C   UNL     1      -3.723  -0.708  25.050  0.00  0.00    +0.055 C 
ATOM      8  C   UNL     1      -1.410  -2.472  24.252  0.00  0.00    +0.071 C 
ATOM      9  C   UNL     1      -1.430  -1.640  25.553  0.00  0.00    +0.024 C 
ATOM     10  C   UNL     1      -3.468  -2.955  26.081  0.00  0.00    +0.019 C 
ATOM     11  C   UNL     1      -3.454  -1.302  23.639  0.00  0.00    +0.094 C 
ATOM     12  C   UNL     1      -3.551  -3.484  24.638  0.00  0.00    +0.085 C 
ENDROOT
BRANCH   7  14
ATOM      2  N   UNL     1      -4.664   1.642  25.250  0.00  0.00    -0.270 N 
ATOM      4  N   UNL     1      -4.342   2.946  25.236  0.00  0.00    -0.171 NA
ATOM     14  C   UNL     1      -3.597   0.809  25.072  0.00  0.00    +0.044 A 
ATOM     15  C   UNL     1      -2.502   1.627  24.932  0.00  0.00    +0.053 A 
ATOM     16  C   UNL     1      -3.020   2.931  25.042  0.00  0.00    +0.093 A 
ATOM     18  C   UNL     1      -6.042   1.257  25.439  0.00  0.00    +0.172 C 
BRANCH  16  19
ATOM     19  C   UNL     1      -2.277   4.161  24.964  0.00  0.00    +0.002 A 
ATOM     21  C   UNL     1      -2.927   5.381  25.159  0.00  0.00    +0.010 A 
ATOM     22  C   UNL     1      -0.908   4.136  24.695  0.00  0.00    +0.010 A 
ATOM     24  C   UNL     1      -2.208   6.574  25.084  0.00  0.00    +0.001 A 
ATOM     25  C   UNL     1      -0.190   5.328  24.621  0.00  0.00    +0.001 A 
ATOM     26  C   UNL     1      -0.839   6.547  24.814  0.00  0.00    +0.000 A 
ENDBRANCH  16  19
ENDBRANCH   7  14
BRANCH   8  13
ATOM     13  C   UNL     1      -0.434  -1.897  23.222  0.00  0.00    +0.100 C 
BRANCH  13   3
ATOM      3  N   UNL     1       0.393  -0.860  23.818  0.00  0.00    -0.309 NA
ATOM     30  H   UNL     1       1.048  -1.294  24.468  0.00  0.00    +0.122 HD
BRANCH   3  17
ATOM     17  C   UNL     1       1.143  -0.139  22.798  0.00  0.00    +0.136 C 
BRANCH  17  20
ATOM      5  N   UNL     1       3.122  -1.305  23.592  0.00  0.00    -0.259 NA
ATOM     20  C   UNL     1       2.621  -0.165  23.065  0.00  0.00    +0.055 A 
ATOM     23  C   UNL     1       3.385   0.952  22.764  0.00  0.00    +0.024 A 
ATOM     27  C   UNL     1       4.750   0.895  23.022  0.00  0.00    +0.003 A 
ATOM     28  C   UNL     1       4.453  -1.323  23.829  0.00  0.00    +0.111 A 
ATOM     29  C   UNL     1       5.302  -0.260  23.564  0.00  0.00    +0.020 A 
ENDBRANCH  17  20
ENDBRANCH   3  17
ENDBRANCH  13   3
ENDBRANCH   8  13
TORSDOF 6
ENDMDL
MODEL 5
REMARK VINA RESULT:       2.6      2.644      5.153
REMARK  Name = 44716320
REMARK  7 active torsions:
REMARK  status: ('A' for Active; 'I' for Inactive)
REMARK    1  A    between atoms: N_2  and  C_18
REMARK    2  A    between atoms: N_3  and  C_13
REMARK    3  A    between atoms: N_3  and  C_17
REMARK    4  A    between atoms: C_7  and  C_14
REMARK    5  A    between atoms: C_8  and  C_13
REMARK    6  A    between atoms: C_16  and  C_19
REMARK    7  A    between atoms: C_17  and  C_20
REMARK                            x       y       z     vdW  Elec       q    Type
REMARK                         _______ _______ _______ _____ _____    ______ ____
ROOT
ATOM      1  N   UNL     1      -4.529  -0.996  25.125  0.00  0.00    -0.298 NA
ATOM      6  C   UNL     1      -2.780   0.018  23.484  0.00  0.00    +0.002 C 
ATOM      7  C   UNL     1      -2.093  -0.424  24.806  0.00  0.00    +0.055 C 
ATOM      8  C   UNL     1      -5.012   0.313  24.613  0.00  0.00    +0.071 C 
ATOM      9  C   UNL     1      -3.905   1.025  23.805  0.00  0.00    +0.024 C 
ATOM     10  C   UNL     1      -3.451  -1.238  22.890  0.00  0.00    +0.019 C 
ATOM     11  C   UNL     1      -3.219  -0.825  25.801  0.00  0.00    +0.094 C 
ATOM     12  C   UNL     1      -4.336  -1.896  23.963  0.00  0.00    +0.085 C 
ENDROOT
BRANCH   7  14
ATOM      2  N   UNL     1      -0.271   1.340  24.702  0.00  0.00    -0.270 N 
ATOM      4  N   UNL     1       0.561   2.090  25.445  0.00  0.00    -0.171 NA
ATOM     14  C   UNL     1      -1.074   0.517  25.435  0.00  0.00    +0.044 A 
ATOM     15  C   UNL     1      -0.745   0.743  26.749  0.00  0.00    +0.053 A 
ATOM     16  C   UNL     1       0.266   1.721  26.696  0.00  0.00    +0.093 A 
ATOM     18  C   UNL     1      -0.239   1.466  23.264  0.00  0.00    +0.172 C 
BRANCH  16  19
ATOM     19  C   UNL     1       0.957   2.308  27.814  0.00  0.00    +0.002 A 
ATOM     21  C   UNL     1       0.441   2.168  29.103  0.00  0.00    +0.010 A 
ATOM     22  C   UNL     1       2.142   3.014  27.610  0.00  0.00    +0.010 A 
ATOM     24  C   UNL     1       1.110   2.736  30.187  0.00  0.00    +0.001 A 
ATOM     25  C   UNL     1       2.811   3.582  28.694  0.00  0.00    +0.001 A 
ATOM     26  C   UNL     1       2.295   3.443  29.982  0.00  0.00    +0.000 A 
ENDBRANCH  16  19
ENDBRANCH   7  14
BRANCH   8  13
ATOM     13  C   UNL     1      -5.568   1.206  25.726  0.00  0.00    +0.100 C 
BRANCH  13   3
ATOM      3  N   UNL     1      -6.256   2.359  25.167  0.00  0.00    -0.309 NA
ATOM     30  H   UNL     1      -7.259   2.245  25.311  0.00  0.00    +0.122 HD
BRANCH   3  17
ATOM     17  C   UNL     1      -5.821   3.591  25.813  0.00  0.00    +0.136 C 
BRANCH  17  20
ATOM      5  N   UNL     1      -4.068   4.150  24.225  0.00  0.00    -0.259 NA
ATOM     20  C   UNL     1      -4.381   3.901  25.517  0.00  0.00    +0.055 A 
ATOM     23  C   UNL     1      -3.464   3.921  26.556  0.00  0.00    +0.024 A 
ATOM     27  C   UNL     1      -2.140   4.214  26.249  0.00  0.00    +0.003 A 
ATOM     28  C   UNL     1      -2.771   4.431  23.966  0.00  0.00    +0.111 A 
ATOM     29  C   UNL     1      -1.779   4.474  24.932  0.00  0.00    +0.020 A 
ENDBRANCH  17  20
ENDBRANCH   3  17
ENDBRANCH  13   3
ENDBRANCH   8  13
TORSDOF 6
ENDMDL
