MODEL 1
REMARK VINA RESULT:      -2.9      0.000      0.000
REMARK  Name = 28959868
REMARK  9 active torsions:
REMARK  status: ('A' for Active; 'I' for Inactive)
REMARK    1  A    between atoms: O_2  and  C_21
REMARK    2  A    between atoms: N_6  and  C_15
REMARK    3  A    between atoms: C_8  and  C_12
REMARK    4  A    between atoms: C_9  and  C_14
REMARK    5  A    between atoms: C_12  and  C_15
REMARK    6  A    between atoms: C_14  and  C_21
REMARK    7  A    between atoms: C_18  and  C_22
REMARK    8  A    between atoms: C_22  and  C_24
REMARK    9  A    between atoms: C_23  and  C_25
REMARK                            x       y       z     vdW  Elec       q    Type
REMARK                         _______ _______ _______ _____ _____    ______ ____
ROOT
ATOM      1  O   UNL     1      -6.049   1.797  26.106  0.00  0.00    -0.275 OA
ATOM      5  N   UNL     1      -4.319   2.689  24.838  0.00  0.00    -0.301 N 
ATOM      8  C   UNL     1      -1.955   2.705  24.075  0.00  0.00    +0.011 C 
ATOM      9  C   UNL     1      -1.697   3.908  25.016  0.00  0.00    +0.006 C 
ATOM     10  C   UNL     1      -3.438   2.670  23.663  0.00  0.00    +0.111 C 
ATOM     11  C   UNL     1      -2.675   3.917  26.204  0.00  0.00    +0.023 C 
ATOM     13  C   UNL     1      -4.124   3.831  25.731  0.00  0.00    +0.108 C 
ATOM     18  C   UNL     1      -5.304   1.744  25.124  0.00  0.00    +0.220 C 
ENDROOT
BRANCH   8  12
ATOM     12  C   UNL     1      -1.533   1.352  24.663  0.00  0.00    +0.020 C 
BRANCH  12  15
ATOM     15  C   UNL     1      -1.267   0.339  23.559  0.00  0.00    +0.085 C 
BRANCH  15   6
ATOM      4  O   UNL     1       4.750  -1.112  22.780  0.00  0.00    -0.276 OA
ATOM      6  N   UNL     1       0.068   0.552  23.002  0.00  0.00    -0.299 NA
ATOM      7  N   UNL     1       2.922   0.314  22.918  0.00  0.00    -0.299 N 
ATOM     16  C   UNL     1       0.906   1.309  23.943  0.00  0.00    +0.103 C 
ATOM     17  C   UNL     1       0.700  -0.734  22.671  0.00  0.00    +0.103 C 
ATOM     19  C   UNL     1       2.296   1.564  23.357  0.00  0.00    +0.123 C 
ATOM     20  C   UNL     1       2.082  -0.515  22.056  0.00  0.00    +0.123 C 
ATOM     23  C   UNL     1       4.246  -0.052  23.159  0.00  0.00    +0.213 C 
ATOM     25  C   UNL     1       5.085   0.928  23.940  0.00  0.00    +0.109 C 
ENDBRANCH  15   6
ENDBRANCH  12  15
ENDBRANCH   8  12
BRANCH   9  14
ATOM     14  C   UNL     1      -0.253   3.990  25.506  0.00  0.00    +0.124 C 
BRANCH  14  21
ATOM      3  O   UNL     1      -0.803   2.653  27.469  0.00  0.00    -0.251 OA
ATOM     21  C   UNL     1       0.006   3.030  26.634  0.00  0.00    +0.305 C 
BRANCH  21   2
ATOM      2  O   UNL     1       1.302   2.625  26.602  0.00  0.00    -0.481 OA
ATOM     31  H   UNL     1       1.515   2.144  25.773  0.00  0.00    +0.295 HD
ENDBRANCH  21   2
ENDBRANCH  14  21
ENDBRANCH   9  14
BRANCH  18  22
ATOM     22  C   UNL     1      -5.440   0.595  24.157  0.00  0.00    +0.131 C 
BRANCH  22  24
ATOM     24  C   UNL     1      -4.571  -0.551  24.573  0.00  0.00    -0.039 A 
ATOM     26  C   UNL     1      -4.408  -1.647  23.725  0.00  0.00    +0.004 A 
ATOM     27  C   UNL     1      -3.927  -0.523  25.810  0.00  0.00    +0.004 A 
ATOM     28  C   UNL     1      -3.599  -2.714  24.113  0.00  0.00    +0.000 A 
ATOM     29  C   UNL     1      -3.118  -1.592  26.198  0.00  0.00    +0.000 A 
ATOM     30  C   UNL     1      -2.954  -2.687  25.349  0.00  0.00    +0.000 A 
ENDBRANCH  22  24
ENDBRANCH  18  22
TORSDOF 8
ENDMDL
MODEL 2
REMARK VINA RESULT:      -2.4      1.263      1.376
REMARK  Name = 28959868
REMARK  9 active torsions:
REMARK  status: ('A' for Active; 'I' for Inactive)
REMARK    1  A    between atoms: O_2  and  C_21
REMARK    2  A    between atoms: N_6  and  C_15
REMARK    3  A    between atoms: C_8  and  C_12
REMARK    4  A    between atoms: C_9  and  C_14
REMARK    5  A    between atoms: C_12  and  C_15
REMARK    6  A    between atoms: C_14  and  C_21
REMARK    7  A    between atoms: C_18  and  C_22
REMARK    8  A    between atoms: C_22  and  C_24
REMARK    9  A    between atoms: C_23  and  C_25
REMARK                            x       y       z     vdW  Elec       q    Type
REMARK                         _______ _______ _______ _____ _____    ______ ____
ROOT
ATOM      1  O   UNL     1      -6.373   1.421  26.224  0.00  0.00    -0.275 OA
ATOM      5  N   UNL     1      -4.822   2.545  24.909  0.00  0.00    -0.301 N 
ATOM      8  C   UNL     1      -2.502   2.908  24.097  0.00  0.00    +0.011 C 
ATOM      9  C   UNL     1      -2.413   4.151  25.017  0.00  0.00    +0.006 C 
ATOM     10  C   UNL     1      -3.970   2.641  23.717  0.00  0.00    +0.111 C 
ATOM     11  C   UNL     1      -3.360   4.031  26.224  0.00  0.00    +0.023 C 
ATOM     13  C   UNL     1      -4.786   3.718  25.782  0.00  0.00    +0.108 C 
ATOM     18  C   UNL     1      -5.646   1.466  25.228  0.00  0.00    +0.220 C 
ENDROOT
BRANCH   8  12
ATOM     12  C   UNL     1      -1.868   1.644  24.695  0.00  0.00    +0.020 C 
BRANCH  12  15
ATOM     15  C   UNL     1      -1.614   0.602  23.616  0.00  0.00    +0.085 C 
BRANCH  15   6
ATOM      4  O   UNL     1       4.307  -1.157  22.735  0.00  0.00    -0.276 OA
ATOM      6  N   UNL     1      -0.267   0.770  23.072  0.00  0.00    -0.299 NA
ATOM      7  N   UNL     1       2.568   0.365  22.969  0.00  0.00    -0.299 N 
ATOM     16  C   UNL     1       0.613   1.411  24.060  0.00  0.00    +0.103 C 
ATOM     17  C   UNL     1       0.287  -0.528  22.656  0.00  0.00    +0.103 C 
ATOM     19  C   UNL     1       2.017   1.620  23.490  0.00  0.00    +0.123 C 
ATOM     20  C   UNL     1       1.681  -0.353  22.055  0.00  0.00    +0.123 C 
ATOM     23  C   UNL     1       3.866  -0.095  23.184  0.00  0.00    +0.213 C 
ATOM     25  C   UNL     1       4.761   0.778  24.026  0.00  0.00    +0.109 C 
ENDBRANCH  15   6
ENDBRANCH  12  15
ENDBRANCH   8  12
BRANCH   9  14
ATOM     14  C   UNL     1      -0.990   4.459  25.476  0.00  0.00    +0.124 C 
BRANCH  14  21
ATOM      3  O   UNL     1       0.209   4.632  23.361  0.00  0.00    -0.251 OA
ATOM     21  C   UNL     1      -0.193   5.139  24.397  0.00  0.00    +0.305 C 
BRANCH  21   2
ATOM      2  O   UNL     1       0.029   6.435  24.740  0.00  0.00    -0.481 OA
ATOM     31  H   UNL     1       0.507   6.923  24.035  0.00  0.00    +0.295 HD
ENDBRANCH  21   2
ENDBRANCH  14  21
ENDBRANCH   9  14
BRANCH  18  22
ATOM     22  C   UNL     1      -5.623   0.294  24.279  0.00  0.00    +0.131 C 
BRANCH  22  24
ATOM     24  C   UNL     1      -4.597  -0.709  24.705  0.00  0.00    -0.039 A 
ATOM     26  C   UNL     1      -4.300  -1.795  23.881  0.00  0.00    +0.004 A 
ATOM     27  C   UNL     1      -3.940  -0.559  25.926  0.00  0.00    +0.004 A 
ATOM     28  C   UNL     1      -3.344  -2.730  24.277  0.00  0.00    +0.000 A 
ATOM     29  C   UNL     1      -2.985  -1.496  26.323  0.00  0.00    +0.000 A 
ATOM     30  C   UNL     1      -2.687  -2.581  25.498  0.00  0.00    +0.000 A 
ENDBRANCH  22  24
ENDBRANCH  18  22
TORSDOF 8
ENDMDL
MODEL 3
REMARK VINA RESULT:      -0.0      1.921      4.494
REMARK  Name = 28959868
REMARK  9 active torsions:
REMARK  status: ('A' for Active; 'I' for Inactive)
REMARK    1  A    between atoms: O_2  and  C_21
REMARK    2  A    between atoms: N_6  and  C_15
REMARK    3  A    between atoms: C_8  and  C_12
REMARK    4  A    between atoms: C_9  and  C_14
REMARK    5  A    between atoms: C_12  and  C_15
REMARK    6  A    between atoms: C_14  and  C_21
REMARK    7  A    between atoms: C_18  and  C_22
REMARK    8  A    between atoms: C_22  and  C_24
REMARK    9  A    between atoms: C_23  and  C_25
REMARK                            x       y       z     vdW  Elec       q    Type
REMARK                         _______ _______ _______ _____ _____    ______ ____
ROOT
ATOM      1  O   UNL     1      -5.996   4.048  25.050  0.00  0.00    -0.275 OA
ATOM      5  N   UNL     1      -5.198   1.958  25.676  0.00  0.00    -0.301 N 
ATOM      8  C   UNL     1      -3.618   0.058  25.421  0.00  0.00    +0.011 C 
ATOM      9  C   UNL     1      -4.746  -0.739  24.719  0.00  0.00    +0.006 C 
ATOM     10  C   UNL     1      -4.228   1.103  26.373  0.00  0.00    +0.111 C 
ATOM     11  C   UNL     1      -5.766   0.197  24.048  0.00  0.00    +0.023 C 
ATOM     13  C   UNL     1      -6.295   1.238  25.030  0.00  0.00    +0.108 C 
ATOM     18  C   UNL     1      -5.154   3.351  25.621  0.00  0.00    +0.220 C 
ENDROOT
BRANCH   8  12
ATOM     12  C   UNL     1      -2.634   0.729  24.453  0.00  0.00    +0.020 C 
BRANCH  12  15
ATOM     15  C   UNL     1      -1.276   0.929  25.111  0.00  0.00    +0.085 C 
BRANCH  15   6
ATOM      4  O   UNL     1       4.125  -1.553  23.215  0.00  0.00    -0.276 OA
ATOM      6  N   UNL     1      -0.214   0.702  24.133  0.00  0.00    -0.299 NA
ATOM      7  N   UNL     1       2.443   0.048  23.280  0.00  0.00    -0.299 N 
ATOM     16  C   UNL     1       0.890   1.652  24.340  0.00  0.00    +0.103 C 
ATOM     17  C   UNL     1       0.278  -0.682  24.215  0.00  0.00    +0.103 C 
ATOM     19  C   UNL     1       1.994   1.444  23.302  0.00  0.00    +0.123 C 
ATOM     20  C   UNL     1       1.365  -0.933  23.172  0.00  0.00    +0.123 C 
ATOM     23  C   UNL     1       3.772  -0.371  23.232  0.00  0.00    +0.213 C 
ATOM     25  C   UNL     1       4.820   0.713  23.207  0.00  0.00    +0.109 C 
ENDBRANCH  15   6
ENDBRANCH  12  15
ENDBRANCH   8  12
BRANCH   9  14
ATOM     14  C   UNL     1      -4.223  -1.771  23.722  0.00  0.00    +0.124 C 
BRANCH  14  21
ATOM      3  O   UNL     1      -2.003  -2.762  23.894  0.00  0.00    -0.251 OA
ATOM     21  C   UNL     1      -3.138  -2.622  24.322  0.00  0.00    +0.305 C 
BRANCH  21   2
ATOM      2  O   UNL     1      -3.605  -3.237  25.440  0.00  0.00    -0.481 OA
ATOM     31  H   UNL     1      -4.196  -3.990  25.224  0.00  0.00    +0.295 HD
ENDBRANCH  21   2
ENDBRANCH  14  21
ENDBRANCH   9  14
BRANCH  18  22
ATOM     22  C   UNL     1      -3.989   4.018  26.309  0.00  0.00    +0.131 C 
BRANCH  22  24
ATOM     24  C   UNL     1      -2.835   4.166  25.367  0.00  0.00    -0.039 A 
ATOM     26  C   UNL     1      -1.667   4.803  25.789  0.00  0.00    +0.004 A 
ATOM     27  C   UNL     1      -2.928   3.669  24.067  0.00  0.00    +0.004 A 
ATOM     28  C   UNL     1      -0.592   4.941  24.912  0.00  0.00    +0.000 A 
ATOM     29  C   UNL     1      -1.852   3.808  23.189  0.00  0.00    +0.000 A 
ATOM     30  C   UNL     1      -0.684   4.444  23.612  0.00  0.00    +0.000 A 
ENDBRANCH  22  24
ENDBRANCH  18  22
TORSDOF 8
ENDMDL
MODEL 4
REMARK VINA RESULT:       1.0      1.793      4.129
REMARK  Name = 28959868
REMARK  9 active torsions:
REMARK  status: ('A' for Active; 'I' for Inactive)
REMARK    1  A    between atoms: O_2  and  C_21
REMARK    2  A    between atoms: N_6  and  C_15
REMARK    3  A    between atoms: C_8  and  C_12
REMARK    4  A    between atoms: C_9  and  C_14
REMARK    5  A    between atoms: C_12  and  C_15
REMARK    6  A    between atoms: C_14  and  C_21
REMARK    7  A    between atoms: C_18  and  C_22
REMARK    8  A    between atoms: C_22  and  C_24
REMARK    9  A    between atoms: C_23  and  C_25
REMARK                            x       y       z     vdW  Elec       q    Type
REMARK                         _______ _______ _______ _____ _____    ______ ____
ROOT
ATOM      1  O   UNL     1      -6.269   1.862  24.113  0.00  0.00    -0.275 OA
ATOM      5  N   UNL     1      -4.799   0.437  25.212  0.00  0.00    -0.301 N 
ATOM      8  C   UNL     1      -2.501  -0.348  25.736  0.00  0.00    +0.011 C 
ATOM      9  C   UNL     1      -2.734  -1.549  24.785  0.00  0.00    +0.006 C 
ATOM     10  C   UNL     1      -3.848   0.148  26.293  0.00  0.00    +0.111 C 
ATOM     11  C   UNL     1      -3.774  -1.219  23.701  0.00  0.00    +0.023 C 
ATOM     13  C   UNL     1      -5.066  -0.687  24.315  0.00  0.00    +0.108 C 
ATOM     18  C   UNL     1      -5.454   1.652  25.015  0.00  0.00    +0.220 C 
ENDROOT
BRANCH   8  12
ATOM     12  C   UNL     1      -1.729   0.813  25.095  0.00  0.00    +0.020 C 
BRANCH  12  15
ATOM     15  C   UNL     1      -1.746   0.704  23.578  0.00  0.00    +0.085 C 
BRANCH  15   6
ATOM      4  O   UNL     1       4.161  -1.063  22.628  0.00  0.00    -0.276 OA
ATOM      6  N   UNL     1      -0.395   0.889  23.052  0.00  0.00    -0.299 NA
ATOM      7  N   UNL     1       2.436   0.461  22.941  0.00  0.00    -0.299 N 
ATOM     16  C   UNL     1       0.486   1.463  24.080  0.00  0.00    +0.103 C 
ATOM     17  C   UNL     1       0.149  -0.388  22.564  0.00  0.00    +0.103 C 
ATOM     19  C   UNL     1       1.895   1.689  23.531  0.00  0.00    +0.123 C 
ATOM     20  C   UNL     1       1.548  -0.194  21.982  0.00  0.00    +0.123 C 
ATOM     23  C   UNL     1       3.728  -0.025  23.135  0.00  0.00    +0.213 C 
ATOM     25  C   UNL     1       4.627   0.789  24.032  0.00  0.00    +0.109 C 
ENDBRANCH  15   6
ENDBRANCH  12  15
ENDBRANCH   8  12
BRANCH   9  14
ATOM     14  C   UNL     1      -1.446  -2.075  24.155  0.00  0.00    +0.124 C 
BRANCH  14  21
ATOM      3  O   UNL     1      -0.323  -3.702  25.580  0.00  0.00    -0.251 OA
ATOM     21  C   UNL     1      -0.472  -2.552  25.197  0.00  0.00    +0.305 C 
BRANCH  21   2
ATOM      2  O   UNL     1       0.244  -1.499  25.671  0.00  0.00    -0.481 OA
ATOM     31  H   UNL     1       0.369  -1.550  26.643  0.00  0.00    +0.295 HD
ENDBRANCH  21   2
ENDBRANCH  14  21
ENDBRANCH   9  14
BRANCH  18  22
ATOM     22  C   UNL     1      -5.122   2.763  25.980  0.00  0.00    +0.131 C 
BRANCH  22  24
ATOM     24  C   UNL     1      -3.881   3.481  25.551  0.00  0.00    -0.039 A 
ATOM     26  C   UNL     1      -2.916   3.832  26.496  0.00  0.00    +0.004 A 
ATOM     27  C   UNL     1      -3.690   3.800  24.207  0.00  0.00    +0.004 A 
ATOM     28  C   UNL     1      -1.760   4.501  26.097  0.00  0.00    +0.000 A 
ATOM     29  C   UNL     1      -2.533   4.470  23.808  0.00  0.00    +0.000 A 
ATOM     30  C   UNL     1      -1.568   4.820  24.753  0.00  0.00    +0.000 A 
ENDBRANCH  22  24
ENDBRANCH  18  22
TORSDOF 8
ENDMDL
