MODEL 1
REMARK VINA RESULT:      -1.5      0.000      0.000
REMARK  Name = 11912302
REMARK  6 active torsions:
REMARK  status: ('A' for Active; 'I' for Inactive)
REMARK    1  A    between atoms: N_6  and  C_21
REMARK    2  A    between atoms: C_7  and  C_12
REMARK    3  A    between atoms: C_8  and  C_13
REMARK    4  A    between atoms: C_12  and  C_15
REMARK    5  A    between atoms: C_13  and  C_16
REMARK    6  A    between atoms: C_21  and  C_22
REMARK                            x       y       z     vdW  Elec       q    Type
REMARK                         _______ _______ _______ _____ _____    ______ ____
ROOT
ATOM      1  O   UNL     1      -0.510  -0.254  23.703  0.00  0.00    -0.252 OA
ATOM      2  O   UNL     1       3.955  -0.317  22.496  0.00  0.00    -0.377 OA
ATOM      4  N   UNL     1      -0.339   2.032  23.473  0.00  0.00    -0.285 N 
ATOM      5  N   UNL     1       1.604   0.658  23.702  0.00  0.00    -0.281 N 
ATOM      7  C   UNL     1      -0.995   3.645  25.250  0.00  0.00    +0.010 C 
ATOM      8  C   UNL     1      -2.358   3.822  24.532  0.00  0.00    +0.004 C 
ATOM      9  C   UNL     1      -2.731   2.575  23.714  0.00  0.00    +0.023 C 
ATOM     10  C   UNL     1       0.088   3.212  24.240  0.00  0.00    +0.113 C 
ATOM     11  C   UNL     1      -1.604   2.194  22.760  0.00  0.00    +0.109 C 
ATOM     14  C   UNL     1       0.209   0.751  23.631  0.00  0.00    +0.305 C 
ATOM     17  C   UNL     1       2.236  -0.572  24.176  0.00  0.00    +0.137 C 
ATOM     18  C   UNL     1       2.534   1.583  23.038  0.00  0.00    +0.137 C 
ATOM     19  C   UNL     1       3.002  -1.235  23.041  0.00  0.00    +0.179 C 
ATOM     20  C   UNL     1       3.308   0.838  21.953  0.00  0.00    +0.179 C 
ENDROOT
BRANCH   7  12
ATOM     12  C   UNL     1      -1.042   2.668  26.433  0.00  0.00    +0.002 C 
ATOM     15  C   UNL     1       0.350   2.361  26.942  0.00  0.00    +0.004 C 
ENDBRANCH   7  12
BRANCH   8  13
ATOM     13  C   UNL     1      -3.492   4.205  25.480  0.00  0.00    +0.099 C 
BRANCH  13  16
ATOM      3  O   UNL     1      -5.823   3.555  25.442  0.00  0.00    -0.276 OA
ATOM      6  N   UNL     1      -4.178   1.914  25.364  0.00  0.00    -0.311 N 
ATOM     16  C   UNL     1      -4.641   3.221  25.427  0.00  0.00    +0.214 C 
ATOM     28  H   UNL     1      -3.180   1.731  25.354  0.00  0.00    +0.149 HD
BRANCH   6  21
ATOM     21  C   UNL     1      -5.055   0.768  25.305  0.00  0.00    +0.139 C 
BRANCH  21  22
ATOM     22  C   UNL     1      -4.300  -0.505  25.053  0.00  0.00    -0.030 A 
ATOM     23  C   UNL     1      -3.271  -0.887  25.913  0.00  0.00    +0.005 A 
ATOM     24  C   UNL     1      -4.628  -1.307  23.959  0.00  0.00    +0.005 A 
ATOM     25  C   UNL     1      -2.569  -2.070  25.681  0.00  0.00    +0.000 A 
ATOM     26  C   UNL     1      -3.926  -2.488  23.726  0.00  0.00    +0.000 A 
ATOM     27  C   UNL     1      -2.897  -2.871  24.586  0.00  0.00    +0.000 A 
ENDBRANCH  21  22
ENDBRANCH   6  21
ENDBRANCH  13  16
ENDBRANCH   8  13
TORSDOF 5
ENDMDL
MODEL 2
REMARK VINA RESULT:       0.0     15.924     17.870
REMARK  Name = 11912302
REMARK  6 active torsions:
REMARK  status: ('A' for Active; 'I' for Inactive)
REMARK    1  A    between atoms: N_6  and  C_21
REMARK    2  A    between atoms: C_7  and  C_12
REMARK    3  A    between atoms: C_8  and  C_13
REMARK    4  A    between atoms: C_12  and  C_15
REMARK    5  A    between atoms: C_13  and  C_16
REMARK    6  A    between atoms: C_21  and  C_22
REMARK                            x       y       z     vdW  Elec       q    Type
REMARK                         _______ _______ _______ _____ _____    ______ ____
ROOT
ATOM      1  O   UNL     1      16.513  -6.614  30.657  0.00  0.00    -0.252 OA
ATOM      2  O   UNL     1      16.824  -4.939  26.356  0.00  0.00    -0.377 OA
ATOM      4  N   UNL     1      14.813  -7.921  29.816  0.00  0.00    -0.285 N 
ATOM      5  N   UNL     1      15.570  -5.973  28.656  0.00  0.00    -0.281 N 
ATOM      7  C   UNL     1      12.537  -8.025  30.815  0.00  0.00    +0.010 C 
ATOM      8  C   UNL     1      12.964  -9.317  31.559  0.00  0.00    +0.004 C 
ATOM      9  C   UNL     1      14.483  -9.357  31.793  0.00  0.00    +0.023 C 
ATOM     10  C   UNL     1      13.372  -7.848  29.530  0.00  0.00    +0.113 C 
ATOM     11  C   UNL     1      15.240  -9.148  30.484  0.00  0.00    +0.109 C 
ATOM     14  C   UNL     1      15.683  -6.822  29.763  0.00  0.00    +0.305 C 
ATOM     17  C   UNL     1      16.202  -4.655  28.674  0.00  0.00    +0.137 C 
ATOM     18  C   UNL     1      15.134  -6.401  27.320  0.00  0.00    +0.137 C 
ATOM     19  C   UNL     1      17.328  -4.602  27.652  0.00  0.00    +0.179 C 
ATOM     20  C   UNL     1      16.295  -6.268  26.337  0.00  0.00    +0.179 C 
ENDROOT
BRANCH   7  12
ATOM     12  C   UNL     1      12.614  -6.759  31.680  0.00  0.00    +0.002 C 
ATOM     15  C   UNL     1      11.675  -5.689  31.165  0.00  0.00    +0.004 C 
ENDBRANCH   7  12
BRANCH   8  13
ATOM     13  C   UNL     1      12.210  -9.533  32.869  0.00  0.00    +0.099 C 
BRANCH  13  16
ATOM      3  O   UNL     1      10.025 -10.483  32.451  0.00  0.00    -0.276 OA
ATOM      6  N   UNL     1      10.227  -8.194  32.801  0.00  0.00    -0.311 N 
ATOM     16  C   UNL     1      10.709  -9.490  32.682  0.00  0.00    +0.214 C 
ATOM     28  H   UNL     1      10.868  -7.432  32.995  0.00  0.00    +0.149 HD
BRANCH   6  21
ATOM     21  C   UNL     1       8.829  -7.857  32.665  0.00  0.00    +0.139 C 
BRANCH  21  22
ATOM     22  C   UNL     1       8.083  -8.870  31.846  0.00  0.00    -0.030 A 
ATOM     23  C   UNL     1       8.207  -8.871  30.456  0.00  0.00    +0.005 A 
ATOM     24  C   UNL     1       7.268  -9.812  32.473  0.00  0.00    +0.005 A 
ATOM     25  C   UNL     1       7.516  -9.813  29.694  0.00  0.00    +0.000 A 
ATOM     26  C   UNL     1       6.576 -10.753  31.711  0.00  0.00    +0.000 A 
ATOM     27  C   UNL     1       6.700 -10.754  30.322  0.00  0.00    +0.000 A 
ENDBRANCH  21  22
ENDBRANCH   6  21
ENDBRANCH  13  16
ENDBRANCH   8  13
TORSDOF 5
ENDMDL
MODEL 3
REMARK VINA RESULT:       0.1      1.412      4.212
REMARK  Name = 11912302
REMARK  6 active torsions:
REMARK  status: ('A' for Active; 'I' for Inactive)
REMARK    1  A    between atoms: N_6  and  C_21
REMARK    2  A    between atoms: C_7  and  C_12
REMARK    3  A    between atoms: C_8  and  C_13
REMARK    4  A    between atoms: C_12  and  C_15
REMARK    5  A    between atoms: C_13  and  C_16
REMARK    6  A    between atoms: C_21  and  C_22
REMARK                            x       y       z     vdW  Elec       q    Type
REMARK                         _______ _______ _______ _____ _____    ______ ____
ROOT
ATOM      1  O   UNL     1       0.265   1.353  25.385  0.00  0.00    -0.252 OA
ATOM      2  O   UNL     1       3.546   0.220  22.327  0.00  0.00    -0.377 OA
ATOM      4  N   UNL     1      -0.987  -0.284  24.355  0.00  0.00    -0.285 N 
ATOM      5  N   UNL     1       0.937   0.658  23.295  0.00  0.00    -0.281 N 
ATOM      7  C   UNL     1      -3.273   0.098  23.453  0.00  0.00    +0.010 C 
ATOM      8  C   UNL     1      -3.849  -0.494  24.766  0.00  0.00    +0.004 C 
ATOM      9  C   UNL     1      -2.874  -0.312  25.941  0.00  0.00    +0.023 C 
ATOM     10  C   UNL     1      -1.862  -0.465  23.187  0.00  0.00    +0.113 C 
ATOM     11  C   UNL     1      -1.496  -0.868  25.594  0.00  0.00    +0.109 C 
ATOM     14  C   UNL     1       0.084   0.621  24.404  0.00  0.00    +0.305 C 
ATOM     17  C   UNL     1       1.871   1.770  23.124  0.00  0.00    +0.137 C 
ATOM     18  C   UNL     1       1.220  -0.491  22.424  0.00  0.00    +0.137 C 
ATOM     19  C   UNL     1       3.303   1.274  23.264  0.00  0.00    +0.179 C 
ATOM     20  C   UNL     1       2.685  -0.897  22.572  0.00  0.00    +0.179 C 
ENDROOT
BRANCH   7  12
ATOM     12  C   UNL     1      -3.250   1.632  23.425  0.00  0.00    +0.002 C 
ATOM     15  C   UNL     1      -2.540   2.144  22.190  0.00  0.00    +0.004 C 
ENDBRANCH   7  12
BRANCH   8  13
ATOM     13  C   UNL     1      -5.229   0.056  25.120  0.00  0.00    +0.099 C 
BRANCH  13  16
ATOM      3  O   UNL     1      -5.894   2.202  24.224  0.00  0.00    -0.276 OA
ATOM      6  N   UNL     1      -4.524   2.123  26.100  0.00  0.00    -0.311 N 
ATOM     16  C   UNL     1      -5.273   1.568  25.072  0.00  0.00    +0.214 C 
ATOM     28  H   UNL     1      -4.044   1.519  26.759  0.00  0.00    +0.149 HD
BRANCH   6  21
ATOM     21  C   UNL     1      -4.387   3.548  26.296  0.00  0.00    +0.139 C 
BRANCH  21  22
ATOM     22  C   UNL     1      -3.065   4.058  25.798  0.00  0.00    -0.030 A 
ATOM     23  C   UNL     1      -1.892   3.368  26.104  0.00  0.00    +0.005 A 
ATOM     24  C   UNL     1      -3.009   5.221  25.030  0.00  0.00    +0.005 A 
ATOM     25  C   UNL     1      -0.663   3.841  25.641  0.00  0.00    +0.000 A 
ATOM     26  C   UNL     1      -1.781   5.694  24.568  0.00  0.00    +0.000 A 
ATOM     27  C   UNL     1      -0.608   5.004  24.874  0.00  0.00    +0.000 A 
ENDBRANCH  21  22
ENDBRANCH   6  21
ENDBRANCH  13  16
ENDBRANCH   8  13
TORSDOF 5
ENDMDL
MODEL 4
REMARK VINA RESULT:       1.1      1.853      4.456
REMARK  Name = 11912302
REMARK  6 active torsions:
REMARK  status: ('A' for Active; 'I' for Inactive)
REMARK    1  A    between atoms: N_6  and  C_21
REMARK    2  A    between atoms: C_7  and  C_12
REMARK    3  A    between atoms: C_8  and  C_13
REMARK    4  A    between atoms: C_12  and  C_15
REMARK    5  A    between atoms: C_13  and  C_16
REMARK    6  A    between atoms: C_21  and  C_22
REMARK                            x       y       z     vdW  Elec       q    Type
REMARK                         _______ _______ _______ _____ _____    ______ ____
ROOT
ATOM      1  O   UNL     1       0.258   1.078  22.772  0.00  0.00    -0.252 OA
ATOM      2  O   UNL     1       4.744   0.025  22.367  0.00  0.00    -0.377 OA
ATOM      4  N   UNL     1       0.317  -0.248  24.655  0.00  0.00    -0.285 N 
ATOM      5  N   UNL     1       2.027  -0.380  22.990  0.00  0.00    -0.281 N 
ATOM      7  C   UNL     1      -1.245  -2.143  25.051  0.00  0.00    +0.010 C 
ATOM      8  C   UNL     1      -2.110  -1.197  25.924  0.00  0.00    +0.004 C 
ATOM      9  C   UNL     1      -1.938   0.272  25.504  0.00  0.00    +0.023 C 
ATOM     10  C   UNL     1       0.221  -1.665  25.039  0.00  0.00    +0.113 C 
ATOM     11  C   UNL     1      -0.463   0.663  25.490  0.00  0.00    +0.109 C 
ATOM     14  C   UNL     1       0.834   0.202  23.432  0.00  0.00    +0.305 C 
ATOM     17  C   UNL     1       2.462  -0.206  21.605  0.00  0.00    +0.137 C 
ATOM     18  C   UNL     1       3.076  -0.901  23.878  0.00  0.00    +0.137 C 
ATOM     19  C   UNL     1       3.731   0.632  21.558  0.00  0.00    +0.179 C 
ATOM     20  C   UNL     1       4.336  -0.050  23.736  0.00  0.00    +0.179 C 
ENDROOT
BRANCH   7  12
ATOM     12  C   UNL     1      -1.765  -2.309  23.617  0.00  0.00    +0.002 C 
ATOM     15  C   UNL     1      -2.736  -3.466  23.519  0.00  0.00    +0.004 C 
ENDBRANCH   7  12
BRANCH   8  13
ATOM     13  C   UNL     1      -3.589  -1.582  25.945  0.00  0.00    +0.099 C 
BRANCH  13  16
ATOM      3  O   UNL     1      -4.907  -0.815  24.068  0.00  0.00    -0.276 OA
ATOM      6  N   UNL     1      -4.638   0.570  25.916  0.00  0.00    -0.311 N 
ATOM     16  C   UNL     1      -4.449  -0.595  25.186  0.00  0.00    +0.214 C 
ATOM     28  H   UNL     1      -4.221   0.663  26.837  0.00  0.00    +0.149 HD
BRANCH   6  21
ATOM     21  C   UNL     1      -5.417   1.686  25.433  0.00  0.00    +0.139 C 
BRANCH  21  22
ATOM     22  C   UNL     1      -4.555   2.870  25.098  0.00  0.00    -0.030 A 
ATOM     23  C   UNL     1      -4.337   3.218  23.765  0.00  0.00    +0.005 A 
ATOM     24  C   UNL     1      -3.974   3.622  26.120  0.00  0.00    +0.005 A 
ATOM     25  C   UNL     1      -3.537   4.318  23.453  0.00  0.00    +0.000 A 
ATOM     26  C   UNL     1      -3.174   4.720  25.808  0.00  0.00    +0.000 A 
ATOM     27  C   UNL     1      -2.955   5.069  24.475  0.00  0.00    +0.000 A 
ENDBRANCH  21  22
ENDBRANCH   6  21
ENDBRANCH  13  16
ENDBRANCH   8  13
TORSDOF 5
ENDMDL
MODEL 5
REMARK VINA RESULT:       1.1      2.650      4.468
REMARK  Name = 11912302
REMARK  6 active torsions:
REMARK  status: ('A' for Active; 'I' for Inactive)
REMARK    1  A    between atoms: N_6  and  C_21
REMARK    2  A    between atoms: C_7  and  C_12
REMARK    3  A    between atoms: C_8  and  C_13
REMARK    4  A    between atoms: C_12  and  C_15
REMARK    5  A    between atoms: C_13  and  C_16
REMARK    6  A    between atoms: C_21  and  C_22
REMARK                            x       y       z     vdW  Elec       q    Type
REMARK                         _______ _______ _______ _____ _____    ______ ____
ROOT
ATOM      1  O   UNL     1      -3.708   0.386  24.550  0.00  0.00    -0.252 OA
ATOM      2  O   UNL     1      -2.708  -4.122  24.286  0.00  0.00    -0.377 OA
ATOM      4  N   UNL     1      -1.549   0.709  23.814  0.00  0.00    -0.285 N 
ATOM      5  N   UNL     1      -2.245  -1.381  24.740  0.00  0.00    -0.281 N 
ATOM      7  C   UNL     1       0.101   2.155  24.986  0.00  0.00    +0.010 C 
ATOM      8  C   UNL     1      -0.251   3.295  23.996  0.00  0.00    +0.004 C 
ATOM      9  C   UNL     1      -1.680   3.144  23.447  0.00  0.00    +0.023 C 
ATOM     10  C   UNL     1      -0.178   0.782  24.341  0.00  0.00    +0.113 C 
ATOM     11  C   UNL     1      -1.888   1.755  22.850  0.00  0.00    +0.109 C 
ATOM     14  C   UNL     1      -2.570  -0.069  24.379  0.00  0.00    +0.305 C 
ATOM     17  C   UNL     1      -3.136  -2.146  25.611  0.00  0.00    +0.137 C 
ATOM     18  C   UNL     1      -1.229  -2.202  24.067  0.00  0.00    +0.137 C 
ATOM     19  C   UNL     1      -3.746  -3.309  24.841  0.00  0.00    +0.179 C 
ATOM     20  C   UNL     1      -1.904  -3.378  23.366  0.00  0.00    +0.179 C 
ENDROOT
BRANCH   7  12
ATOM     12  C   UNL     1      -0.618   2.266  26.337  0.00  0.00    +0.002 C 
ATOM     15  C   UNL     1       0.374   2.372  27.475  0.00  0.00    +0.004 C 
ENDBRANCH   7  12
BRANCH   8  13
ATOM     13  C   UNL     1      -0.044   4.689  24.584  0.00  0.00    +0.099 C 
BRANCH  13  16
ATOM      3  O   UNL     1      -1.628   6.482  24.943  0.00  0.00    -0.276 OA
ATOM      6  N   UNL     1      -2.127   4.347  25.715  0.00  0.00    -0.311 N 
ATOM     16  C   UNL     1      -1.337   5.297  25.084  0.00  0.00    +0.214 C 
ATOM     28  H   UNL     1      -1.805   3.386  25.783  0.00  0.00    +0.149 HD
BRANCH   6  21
ATOM     21  C   UNL     1      -3.416   4.648  26.291  0.00  0.00    +0.139 C 
BRANCH  21  22
ATOM     22  C   UNL     1      -4.471   3.676  25.848  0.00  0.00    -0.030 A 
ATOM     23  C   UNL     1      -4.693   3.460  24.488  0.00  0.00    +0.005 A 
ATOM     24  C   UNL     1      -5.228   2.986  26.796  0.00  0.00    +0.005 A 
ATOM     25  C   UNL     1      -5.672   2.556  24.075  0.00  0.00    +0.000 A 
ATOM     26  C   UNL     1      -6.207   2.083  26.383  0.00  0.00    +0.000 A 
ATOM     27  C   UNL     1      -6.429   1.867  25.023  0.00  0.00    +0.000 A 
ENDBRANCH  21  22
ENDBRANCH   6  21
ENDBRANCH  13  16
ENDBRANCH   8  13
TORSDOF 5
ENDMDL
MODEL 6
REMARK VINA RESULT:       1.8      1.665      5.960
REMARK  Name = 11912302
REMARK  6 active torsions:
REMARK  status: ('A' for Active; 'I' for Inactive)
REMARK    1  A    between atoms: N_6  and  C_21
REMARK    2  A    between atoms: C_7  and  C_12
REMARK    3  A    between atoms: C_8  and  C_13
REMARK    4  A    between atoms: C_12  and  C_15
REMARK    5  A    between atoms: C_13  and  C_16
REMARK    6  A    between atoms: C_21  and  C_22
REMARK                            x       y       z     vdW  Elec       q    Type
REMARK                         _______ _______ _______ _____ _____    ______ ____
ROOT
ATOM      1  O   UNL     1      -3.512   0.935  25.788  0.00  0.00    -0.252 OA
ATOM      2  O   UNL     1      -6.860   4.125  25.878  0.00  0.00    -0.377 OA
ATOM      4  N   UNL     1      -2.121   2.691  25.252  0.00  0.00    -0.285 N 
ATOM      5  N   UNL     1      -4.493   2.868  25.013  0.00  0.00    -0.281 N 
ATOM      7  C   UNL     1      -0.620   2.700  23.268  0.00  0.00    +0.010 C 
ATOM      8  C   UNL     1       0.542   2.254  24.192  0.00  0.00    +0.004 C 
ATOM      9  C   UNL     1       0.023   1.486  25.419  0.00  0.00    +0.023 C 
ATOM     10  C   UNL     1      -1.685   3.466  24.080  0.00  0.00    +0.113 C 
ATOM     11  C   UNL     1      -1.043   2.293  26.154  0.00  0.00    +0.109 C 
ATOM     14  C   UNL     1      -3.384   2.095  25.375  0.00  0.00    +0.305 C 
ATOM     17  C   UNL     1      -5.795   2.237  24.810  0.00  0.00    +0.137 C 
ATOM     18  C   UNL     1      -4.556   4.332  25.122  0.00  0.00    +0.137 C 
ATOM     19  C   UNL     1      -6.771   2.697  25.883  0.00  0.00    +0.179 C 
ATOM     20  C   UNL     1      -5.594   4.722  26.172  0.00  0.00    +0.179 C 
ENDROOT
BRANCH   7  12
ATOM     12  C   UNL     1      -1.269   1.547  22.491  0.00  0.00    +0.002 C 
ATOM     15  C   UNL     1      -2.514   2.011  21.765  0.00  0.00    +0.004 C 
ENDBRANCH   7  12
BRANCH   8  13
ATOM     13  C   UNL     1       1.614   1.446  23.464  0.00  0.00    +0.099 C 
BRANCH  13  16
ATOM      3  O   UNL     1       1.392  -0.570  22.145  0.00  0.00    -0.276 OA
ATOM      6  N   UNL     1       0.511  -0.509  24.296  0.00  0.00    -0.311 N 
ATOM     16  C   UNL     1       1.178   0.021  23.200  0.00  0.00    +0.214 C 
ATOM     28  H   UNL     1       0.381   0.054  25.130  0.00  0.00    +0.149 HD
BRANCH   6  21
ATOM     21  C   UNL     1      -0.019  -1.853  24.322  0.00  0.00    +0.139 C 
BRANCH  21  22
ATOM     22  C   UNL     1      -1.520  -1.865  24.286  0.00  0.00    -0.030 A 
ATOM     23  C   UNL     1      -2.207  -0.915  23.530  0.00  0.00    +0.005 A 
ATOM     24  C   UNL     1      -2.229  -2.827  25.006  0.00  0.00    +0.005 A 
ATOM     25  C   UNL     1      -3.602  -0.925  23.494  0.00  0.00    +0.000 A 
ATOM     26  C   UNL     1      -3.623  -2.837  24.972  0.00  0.00    +0.000 A 
ATOM     27  C   UNL     1      -4.309  -1.887  24.216  0.00  0.00    +0.000 A 
ENDBRANCH  21  22
ENDBRANCH   6  21
ENDBRANCH  13  16
ENDBRANCH   8  13
TORSDOF 5
ENDMDL
MODEL 7
REMARK VINA RESULT:       2.4      1.203      2.273
REMARK  Name = 11912302
REMARK  6 active torsions:
REMARK  status: ('A' for Active; 'I' for Inactive)
REMARK    1  A    between atoms: N_6  and  C_21
REMARK    2  A    between atoms: C_7  and  C_12
REMARK    3  A    between atoms: C_8  and  C_13
REMARK    4  A    between atoms: C_12  and  C_15
REMARK    5  A    between atoms: C_13  and  C_16
REMARK    6  A    between atoms: C_21  and  C_22
REMARK                            x       y       z     vdW  Elec       q    Type
REMARK                         _______ _______ _______ _____ _____    ______ ____
ROOT
ATOM      1  O   UNL     1       2.221   2.924  23.338  0.00  0.00    -0.252 OA
ATOM      2  O   UNL     1       4.406  -1.112  22.759  0.00  0.00    -0.377 OA
ATOM      4  N   UNL     1       0.779   1.729  24.679  0.00  0.00    -0.285 N 
ATOM      5  N   UNL     1       2.224   0.631  23.123  0.00  0.00    -0.281 N 
ATOM      7  C   UNL     1      -1.690   1.718  24.376  0.00  0.00    +0.010 C 
ATOM      8  C   UNL     1      -1.792   2.800  25.482  0.00  0.00    +0.004 C 
ATOM      9  C   UNL     1      -0.503   3.634  25.576  0.00  0.00    +0.023 C 
ATOM     10  C   UNL     1      -0.413   0.875  24.572  0.00  0.00    +0.113 C 
ATOM     11  C   UNL     1       0.716   2.731  25.741  0.00  0.00    +0.109 C 
ATOM     14  C   UNL     1       1.769   1.827  23.691  0.00  0.00    +0.305 C 
ATOM     17  C   UNL     1       3.006   0.655  21.888  0.00  0.00    +0.137 C 
ATOM     18  C   UNL     1       2.264  -0.659  23.824  0.00  0.00    +0.137 C 
ATOM     19  C   UNL     1       4.428   0.188  22.162  0.00  0.00    +0.179 C 
ATOM     20  C   UNL     1       3.716  -1.093  24.013  0.00  0.00    +0.179 C 
ENDROOT
BRANCH   7  12
ATOM     12  C   UNL     1      -1.743   2.284  22.951  0.00  0.00    +0.002 C 
ATOM     15  C   UNL     1      -2.691   1.485  22.082  0.00  0.00    +0.004 C 
ENDBRANCH   7  12
BRANCH   8  13
ATOM     13  C   UNL     1      -3.011   3.708  25.326  0.00  0.00    +0.099 C 
BRANCH  13  16
ATOM      3  O   UNL     1      -5.413   3.423  25.300  0.00  0.00    -0.276 OA
ATOM      6  N   UNL     1      -4.041   1.582  24.940  0.00  0.00    -0.311 N 
ATOM     16  C   UNL     1      -4.297   2.922  25.192  0.00  0.00    +0.214 C 
ATOM     28  H   UNL     1      -3.082   1.255  24.864  0.00  0.00    +0.149 HD
BRANCH   6  21
ATOM     21  C   UNL     1      -5.084   0.597  24.769  0.00  0.00    +0.139 C 
BRANCH  21  22
ATOM     22  C   UNL     1      -4.535  -0.800  24.716  0.00  0.00    -0.030 A 
ATOM     23  C   UNL     1      -3.748  -1.279  25.763  0.00  0.00    +0.005 A 
ATOM     24  C   UNL     1      -4.813  -1.619  23.622  0.00  0.00    +0.005 A 
ATOM     25  C   UNL     1      -3.238  -2.577  25.716  0.00  0.00    +0.000 A 
ATOM     26  C   UNL     1      -4.302  -2.916  23.574  0.00  0.00    +0.000 A 
ATOM     27  C   UNL     1      -3.515  -3.395  24.621  0.00  0.00    +0.000 A 
ENDBRANCH  21  22
ENDBRANCH   6  21
ENDBRANCH  13  16
ENDBRANCH   8  13
TORSDOF 5
ENDMDL
