MODEL 1
REMARK VINA RESULT:       3.5      0.000      0.000
REMARK  Name = 40778215
REMARK  12 active torsions:
REMARK  status: ('A' for Active; 'I' for Inactive)
REMARK    1  A    between atoms: O_2  and  C_12
REMARK    2  A    between atoms: O_3  and  C_13
REMARK    3  A    between atoms: O_5  and  C_24
REMARK    4  A    between atoms: O_5  and  C_32
REMARK    5  A    between atoms: N_8  and  C_22
REMARK    6  A    between atoms: N_9  and  C_16
REMARK    7  A    between atoms: N_10  and  C_26
REMARK    8  A    between atoms: C_11  and  C_15
REMARK    9  A    between atoms: C_14  and  C_16
REMARK   10  A    between atoms: C_15  and  C_17
REMARK   11  A    between atoms: C_26  and  C_30
REMARK   12  A    between atoms: C_26  and  C_31
REMARK                            x       y       z     vdW  Elec       q    Type
REMARK                         _______ _______ _______ _____ _____    ______ ____
ROOT
ATOM      1  O   UNL     1       0.432  -0.839  24.557  0.00  0.00    -0.366 OA
ATOM     11  C   UNL     1       0.367  -1.404  23.236  0.00  0.00    +0.159 C 
ATOM     12  C   UNL     1       0.240  -0.223  22.288  0.00  0.00    +0.175 C 
ATOM     13  C   UNL     1       1.100   0.814  22.982  0.00  0.00    +0.176 C 
ATOM     14  C   UNL     1       0.781   0.561  24.451  0.00  0.00    +0.167 C 
ENDROOT
BRANCH  12   2
ATOM      2  O   UNL     1       0.684  -0.538  20.986  0.00  0.00    -0.387 OA
ATOM     33  H   UNL     1       1.478  -0.004  20.813  0.00  0.00    +0.210 HD
ENDBRANCH  12   2
BRANCH  13   3
ATOM      3  O   UNL     1       2.483   0.531  22.774  0.00  0.00    -0.387 OA
ATOM     34  H   UNL     1       2.541  -0.133  22.067  0.00  0.00    +0.210 HD
ENDBRANCH  13   3
BRANCH  11  15
ATOM     15  C   UNL     1      -0.801  -2.372  23.151  0.00  0.00    +0.130 C 
BRANCH  15  17
ATOM      4  O   UNL     1      -1.290  -2.971  25.392  0.00  0.00    -0.276 OA
ATOM      7  N   UNL     1      -2.727  -1.447  24.387  0.00  0.00    -0.298 N 
ATOM      8  N   UNL     1      -4.091   0.976  24.859  0.00  0.00    -0.324 N 
ATOM     17  C   UNL     1      -1.622  -2.296  24.414  0.00  0.00    +0.218 C 
ATOM     18  C   UNL     1      -3.154  -0.632  23.248  0.00  0.00    +0.126 C 
ATOM     19  C   UNL     1      -3.593  -1.331  25.557  0.00  0.00    +0.126 C 
ATOM     20  C   UNL     1      -3.268   0.838  23.650  0.00  0.00    +0.124 C 
ATOM     21  C   UNL     1      -3.712   0.126  25.999  0.00  0.00    +0.124 C 
BRANCH   8  22
ATOM     22  C   UNL     1      -4.707   2.202  25.140  0.00  0.00    +0.072 A 
ATOM     24  C   UNL     1      -3.958   3.377  25.193  0.00  0.00    +0.141 A 
ATOM     25  C   UNL     1      -6.082   2.241  25.366  0.00  0.00    +0.027 A 
ATOM     27  C   UNL     1      -4.584   4.591  25.472  0.00  0.00    +0.047 A 
ATOM     28  C   UNL     1      -6.709   3.456  25.646  0.00  0.00    +0.002 A 
ATOM     29  C   UNL     1      -5.959   4.631  25.699  0.00  0.00    +0.004 A 
BRANCH  24   5
ATOM      5  O   UNL     1      -2.612   3.360  24.976  0.00  0.00    -0.493 OA
ATOM     32  C   UNL     1      -1.893   4.555  25.276  0.00  0.00    +0.277 C 
ENDBRANCH  24   5
ENDBRANCH   8  22
ENDBRANCH  15  17
ENDBRANCH  11  15
BRANCH  14  16
ATOM     16  C   UNL     1      -0.404   1.375  24.953  0.00  0.00    +0.140 C 
BRANCH  16   9
ATOM      6  O   UNL     1       1.348   3.004  26.568  0.00  0.00    -0.253 OA
ATOM      9  N   UNL     1      -0.394   1.477  26.382  0.00  0.00    -0.297 N 
ATOM     10  N   UNL     1       0.282   2.203  28.467  0.00  0.00    -0.297 N 
ATOM     23  C   UNL     1       0.491   2.294  27.093  0.00  0.00    +0.300 C 
ATOM     35  H   UNL     1      -1.075   0.936  26.906  0.00  0.00    +0.150 HD
ATOM     36  H   UNL     1      -0.500   1.648  28.801  0.00  0.00    +0.150 HD
BRANCH  10  26
ATOM     26  C   UNL     1       1.063   2.946  29.429  0.00  0.00    +0.068 C 
ATOM     30  C   UNL     1       2.550   2.713  29.197  0.00  0.00    +0.027 C 
ATOM     31  C   UNL     1       0.660   2.570  30.848  0.00  0.00    +0.027 C 
ENDBRANCH  10  26
ENDBRANCH  16   9
ENDBRANCH  14  16
TORSDOF 9
ENDMDL
MODEL 2
REMARK VINA RESULT:       3.8      2.501      5.844
REMARK  Name = 40778215
REMARK  12 active torsions:
REMARK  status: ('A' for Active; 'I' for Inactive)
REMARK    1  A    between atoms: O_2  and  C_12
REMARK    2  A    between atoms: O_3  and  C_13
REMARK    3  A    between atoms: O_5  and  C_24
REMARK    4  A    between atoms: O_5  and  C_32
REMARK    5  A    between atoms: N_8  and  C_22
REMARK    6  A    between atoms: N_9  and  C_16
REMARK    7  A    between atoms: N_10  and  C_26
REMARK    8  A    between atoms: C_11  and  C_15
REMARK    9  A    between atoms: C_14  and  C_16
REMARK   10  A    between atoms: C_15  and  C_17
REMARK   11  A    between atoms: C_26  and  C_30
REMARK   12  A    between atoms: C_26  and  C_31
REMARK                            x       y       z     vdW  Elec       q    Type
REMARK                         _______ _______ _______ _____ _____    ______ ____
ROOT
ATOM      1  O   UNL     1      -2.164   3.499  23.853  0.00  0.00    -0.366 OA
ATOM     11  C   UNL     1      -2.071   4.753  24.551  0.00  0.00    +0.159 C 
ATOM     12  C   UNL     1      -0.609   4.903  24.936  0.00  0.00    +0.175 C 
ATOM     13  C   UNL     1       0.083   4.272  23.745  0.00  0.00    +0.176 C 
ATOM     14  C   UNL     1      -0.840   3.103  23.423  0.00  0.00    +0.167 C 
ENDROOT
BRANCH  12   2
ATOM      2  O   UNL     1      -0.251   6.253  25.141  0.00  0.00    -0.387 OA
ATOM     33  H   UNL     1       0.658   6.364  24.817  0.00  0.00    +0.210 HD
ENDBRANCH  12   2
BRANCH  13   3
ATOM      3  O   UNL     1       0.071   5.167  22.633  0.00  0.00    -0.387 OA
ATOM     34  H   UNL     1      -0.021   6.067  22.986  0.00  0.00    +0.210 HD
ENDBRANCH  13   3
BRANCH  11  15
ATOM     15  C   UNL     1      -3.010   4.743  25.745  0.00  0.00    +0.130 C 
BRANCH  15  17
ATOM      4  O   UNL     1      -5.241   4.509  24.981  0.00  0.00    -0.276 OA
ATOM      7  N   UNL     1      -4.164   2.564  25.652  0.00  0.00    -0.298 N 
ATOM      8  N   UNL     1      -3.748  -0.126  24.907  0.00  0.00    -0.324 N 
ATOM     17  C   UNL     1      -4.242   3.936  25.423  0.00  0.00    +0.218 C 
ATOM     18  C   UNL     1      -2.999   1.848  26.175  0.00  0.00    +0.126 C 
ATOM     19  C   UNL     1      -5.318   1.708  25.391  0.00  0.00    +0.126 C 
ATOM     20  C   UNL     1      -2.590   0.719  25.229  0.00  0.00    +0.124 C 
ATOM     21  C   UNL     1      -4.949   0.580  24.430  0.00  0.00    +0.124 C 
BRANCH   8  22
ATOM     22  C   UNL     1      -3.545  -1.436  24.461  0.00  0.00    +0.072 A 
ATOM     24  C   UNL     1      -2.302  -2.051  24.605  0.00  0.00    +0.141 A 
ATOM     25  C   UNL     1      -4.601  -2.130  23.869  0.00  0.00    +0.027 A 
ATOM     27  C   UNL     1      -2.114  -3.358  24.157  0.00  0.00    +0.047 A 
ATOM     28  C   UNL     1      -4.413  -3.437  23.421  0.00  0.00    +0.002 A 
ATOM     29  C   UNL     1      -3.169  -4.051  23.565  0.00  0.00    +0.004 A 
BRANCH  24   5
ATOM      5  O   UNL     1      -1.257  -1.391  25.180  0.00  0.00    -0.493 OA
ATOM     32  C   UNL     1      -0.038  -2.116  25.332  0.00  0.00    +0.277 C 
ENDBRANCH  24   5
ENDBRANCH   8  22
ENDBRANCH  15  17
ENDBRANCH  11  15
BRANCH  14  16
ATOM     16  C   UNL     1      -0.470   1.828  24.167  0.00  0.00    +0.140 C 
BRANCH  16   9
ATOM      6  O   UNL     1       1.111  -0.074  22.681  0.00  0.00    -0.253 OA
ATOM      9  N   UNL     1       0.951   1.655  24.224  0.00  0.00    -0.297 N 
ATOM     10  N   UNL     1       3.015   0.753  23.716  0.00  0.00    -0.297 N 
ATOM     23  C   UNL     1       1.646   0.705  23.467  0.00  0.00    +0.300 C 
ATOM     35  H   UNL     1       1.484   2.262  24.839  0.00  0.00    +0.150 HD
ATOM     36  H   UNL     1       3.370   1.483  24.327  0.00  0.00    +0.150 HD
BRANCH  10  26
ATOM     26  C   UNL     1       3.960  -0.123  23.064  0.00  0.00    +0.068 C 
ATOM     30  C   UNL     1       3.989  -1.480  23.754  0.00  0.00    +0.027 C 
ATOM     31  C   UNL     1       5.345   0.511  23.036  0.00  0.00    +0.027 C 
ENDBRANCH  10  26
ENDBRANCH  16   9
ENDBRANCH  14  16
TORSDOF 9
ENDMDL
MODEL 3
REMARK VINA RESULT:       4.0      2.121      7.374
REMARK  Name = 40778215
REMARK  12 active torsions:
REMARK  status: ('A' for Active; 'I' for Inactive)
REMARK    1  A    between atoms: O_2  and  C_12
REMARK    2  A    between atoms: O_3  and  C_13
REMARK    3  A    between atoms: O_5  and  C_24
REMARK    4  A    between atoms: O_5  and  C_32
REMARK    5  A    between atoms: N_8  and  C_22
REMARK    6  A    between atoms: N_9  and  C_16
REMARK    7  A    between atoms: N_10  and  C_26
REMARK    8  A    between atoms: C_11  and  C_15
REMARK    9  A    between atoms: C_14  and  C_16
REMARK   10  A    between atoms: C_15  and  C_17
REMARK   11  A    between atoms: C_26  and  C_30
REMARK   12  A    between atoms: C_26  and  C_31
REMARK                            x       y       z     vdW  Elec       q    Type
REMARK                         _______ _______ _______ _____ _____    ______ ____
ROOT
ATOM      1  O   UNL     1      -4.015   2.332  25.777  0.00  0.00    -0.366 OA
ATOM     11  C   UNL     1      -4.584   3.586  26.194  0.00  0.00    +0.159 C 
ATOM     12  C   UNL     1      -5.613   3.943  25.134  0.00  0.00    +0.175 C 
ATOM     13  C   UNL     1      -6.154   2.577  24.766  0.00  0.00    +0.176 C 
ATOM     14  C   UNL     1      -4.899   1.714  24.813  0.00  0.00    +0.167 C 
ENDROOT
BRANCH  12   2
ATOM      2  O   UNL     1      -6.600   4.821  25.630  0.00  0.00    -0.387 OA
ATOM     33  H   UNL     1      -6.507   5.662  25.152  0.00  0.00    +0.210 HD
ENDBRANCH  12   2
BRANCH  13   3
ATOM      3  O   UNL     1      -7.051   2.111  25.774  0.00  0.00    -0.387 OA
ATOM     34  H   UNL     1      -7.875   2.616  25.687  0.00  0.00    +0.210 HD
ENDBRANCH  13   3
BRANCH  11  15
ATOM     15  C   UNL     1      -3.484   4.622  26.338  0.00  0.00    +0.130 C 
BRANCH  15  17
ATOM      4  O   UNL     1      -2.304   3.731  28.191  0.00  0.00    -0.276 OA
ATOM      7  N   UNL     1      -1.177   3.763  26.160  0.00  0.00    -0.298 N 
ATOM      8  N   UNL     1       0.471   2.187  24.499  0.00  0.00    -0.324 N 
ATOM     17  C   UNL     1      -2.273   4.000  26.987  0.00  0.00    +0.218 C 
ATOM     18  C   UNL     1      -1.101   4.068  24.730  0.00  0.00    +0.126 C 
ATOM     19  C   UNL     1       0.047   3.185  26.708  0.00  0.00    +0.126 C 
ATOM     20  C   UNL     1      -0.728   2.819  23.932  0.00  0.00    +0.124 C 
ATOM     21  C   UNL     1       0.437   1.922  25.946  0.00  0.00    +0.124 C 
BRANCH   8  22
ATOM     22  C   UNL     1       1.249   1.341  23.701  0.00  0.00    +0.072 A 
ATOM     24  C   UNL     1       0.801   0.060  23.376  0.00  0.00    +0.141 A 
ATOM     25  C   UNL     1       2.483   1.787  23.229  0.00  0.00    +0.027 A 
ATOM     27  C   UNL     1       1.586  -0.772  22.579  0.00  0.00    +0.047 A 
ATOM     28  C   UNL     1       3.268   0.954  22.432  0.00  0.00    +0.002 A 
ATOM     29  C   UNL     1       2.820  -0.326  22.107  0.00  0.00    +0.004 A 
BRANCH  24   5
ATOM      5  O   UNL     1      -0.402  -0.395  23.828  0.00  0.00    -0.493 OA
ATOM     32  C   UNL     1      -0.386  -1.213  24.996  0.00  0.00    +0.277 C 
ENDBRANCH  24   5
ENDBRANCH   8  22
ENDBRANCH  15  17
ENDBRANCH  11  15
BRANCH  14  16
ATOM     16  C   UNL     1      -4.166   1.655  23.480  0.00  0.00    +0.140 C 
BRANCH  16   9
ATOM      6  O   UNL     1      -4.841  -0.905  24.627  0.00  0.00    -0.253 OA
ATOM      9  N   UNL     1      -3.438   0.429  23.342  0.00  0.00    -0.297 N 
ATOM     10  N   UNL     1      -2.947  -1.808  23.636  0.00  0.00    -0.297 N 
ATOM     23  C   UNL     1      -3.834  -0.776  23.933  0.00  0.00    +0.300 C 
ATOM     35  H   UNL     1      -2.595   0.432  22.776  0.00  0.00    +0.150 HD
ATOM     36  H   UNL     1      -2.185  -1.621  22.992  0.00  0.00    +0.150 HD
BRANCH  10  26
ATOM     26  C   UNL     1      -3.124  -3.157  24.123  0.00  0.00    +0.068 C 
ATOM     30  C   UNL     1      -4.384  -3.773  23.531  0.00  0.00    +0.027 C 
ATOM     31  C   UNL     1      -3.164  -3.175  25.645  0.00  0.00    +0.027 C 
ENDBRANCH  10  26
ENDBRANCH  16   9
ENDBRANCH  14  16
TORSDOF 9
ENDMDL
MODEL 4
REMARK VINA RESULT:       4.9      2.206      7.102
REMARK  Name = 40778215
REMARK  12 active torsions:
REMARK  status: ('A' for Active; 'I' for Inactive)
REMARK    1  A    between atoms: O_2  and  C_12
REMARK    2  A    between atoms: O_3  and  C_13
REMARK    3  A    between atoms: O_5  and  C_24
REMARK    4  A    between atoms: O_5  and  C_32
REMARK    5  A    between atoms: N_8  and  C_22
REMARK    6  A    between atoms: N_9  and  C_16
REMARK    7  A    between atoms: N_10  and  C_26
REMARK    8  A    between atoms: C_11  and  C_15
REMARK    9  A    between atoms: C_14  and  C_16
REMARK   10  A    between atoms: C_15  and  C_17
REMARK   11  A    between atoms: C_26  and  C_30
REMARK   12  A    between atoms: C_26  and  C_31
REMARK                            x       y       z     vdW  Elec       q    Type
REMARK                         _______ _______ _______ _____ _____    ______ ____
ROOT
ATOM      1  O   UNL     1      -4.084   2.176  26.079  0.00  0.00    -0.366 OA
ATOM     11  C   UNL     1      -4.464   3.545  26.305  0.00  0.00    +0.159 C 
ATOM     12  C   UNL     1      -5.619   3.814  25.355  0.00  0.00    +0.175 C 
ATOM     13  C   UNL     1      -6.331   2.477  25.359  0.00  0.00    +0.176 C 
ATOM     14  C   UNL     1      -5.166   1.496  25.401  0.00  0.00    +0.167 C 
ENDROOT
BRANCH  12   2
ATOM      2  O   UNL     1      -6.431   4.882  25.795  0.00  0.00    -0.387 OA
ATOM     33  H   UNL     1      -6.403   5.570  25.110  0.00  0.00    +0.210 HD
ENDBRANCH  12   2
BRANCH  13   3
ATOM      3  O   UNL     1      -7.086   2.321  26.560  0.00  0.00    -0.387 OA
ATOM     34  H   UNL     1      -7.239   1.370  26.685  0.00  0.00    +0.210 HD
ENDBRANCH  13   3
BRANCH  11  15
ATOM     15  C   UNL     1      -3.269   4.453  26.072  0.00  0.00    +0.130 C 
BRANCH  15  17
ATOM      4  O   UNL     1      -1.880   3.581  27.783  0.00  0.00    -0.276 OA
ATOM      7  N   UNL     1      -1.067   3.439  25.612  0.00  0.00    -0.298 N 
ATOM      8  N   UNL     1       0.225   1.678  23.825  0.00  0.00    -0.324 N 
ATOM     17  C   UNL     1      -2.013   3.786  26.574  0.00  0.00    +0.218 C 
ATOM     18  C   UNL     1      -1.187   3.666  24.171  0.00  0.00    +0.126 C 
ATOM     19  C   UNL     1       0.190   2.811  26.010  0.00  0.00    +0.126 C 
ATOM     20  C   UNL     1      -1.008   2.357  23.402  0.00  0.00    +0.124 C 
ATOM     21  C   UNL     1       0.391   1.488  25.275  0.00  0.00    +0.124 C 
BRANCH   8  22
ATOM     22  C   UNL     1       0.827   0.744  22.974  0.00  0.00    +0.072 A 
ATOM     24  C   UNL     1       2.212   0.725  22.807  0.00  0.00    +0.141 A 
ATOM     25  C   UNL     1       0.030  -0.174  22.291  0.00  0.00    +0.027 A 
ATOM     27  C   UNL     1       2.798  -0.212  21.957  0.00  0.00    +0.047 A 
ATOM     28  C   UNL     1       0.616  -1.111  21.441  0.00  0.00    +0.002 A 
ATOM     29  C   UNL     1       2.001  -1.130  21.274  0.00  0.00    +0.004 A 
BRANCH  24   5
ATOM      5  O   UNL     1       3.009   1.614  23.464  0.00  0.00    -0.493 OA
ATOM     32  C   UNL     1       4.413   1.366  23.439  0.00  0.00    +0.277 C 
ENDBRANCH  24   5
ENDBRANCH   8  22
ENDBRANCH  15  17
ENDBRANCH  11  15
BRANCH  14  16
ATOM     16  C   UNL     1      -4.670   1.098  24.017  0.00  0.00    +0.140 C 
BRANCH  16   9
ATOM      6  O   UNL     1      -4.051  -1.573  24.919  0.00  0.00    -0.253 OA
ATOM      9  N   UNL     1      -3.375   0.488  24.086  0.00  0.00    -0.297 N 
ATOM     10  N   UNL     1      -1.808  -1.156  24.499  0.00  0.00    -0.297 N 
ATOM     23  C   UNL     1      -3.158  -0.818  24.537  0.00  0.00    +0.300 C 
ATOM     35  H   UNL     1      -2.573   1.031  23.781  0.00  0.00    +0.150 HD
ATOM     36  H   UNL     1      -1.154  -0.491  24.096  0.00  0.00    +0.150 HD
BRANCH  10  26
ATOM     26  C   UNL     1      -1.312  -2.448  24.912  0.00  0.00    +0.068 C 
ATOM     30  C   UNL     1       0.162  -2.356  25.284  0.00  0.00    +0.027 C 
ATOM     31  C   UNL     1      -1.541  -3.483  23.818  0.00  0.00    +0.027 C 
ENDBRANCH  10  26
ENDBRANCH  16   9
ENDBRANCH  14  16
TORSDOF 9
ENDMDL
MODEL 5
REMARK VINA RESULT:       5.0      2.279      6.103
REMARK  Name = 40778215
REMARK  12 active torsions:
REMARK  status: ('A' for Active; 'I' for Inactive)
REMARK    1  A    between atoms: O_2  and  C_12
REMARK    2  A    between atoms: O_3  and  C_13
REMARK    3  A    between atoms: O_5  and  C_24
REMARK    4  A    between atoms: O_5  and  C_32
REMARK    5  A    between atoms: N_8  and  C_22
REMARK    6  A    between atoms: N_9  and  C_16
REMARK    7  A    between atoms: N_10  and  C_26
REMARK    8  A    between atoms: C_11  and  C_15
REMARK    9  A    between atoms: C_14  and  C_16
REMARK   10  A    between atoms: C_15  and  C_17
REMARK   11  A    between atoms: C_26  and  C_30
REMARK   12  A    between atoms: C_26  and  C_31
REMARK                            x       y       z     vdW  Elec       q    Type
REMARK                         _______ _______ _______ _____ _____    ______ ____
ROOT
ATOM      1  O   UNL     1      -3.257   2.429  23.349  0.00  0.00    -0.366 OA
ATOM     11  C   UNL     1      -3.943   1.242  23.785  0.00  0.00    +0.159 C 
ATOM     12  C   UNL     1      -3.750   1.186  25.292  0.00  0.00    +0.175 C 
ATOM     13  C   UNL     1      -3.789   2.656  25.656  0.00  0.00    +0.176 C 
ATOM     14  C   UNL     1      -3.044   3.293  24.490  0.00  0.00    +0.167 C 
ENDROOT
BRANCH  12   2
ATOM      2  O   UNL     1      -4.755   0.425  25.927  0.00  0.00    -0.387 OA
ATOM     33  H   UNL     1      -4.363  -0.430  26.169  0.00  0.00    +0.210 HD
ENDBRANCH  12   2
BRANCH  13   3
ATOM      3  O   UNL     1      -5.133   3.136  25.639  0.00  0.00    -0.387 OA
ATOM     34  H   UNL     1      -5.532   2.852  24.800  0.00  0.00    +0.210 HD
ENDBRANCH  13   3
BRANCH  11  15
ATOM     15  C   UNL     1      -3.380   0.032  23.061  0.00  0.00    +0.130 C 
BRANCH  15  17
ATOM      4  O   UNL     1      -3.147  -1.815  24.529  0.00  0.00    -0.276 OA
ATOM      7  N   UNL     1      -1.291  -0.440  24.288  0.00  0.00    -0.298 N 
ATOM      8  N   UNL     1       1.507  -0.512  23.938  0.00  0.00    -0.324 N 
ATOM     17  C   UNL     1      -2.603  -0.828  24.026  0.00  0.00    +0.218 C 
ATOM     18  C   UNL     1      -0.611   0.723  23.713  0.00  0.00    +0.126 C 
ATOM     19  C   UNL     1      -0.473  -1.200  25.228  0.00  0.00    +0.126 C 
ATOM     20  C   UNL     1       0.689   0.302  23.029  0.00  0.00    +0.124 C 
ATOM     21  C   UNL     1       0.827  -1.655  24.568  0.00  0.00    +0.124 C 
BRANCH   8  22
ATOM     22  C   UNL     1       2.886  -0.615  23.722  0.00  0.00    +0.072 A 
ATOM     24  C   UNL     1       3.620   0.485  23.277  0.00  0.00    +0.141 A 
ATOM     25  C   UNL     1       3.527  -1.831  23.956  0.00  0.00    +0.027 A 
ATOM     27  C   UNL     1       4.994   0.368  23.067  0.00  0.00    +0.047 A 
ATOM     28  C   UNL     1       4.901  -1.948  23.746  0.00  0.00    +0.002 A 
ATOM     29  C   UNL     1       5.634  -0.848  23.302  0.00  0.00    +0.004 A 
BRANCH  24   5
ATOM      5  O   UNL     1       3.013   1.682  23.041  0.00  0.00    -0.493 OA
ATOM     32  C   UNL     1       3.707   2.606  22.205  0.00  0.00    +0.277 C 
ENDBRANCH  24   5
ENDBRANCH   8  22
ENDBRANCH  15  17
ENDBRANCH  11  15
BRANCH  14  16
ATOM     16  C   UNL     1      -1.542   3.393  24.724  0.00  0.00    +0.140 C 
BRANCH  16   9
ATOM      6  O   UNL     1       0.954   2.469  25.838  0.00  0.00    -0.253 OA
ATOM      9  N   UNL     1      -1.222   3.234  26.112  0.00  0.00    -0.297 N 
ATOM     10  N   UNL     1       0.058   2.719  27.963  0.00  0.00    -0.297 N 
ATOM     23  C   UNL     1       0.018   2.778  26.572  0.00  0.00    +0.300 C 
ATOM     35  H   UNL     1      -1.931   3.475  26.797  0.00  0.00    +0.150 HD
ATOM     36  H   UNL     1      -0.741   3.067  28.484  0.00  0.00    +0.150 HD
BRANCH  10  26
ATOM     26  C   UNL     1       1.223   2.281  28.694  0.00  0.00    +0.068 C 
ATOM     30  C   UNL     1       0.934   2.259  30.189  0.00  0.00    +0.027 C 
ATOM     31  C   UNL     1       2.419   3.169  28.377  0.00  0.00    +0.027 C 
ENDBRANCH  10  26
ENDBRANCH  16   9
ENDBRANCH  14  16
TORSDOF 9
ENDMDL
MODEL 6
REMARK VINA RESULT:       5.0      2.495      7.531
REMARK  Name = 40778215
REMARK  12 active torsions:
REMARK  status: ('A' for Active; 'I' for Inactive)
REMARK    1  A    between atoms: O_2  and  C_12
REMARK    2  A    between atoms: O_3  and  C_13
REMARK    3  A    between atoms: O_5  and  C_24
REMARK    4  A    between atoms: O_5  and  C_32
REMARK    5  A    between atoms: N_8  and  C_22
REMARK    6  A    between atoms: N_9  and  C_16
REMARK    7  A    between atoms: N_10  and  C_26
REMARK    8  A    between atoms: C_11  and  C_15
REMARK    9  A    between atoms: C_14  and  C_16
REMARK   10  A    between atoms: C_15  and  C_17
REMARK   11  A    between atoms: C_26  and  C_30
REMARK   12  A    between atoms: C_26  and  C_31
REMARK                            x       y       z     vdW  Elec       q    Type
REMARK                         _______ _______ _______ _____ _____    ______ ____
ROOT
ATOM      1  O   UNL     1      -4.912   2.895  26.906  0.00  0.00    -0.366 OA
ATOM     11  C   UNL     1      -4.045   3.886  26.327  0.00  0.00    +0.159 C 
ATOM     12  C   UNL     1      -4.457   3.992  24.868  0.00  0.00    +0.175 C 
ATOM     13  C   UNL     1      -5.955   3.784  24.961  0.00  0.00    +0.176 C 
ATOM     14  C   UNL     1      -6.061   2.718  26.045  0.00  0.00    +0.167 C 
ENDROOT
BRANCH  12   2
ATOM      2  O   UNL     1      -4.099   5.235  24.305  0.00  0.00    -0.387 OA
ATOM     33  H   UNL     1      -3.362   5.075  23.692  0.00  0.00    +0.210 HD
ENDBRANCH  12   2
BRANCH  13   3
ATOM      3  O   UNL     1      -6.591   4.968  25.441  0.00  0.00    -0.387 OA
ATOM     34  H   UNL     1      -5.957   5.426  26.016  0.00  0.00    +0.210 HD
ENDBRANCH  13   3
BRANCH  11  15
ATOM     15  C   UNL     1      -2.597   3.470  26.515  0.00  0.00    +0.130 C 
BRANCH  15  17
ATOM      4  O   UNL     1      -1.665   5.347  25.406  0.00  0.00    -0.276 OA
ATOM      7  N   UNL     1      -1.062   3.256  24.594  0.00  0.00    -0.298 N 
ATOM      8  N   UNL     1       1.161   1.768  23.697  0.00  0.00    -0.324 N 
ATOM     17  C   UNL     1      -1.736   4.116  25.458  0.00  0.00    +0.218 C 
ATOM     18  C   UNL     1      -1.121   1.793  24.623  0.00  0.00    +0.126 C 
ATOM     19  C   UNL     1      -0.225   3.794  23.525  0.00  0.00    +0.126 C 
ATOM     20  C   UNL     1       0.283   1.200  24.730  0.00  0.00    +0.124 C 
ATOM     21  C   UNL     1       1.193   3.237  23.616  0.00  0.00    +0.124 C 
BRANCH   8  22
ATOM     22  C   UNL     1       2.309   1.070  23.305  0.00  0.00    +0.072 A 
ATOM     24  C   UNL     1       2.206  -0.165  22.665  0.00  0.00    +0.141 A 
ATOM     25  C   UNL     1       3.565   1.620  23.559  0.00  0.00    +0.027 A 
ATOM     27  C   UNL     1       3.358  -0.848  22.278  0.00  0.00    +0.047 A 
ATOM     28  C   UNL     1       4.717   0.937  23.173  0.00  0.00    +0.002 A 
ATOM     29  C   UNL     1       4.614  -0.298  22.533  0.00  0.00    +0.004 A 
BRANCH  24   5
ATOM      5  O   UNL     1       0.988  -0.720  22.408  0.00  0.00    -0.493 OA
ATOM     32  C   UNL     1       0.574  -0.770  21.044  0.00  0.00    +0.277 C 
ENDBRANCH  24   5
ENDBRANCH   8  22
ENDBRANCH  15  17
ENDBRANCH  11  15
BRANCH  14  16
ATOM     16  C   UNL     1      -6.015   1.299  25.494  0.00  0.00    +0.140 C 
BRANCH  16   9
ATOM      6  O   UNL     1      -4.726  -0.729  23.896  0.00  0.00    -0.253 OA
ATOM      9  N   UNL     1      -4.740   0.691  25.735  0.00  0.00    -0.297 N 
ATOM     10  N   UNL     1      -2.938  -0.707  25.373  0.00  0.00    -0.297 N 
ATOM     23  C   UNL     1      -4.183  -0.291  24.908  0.00  0.00    +0.300 C 
ATOM     35  H   UNL     1      -4.208   0.997  26.543  0.00  0.00    +0.150 HD
ATOM     36  H   UNL     1      -2.539  -0.231  26.177  0.00  0.00    +0.150 HD
BRANCH  10  26
ATOM     26  C   UNL     1      -2.148  -1.713  24.703  0.00  0.00    +0.068 C 
ATOM     30  C   UNL     1      -2.904  -3.033  24.650  0.00  0.00    +0.027 C 
ATOM     31  C   UNL     1      -0.798  -1.877  25.389  0.00  0.00    +0.027 C 
ENDBRANCH  10  26
ENDBRANCH  16   9
ENDBRANCH  14  16
TORSDOF 9
ENDMDL
MODEL 7
REMARK VINA RESULT:       5.8      1.927      5.095
REMARK  Name = 40778215
REMARK  12 active torsions:
REMARK  status: ('A' for Active; 'I' for Inactive)
REMARK    1  A    between atoms: O_2  and  C_12
REMARK    2  A    between atoms: O_3  and  C_13
REMARK    3  A    between atoms: O_5  and  C_24
REMARK    4  A    between atoms: O_5  and  C_32
REMARK    5  A    between atoms: N_8  and  C_22
REMARK    6  A    between atoms: N_9  and  C_16
REMARK    7  A    between atoms: N_10  and  C_26
REMARK    8  A    between atoms: C_11  and  C_15
REMARK    9  A    between atoms: C_14  and  C_16
REMARK   10  A    between atoms: C_15  and  C_17
REMARK   11  A    between atoms: C_26  and  C_30
REMARK   12  A    between atoms: C_26  and  C_31
REMARK                            x       y       z     vdW  Elec       q    Type
REMARK                         _______ _______ _______ _____ _____    ______ ____
ROOT
ATOM      1  O   UNL     1      -2.166   3.292  24.005  0.00  0.00    -0.366 OA
ATOM     11  C   UNL     1      -2.194   4.612  24.576  0.00  0.00    +0.159 C 
ATOM     12  C   UNL     1      -0.782   4.877  25.072  0.00  0.00    +0.175 C 
ATOM     13  C   UNL     1       0.045   4.169  24.018  0.00  0.00    +0.176 C 
ATOM     14  C   UNL     1      -0.792   2.927  23.737  0.00  0.00    +0.167 C 
ENDROOT
BRANCH  12   2
ATOM      2  O   UNL     1      -0.504   6.257  25.168  0.00  0.00    -0.387 OA
ATOM     33  H   UNL     1       0.441   6.377  24.978  0.00  0.00    +0.210 HD
ENDBRANCH  12   2
BRANCH  13   3
ATOM      3  O   UNL     1       0.098   4.948  22.823  0.00  0.00    -0.387 OA
ATOM     34  H   UNL     1       1.034   5.070  22.597  0.00  0.00    +0.210 HD
ENDBRANCH  13   3
BRANCH  11  15
ATOM     15  C   UNL     1      -3.239   4.671  25.676  0.00  0.00    +0.130 C 
BRANCH  15  17
ATOM      4  O   UNL     1      -5.419   4.416  24.781  0.00  0.00    -0.276 OA
ATOM      7  N   UNL     1      -4.369   2.482  25.523  0.00  0.00    -0.298 N 
ATOM      8  N   UNL     1      -3.890  -0.207  24.816  0.00  0.00    -0.324 N 
ATOM     17  C   UNL     1      -4.444   3.853  25.284  0.00  0.00    +0.218 C 
ATOM     18  C   UNL     1      -3.232   1.777  26.118  0.00  0.00    +0.126 C 
ATOM     19  C   UNL     1      -5.499   1.616  25.197  0.00  0.00    +0.126 C 
ATOM     20  C   UNL     1      -2.759   0.649  25.202  0.00  0.00    +0.124 C 
ATOM     21  C   UNL     1      -5.064   0.488  24.265  0.00  0.00    +0.124 C 
BRANCH   8  22
ATOM     22  C   UNL     1      -3.650  -1.518  24.388  0.00  0.00    +0.072 A 
ATOM     24  C   UNL     1      -2.373  -2.071  24.473  0.00  0.00    +0.141 A 
ATOM     25  C   UNL     1      -4.704  -2.273  23.872  0.00  0.00    +0.027 A 
ATOM     27  C   UNL     1      -2.149  -3.379  24.044  0.00  0.00    +0.047 A 
ATOM     28  C   UNL     1      -4.480  -3.581  23.443  0.00  0.00    +0.002 A 
ATOM     29  C   UNL     1      -3.202  -4.134  23.529  0.00  0.00    +0.004 A 
BRANCH  24   5
ATOM      5  O   UNL     1      -1.330  -1.349  24.973  0.00  0.00    -0.493 OA
ATOM     32  C   UNL     1      -0.180  -2.081  25.393  0.00  0.00    +0.277 C 
ENDBRANCH  24   5
ENDBRANCH   8  22
ENDBRANCH  15  17
ENDBRANCH  11  15
BRANCH  14  16
ATOM     16  C   UNL     1      -0.438   1.753  24.640  0.00  0.00    +0.140 C 
BRANCH  16   9
ATOM      6  O   UNL     1      -0.605   2.472  27.430  0.00  0.00    -0.253 OA
ATOM      9  N   UNL     1       0.650   2.080  25.514  0.00  0.00    -0.297 N 
ATOM     10  N   UNL     1       1.704   2.690  27.475  0.00  0.00    -0.297 N 
ATOM     23  C   UNL     1       0.484   2.420  26.861  0.00  0.00    +0.300 C 
ATOM     35  H   UNL     1       1.592   2.053  25.138  0.00  0.00    +0.150 HD
ATOM     36  H   UNL     1       2.556   2.546  26.942  0.00  0.00    +0.150 HD
BRANCH  10  26
ATOM     26  C   UNL     1       1.814   3.065  28.866  0.00  0.00    +0.068 C 
ATOM     30  C   UNL     1       3.113   3.822  29.109  0.00  0.00    +0.027 C 
ATOM     31  C   UNL     1       1.715   1.837  29.761  0.00  0.00    +0.027 C 
ENDBRANCH  10  26
ENDBRANCH  16   9
ENDBRANCH  14  16
TORSDOF 9
ENDMDL
MODEL 8
REMARK VINA RESULT:       6.1      2.704      7.387
REMARK  Name = 40778215
REMARK  12 active torsions:
REMARK  status: ('A' for Active; 'I' for Inactive)
REMARK    1  A    between atoms: O_2  and  C_12
REMARK    2  A    between atoms: O_3  and  C_13
REMARK    3  A    between atoms: O_5  and  C_24
REMARK    4  A    between atoms: O_5  and  C_32
REMARK    5  A    between atoms: N_8  and  C_22
REMARK    6  A    between atoms: N_9  and  C_16
REMARK    7  A    between atoms: N_10  and  C_26
REMARK    8  A    between atoms: C_11  and  C_15
REMARK    9  A    between atoms: C_14  and  C_16
REMARK   10  A    between atoms: C_15  and  C_17
REMARK   11  A    between atoms: C_26  and  C_30
REMARK   12  A    between atoms: C_26  and  C_31
REMARK                            x       y       z     vdW  Elec       q    Type
REMARK                         _______ _______ _______ _____ _____    ______ ____
ROOT
ATOM      1  O   UNL     1      -3.732   1.635  25.457  0.00  0.00    -0.366 OA
ATOM     11  C   UNL     1      -3.693   3.065  25.304  0.00  0.00    +0.159 C 
ATOM     12  C   UNL     1      -5.094   3.472  24.877  0.00  0.00    +0.175 C 
ATOM     13  C   UNL     1      -5.944   2.488  25.654  0.00  0.00    +0.176 C 
ATOM     14  C   UNL     1      -5.111   1.214  25.573  0.00  0.00    +0.167 C 
ENDROOT
BRANCH  12   2
ATOM      2  O   UNL     1      -5.372   4.820  25.189  0.00  0.00    -0.387 OA
ATOM     33  H   UNL     1      -6.328   4.890  25.347  0.00  0.00    +0.210 HD
ENDBRANCH  12   2
BRANCH  13   3
ATOM      3  O   UNL     1      -6.026   2.877  27.025  0.00  0.00    -0.387 OA
ATOM     34  H   UNL     1      -5.117   2.973  27.354  0.00  0.00    +0.210 HD
ENDBRANCH  13   3
BRANCH  11  15
ATOM     15  C   UNL     1      -2.623   3.442  24.295  0.00  0.00    +0.130 C 
BRANCH  15  17
ATOM      4  O   UNL     1      -3.050   2.135  22.364  0.00  0.00    -0.276 OA
ATOM      7  N   UNL     1      -1.311   1.429  23.732  0.00  0.00    -0.298 N 
ATOM      8  N   UNL     1       1.342   0.472  23.652  0.00  0.00    -0.324 N 
ATOM     17  C   UNL     1      -2.354   2.280  23.373  0.00  0.00    +0.218 C 
ATOM     18  C   UNL     1      -0.464   1.566  24.919  0.00  0.00    +0.126 C 
ATOM     19  C   UNL     1      -0.996   0.264  22.910  0.00  0.00    +0.126 C 
ATOM     20  C   UNL     1       1.012   1.607  24.525  0.00  0.00    +0.124 C 
ATOM     21  C   UNL     1       0.469   0.285  22.482  0.00  0.00    +0.124 C 
BRANCH   8  22
ATOM     22  C   UNL     1       2.670   0.044  23.547  0.00  0.00    +0.072 A 
ATOM     24  C   UNL     1       3.670   0.923  23.131  0.00  0.00    +0.141 A 
ATOM     25  C   UNL     1       2.991  -1.276  23.864  0.00  0.00    +0.027 A 
ATOM     27  C   UNL     1       4.989   0.483  23.032  0.00  0.00    +0.047 A 
ATOM     28  C   UNL     1       4.311  -1.716  23.766  0.00  0.00    +0.002 A 
ATOM     29  C   UNL     1       5.310  -0.837  23.349  0.00  0.00    +0.004 A 
BRANCH  24   5
ATOM      5  O   UNL     1       3.377   2.216  22.815  0.00  0.00    -0.493 OA
ATOM     32  C   UNL     1       4.201   2.845  21.835  0.00  0.00    +0.277 C 
ENDBRANCH  24   5
ENDBRANCH   8  22
ENDBRANCH  15  17
ENDBRANCH  11  15
BRANCH  14  16
ATOM     16  C   UNL     1      -5.442   0.362  24.355  0.00  0.00    +0.140 C 
BRANCH  16   9
ATOM      6  O   UNL     1      -3.890  -1.534  25.881  0.00  0.00    -0.253 OA
ATOM      9  N   UNL     1      -4.294  -0.373  23.909  0.00  0.00    -0.297 N 
ATOM     10  N   UNL     1      -2.525  -1.851  24.032  0.00  0.00    -0.297 N 
ATOM     23  C   UNL     1      -3.594  -1.278  24.715  0.00  0.00    +0.300 C 
ATOM     35  H   UNL     1      -3.980  -0.237  22.954  0.00  0.00    +0.150 HD
ATOM     36  H   UNL     1      -2.407  -1.632  23.047  0.00  0.00    +0.150 HD
BRANCH  10  26
ATOM     26  C   UNL     1      -1.639  -2.819  24.635  0.00  0.00    +0.068 C 
ATOM     30  C   UNL     1      -0.508  -2.116  25.373  0.00  0.00    +0.027 C 
ATOM     31  C   UNL     1      -1.100  -3.779  23.583  0.00  0.00    +0.027 C 
ENDBRANCH  10  26
ENDBRANCH  16   9
ENDBRANCH  14  16
TORSDOF 9
ENDMDL
MODEL 9
REMARK VINA RESULT:       6.3      2.342      5.120
REMARK  Name = 40778215
REMARK  12 active torsions:
REMARK  status: ('A' for Active; 'I' for Inactive)
REMARK    1  A    between atoms: O_2  and  C_12
REMARK    2  A    between atoms: O_3  and  C_13
REMARK    3  A    between atoms: O_5  and  C_24
REMARK    4  A    between atoms: O_5  and  C_32
REMARK    5  A    between atoms: N_8  and  C_22
REMARK    6  A    between atoms: N_9  and  C_16
REMARK    7  A    between atoms: N_10  and  C_26
REMARK    8  A    between atoms: C_11  and  C_15
REMARK    9  A    between atoms: C_14  and  C_16
REMARK   10  A    between atoms: C_15  and  C_17
REMARK   11  A    between atoms: C_26  and  C_30
REMARK   12  A    between atoms: C_26  and  C_31
REMARK                            x       y       z     vdW  Elec       q    Type
REMARK                         _______ _______ _______ _____ _____    ______ ____
ROOT
ATOM      1  O   UNL     1      -3.408  -0.395  25.369  0.00  0.00    -0.366 OA
ATOM     11  C   UNL     1      -4.496  -1.218  24.914  0.00  0.00    +0.159 C 
ATOM     12  C   UNL     1      -3.925  -2.073  23.795  0.00  0.00    +0.175 C 
ATOM     13  C   UNL     1      -2.515  -2.318  24.291  0.00  0.00    +0.176 C 
ATOM     14  C   UNL     1      -2.162  -0.975  24.920  0.00  0.00    +0.167 C 
ENDROOT
BRANCH  12   2
ATOM      2  O   UNL     1      -4.665  -3.260  23.604  0.00  0.00    -0.387 OA
ATOM     33  H   UNL     1      -5.388  -3.056  22.988  0.00  0.00    +0.210 HD
ENDBRANCH  12   2
BRANCH  13   3
ATOM      3  O   UNL     1      -2.516  -3.304  25.322  0.00  0.00    -0.387 OA
ATOM     34  H   UNL     1      -2.846  -2.878  26.131  0.00  0.00    +0.210 HD
ENDBRANCH  13   3
BRANCH  11  15
ATOM     15  C   UNL     1      -5.652  -0.339  24.470  0.00  0.00    +0.130 C 
BRANCH  15  17
ATOM      4  O   UNL     1      -6.382   0.777  26.429  0.00  0.00    -0.276 OA
ATOM      7  N   UNL     1      -5.120   2.026  24.932  0.00  0.00    -0.298 N 
ATOM      8  N   UNL     1      -2.994   3.877  24.809  0.00  0.00    -0.324 N 
ATOM     17  C   UNL     1      -5.756   0.866  25.370  0.00  0.00    +0.218 C 
ATOM     18  C   UNL     1      -4.369   2.172  23.684  0.00  0.00    +0.126 C 
ATOM     19  C   UNL     1      -5.189   3.248  25.729  0.00  0.00    +0.126 C 
ATOM     20  C   UNL     1      -2.954   2.677  23.962  0.00  0.00    +0.124 C 
ATOM     21  C   UNL     1      -3.788   3.768  26.043  0.00  0.00    +0.124 C 
BRANCH   8  22
ATOM     22  C   UNL     1      -1.907   4.759  24.811  0.00  0.00    +0.072 A 
ATOM     24  C   UNL     1      -0.603   4.277  24.920  0.00  0.00    +0.141 A 
ATOM     25  C   UNL     1      -2.137   6.130  24.703  0.00  0.00    +0.027 A 
ATOM     27  C   UNL     1       0.471   5.167  24.920  0.00  0.00    +0.047 A 
ATOM     28  C   UNL     1      -1.063   7.019  24.702  0.00  0.00    +0.002 A 
ATOM     29  C   UNL     1       0.242   6.538  24.811  0.00  0.00    +0.004 A 
BRANCH  24   5
ATOM      5  O   UNL     1      -0.356   2.941  25.028  0.00  0.00    -0.493 OA
ATOM     32  C   UNL     1      -0.034   2.446  26.327  0.00  0.00    +0.277 C 
ENDBRANCH  24   5
ENDBRANCH   8  22
ENDBRANCH  15  17
ENDBRANCH  11  15
BRANCH  14  16
ATOM     16  C   UNL     1      -1.524  -0.004  23.936  0.00  0.00    +0.140 C 
BRANCH  16   9
ATOM      6  O   UNL     1       0.585  -0.470  22.021  0.00  0.00    -0.253 OA
ATOM      9  N   UNL     1      -0.113   0.109  24.160  0.00  0.00    -0.297 N 
ATOM     10  N   UNL     1       2.141   0.049  23.662  0.00  0.00    -0.297 N 
ATOM     23  C   UNL     1       0.850  -0.135  23.174  0.00  0.00    +0.300 C 
ATOM     35  H   UNL     1       0.205   0.393  25.082  0.00  0.00    +0.150 HD
ATOM     36  H   UNL     1       2.255   0.401  24.608  0.00  0.00    +0.150 HD
BRANCH  10  26
ATOM     26  C   UNL     1       3.319  -0.138  22.848  0.00  0.00    +0.068 C 
ATOM     30  C   UNL     1       4.303  -1.068  23.545  0.00  0.00    +0.027 C 
ATOM     31  C   UNL     1       3.963   1.202  22.522  0.00  0.00    +0.027 C 
ENDBRANCH  10  26
ENDBRANCH  16   9
ENDBRANCH  14  16
TORSDOF 9
ENDMDL
MODEL 10
REMARK VINA RESULT:       6.4      2.365      6.573
REMARK  Name = 40778215
REMARK  12 active torsions:
REMARK  status: ('A' for Active; 'I' for Inactive)
REMARK    1  A    between atoms: O_2  and  C_12
REMARK    2  A    between atoms: O_3  and  C_13
REMARK    3  A    between atoms: O_5  and  C_24
REMARK    4  A    between atoms: O_5  and  C_32
REMARK    5  A    between atoms: N_8  and  C_22
REMARK    6  A    between atoms: N_9  and  C_16
REMARK    7  A    between atoms: N_10  and  C_26
REMARK    8  A    between atoms: C_11  and  C_15
REMARK    9  A    between atoms: C_14  and  C_16
REMARK   10  A    between atoms: C_15  and  C_17
REMARK   11  A    between atoms: C_26  and  C_30
REMARK   12  A    between atoms: C_26  and  C_31
REMARK                            x       y       z     vdW  Elec       q    Type
REMARK                         _______ _______ _______ _____ _____    ______ ____
ROOT
ATOM      1  O   UNL     1      -6.501   1.709  24.445  0.00  0.00    -0.366 OA
ATOM     11  C   UNL     1      -5.725   0.561  24.832  0.00  0.00    +0.159 C 
ATOM     12  C   UNL     1      -4.993   0.968  26.100  0.00  0.00    +0.175 C 
ATOM     13  C   UNL     1      -6.020   1.858  26.770  0.00  0.00    +0.176 C 
ATOM     14  C   UNL     1      -6.625   2.596  25.581  0.00  0.00    +0.167 C 
ENDROOT
BRANCH  12   2
ATOM      2  O   UNL     1      -4.625  -0.149  26.881  0.00  0.00    -0.387 OA
ATOM     33  H   UNL     1      -3.661  -0.246  26.813  0.00  0.00    +0.210 HD
ENDBRANCH  12   2
BRANCH  13   3
ATOM      3  O   UNL     1      -7.045   1.067  27.369  0.00  0.00    -0.387 OA
ATOM     34  H   UNL     1      -6.610   0.351  27.861  0.00  0.00    +0.210 HD
ENDBRANCH  13   3
BRANCH  11  15
ATOM     15  C   UNL     1      -4.794   0.168  23.699  0.00  0.00    +0.130 C 
BRANCH  15  17
ATOM      4  O   UNL     1      -4.085  -1.968  24.442  0.00  0.00    -0.276 OA
ATOM      7  N   UNL     1      -2.464  -0.306  24.361  0.00  0.00    -0.298 N 
ATOM      8  N   UNL     1       0.200   0.174  23.564  0.00  0.00    -0.324 N 
ATOM     17  C   UNL     1      -3.756  -0.804  24.201  0.00  0.00    +0.218 C 
ATOM     18  C   UNL     1      -2.035   1.066  24.086  0.00  0.00    +0.126 C 
ATOM     19  C   UNL     1      -1.400  -1.170  24.865  0.00  0.00    +0.126 C 
ATOM     20  C   UNL     1      -0.863   1.079  23.105  0.00  0.00    +0.124 C 
ATOM     21  C   UNL     1      -0.221  -1.197  23.897  0.00  0.00    +0.124 C 
BRANCH   8  22
ATOM     22  C   UNL     1       1.510   0.359  23.110  0.00  0.00    +0.072 A 
ATOM     24  C   UNL     1       1.961  -0.288  21.959  0.00  0.00    +0.141 A 
ATOM     25  C   UNL     1       2.368   1.200  23.817  0.00  0.00    +0.027 A 
ATOM     27  C   UNL     1       3.269  -0.093  21.516  0.00  0.00    +0.047 A 
ATOM     28  C   UNL     1       3.676   1.395  23.375  0.00  0.00    +0.002 A 
ATOM     29  C   UNL     1       4.127   0.748  22.224  0.00  0.00    +0.004 A 
BRANCH  24   5
ATOM      5  O   UNL     1       1.139  -1.114  21.253  0.00  0.00    -0.493 OA
ATOM     32  C   UNL     1       0.294  -0.508  20.277  0.00  0.00    +0.277 C 
ENDBRANCH  24   5
ENDBRANCH   8  22
ENDBRANCH  15  17
ENDBRANCH  11  15
BRANCH  14  16
ATOM     16  C   UNL     1      -5.893   3.888  25.246  0.00  0.00    +0.140 C 
BRANCH  16   9
ATOM      6  O   UNL     1      -3.434   3.882  23.735  0.00  0.00    -0.253 OA
ATOM      9  N   UNL     1      -4.558   3.878  25.768  0.00  0.00    -0.297 N 
ATOM     10  N   UNL     1      -2.250   3.867  25.729  0.00  0.00    -0.297 N 
ATOM     23  C   UNL     1      -3.413   3.876  24.964  0.00  0.00    +0.300 C 
ATOM     35  H   UNL     1      -4.438   3.884  26.776  0.00  0.00    +0.150 HD
ATOM     36  H   UNL     1      -2.335   3.940  26.739  0.00  0.00    +0.150 HD
BRANCH  10  26
ATOM     26  C   UNL     1      -0.929   3.863  25.145  0.00  0.00    +0.068 C 
ATOM     30  C   UNL     1       0.054   3.147  26.062  0.00  0.00    +0.027 C 
ATOM     31  C   UNL     1      -0.471   5.285  24.849  0.00  0.00    +0.027 C 
ENDBRANCH  10  26
ENDBRANCH  16   9
ENDBRANCH  14  16
TORSDOF 9
ENDMDL
