MODEL 1
REMARK VINA RESULT:      -3.9      0.000      0.000
REMARK  Name = 38029418
REMARK  14 active torsions:
REMARK  status: ('A' for Active; 'I' for Inactive)
REMARK    1  A    between atoms: O_3  and  C_22
REMARK    2  A    between atoms: O_3  and  C_26
REMARK    3  A    between atoms: N_4  and  C_14
REMARK    4  A    between atoms: N_5  and  C_21
REMARK    5  A    between atoms: C_7  and  C_11
REMARK    6  A    between atoms: C_8  and  C_14
REMARK    7  A    between atoms: C_10  and  C_15
REMARK    8  A    between atoms: C_11  and  C_16
REMARK    9  A    between atoms: C_11  and  C_17
REMARK   10  A    between atoms: C_12  and  C_18
REMARK   11  A    between atoms: C_15  and  C_19
REMARK   12  A    between atoms: C_20  and  C_22
REMARK   13  A    between atoms: C_21  and  C_23
REMARK   14  A    between atoms: C_29  and  C_30
REMARK                            x       y       z     vdW  Elec       q    Type
REMARK                         _______ _______ _______ _____ _____    ______ ____
ROOT
ATOM      7  C   UNL     1      -1.585   0.356  24.744  0.00  0.00    +0.000 C 
ATOM      8  C   UNL     1      -0.460  -0.645  24.380  0.00  0.00    +0.032 C 
ATOM      9  C   UNL     1      -2.529  -0.256  25.789  0.00  0.00    +0.012 C 
ATOM     10  C   UNL     1      -3.179  -1.561  25.293  0.00  0.00    +0.023 C 
ATOM     12  C   UNL     1      -2.161  -2.496  24.671  0.00  0.00    -0.073 C 
ATOM     13  C   UNL     1      -0.946  -2.071  24.280  0.00  0.00    -0.022 C 
ATOM     18  C   UNL     1      -2.555  -3.942  24.548  0.00  0.00    +0.039 C 
ENDROOT
BRANCH   7  11
ATOM     11  C   UNL     1      -1.020   1.680  25.267  0.00  0.00    -0.013 C 
ATOM     16  C   UNL     1      -0.186   1.445  26.522  0.00  0.00    +0.007 C 
ATOM     17  C   UNL     1      -0.191   2.370  24.188  0.00  0.00    +0.007 C 
ENDBRANCH   7  11
BRANCH   8  14
ATOM     14  C   UNL     1       0.231  -0.249  23.069  0.00  0.00    +0.112 C 
BRANCH  14   4
ATOM      2  O   UNL     1       2.462  -0.169  21.230  0.00  0.00    -0.273 OA
ATOM      4  N   UNL     1       1.539   0.269  23.321  0.00  0.00    -0.313 N 
ATOM     20  C   UNL     1       2.561   0.268  22.373  0.00  0.00    +0.239 C 
ATOM     31  H   UNL     1       1.715   0.709  24.220  0.00  0.00    +0.149 HD
BRANCH  20  22
ATOM     22  C   UNL     1       3.840   0.878  22.908  0.00  0.00    +0.255 C 
BRANCH  22   3
ATOM      3  O   UNL     1       4.900  -0.052  22.848  0.00  0.00    -0.374 OA
ATOM     26  C   UNL     1       5.444  -0.323  24.135  0.00  0.00    +0.194 C 
ENDBRANCH  22   3
ENDBRANCH  20  22
ENDBRANCH  14   4
ENDBRANCH   8  14
BRANCH  10  15
ATOM     15  C   UNL     1      -4.326  -1.273  24.318  0.00  0.00    +0.103 C 
BRANCH  15  19
ATOM      1  O   UNL     1      -3.975   0.880  23.270  0.00  0.00    -0.276 OA
ATOM      5  N   UNL     1      -5.471   0.699  25.040  0.00  0.00    -0.311 N 
ATOM     19  C   UNL     1      -4.548   0.211  24.126  0.00  0.00    +0.214 C 
ATOM     32  H   UNL     1      -5.894   0.065  25.711  0.00  0.00    +0.149 HD
BRANCH   5  21
ATOM     21  C   UNL     1      -5.874   2.085  25.090  0.00  0.00    +0.139 C 
BRANCH  21  23
ATOM     23  C   UNL     1      -4.696   3.015  25.057  0.00  0.00    -0.030 A 
ATOM     24  C   UNL     1      -4.034   3.343  26.239  0.00  0.00    +0.006 A 
ATOM     25  C   UNL     1      -4.264   3.550  23.844  0.00  0.00    +0.006 A 
ATOM     27  C   UNL     1      -2.938   4.207  26.209  0.00  0.00    +0.019 A 
ATOM     28  C   UNL     1      -3.169   4.414  23.813  0.00  0.00    +0.019 A 
ATOM     29  C   UNL     1      -2.506   4.742  24.996  0.00  0.00    +0.052 A 
BRANCH  29  30
ATOM      6  N   UNL     1      -0.473   6.344  24.939  0.00  0.00    -0.191 NA
ATOM     30  C   UNL     1      -1.384   5.626  24.964  0.00  0.00    +0.099 C 
ENDBRANCH  29  30
ENDBRANCH  21  23
ENDBRANCH   5  21
ENDBRANCH  15  19
ENDBRANCH  10  15
TORSDOF 10
ENDMDL
MODEL 2
REMARK VINA RESULT:      -2.2      2.368      5.548
REMARK  Name = 38029418
REMARK  14 active torsions:
REMARK  status: ('A' for Active; 'I' for Inactive)
REMARK    1  A    between atoms: O_3  and  C_22
REMARK    2  A    between atoms: O_3  and  C_26
REMARK    3  A    between atoms: N_4  and  C_14
REMARK    4  A    between atoms: N_5  and  C_21
REMARK    5  A    between atoms: C_7  and  C_11
REMARK    6  A    between atoms: C_8  and  C_14
REMARK    7  A    between atoms: C_10  and  C_15
REMARK    8  A    between atoms: C_11  and  C_16
REMARK    9  A    between atoms: C_11  and  C_17
REMARK   10  A    between atoms: C_12  and  C_18
REMARK   11  A    between atoms: C_15  and  C_19
REMARK   12  A    between atoms: C_20  and  C_22
REMARK   13  A    between atoms: C_21  and  C_23
REMARK   14  A    between atoms: C_29  and  C_30
REMARK                            x       y       z     vdW  Elec       q    Type
REMARK                         _______ _______ _______ _____ _____    ______ ____
ROOT
ATOM      7  C   UNL     1      -3.547   2.476  24.003  0.00  0.00    +0.000 C 
ATOM      8  C   UNL     1      -4.075   3.695  24.800  0.00  0.00    +0.032 C 
ATOM      9  C   UNL     1      -4.689   1.489  23.714  0.00  0.00    +0.012 C 
ATOM     10  C   UNL     1      -5.355   0.977  25.006  0.00  0.00    +0.023 C 
ATOM     12  C   UNL     1      -5.664   2.108  25.967  0.00  0.00    -0.073 C 
ATOM     13  C   UNL     1      -5.091   3.319  25.851  0.00  0.00    -0.022 C 
ATOM     18  C   UNL     1      -6.680   1.827  27.038  0.00  0.00    +0.039 C 
ENDROOT
BRANCH   7  11
ATOM     11  C   UNL     1      -2.885   2.900  22.688  0.00  0.00    -0.013 C 
ATOM     16  C   UNL     1      -2.276   1.691  21.985  0.00  0.00    +0.007 C 
ATOM     17  C   UNL     1      -3.895   3.600  21.784  0.00  0.00    +0.007 C 
ENDBRANCH   7  11
BRANCH   8  14
ATOM     14  C   UNL     1      -2.923   4.468  25.456  0.00  0.00    +0.112 C 
BRANCH  14   4
ATOM      2  O   UNL     1      -0.185   3.723  24.895  0.00  0.00    -0.273 OA
ATOM      4  N   UNL     1      -2.094   3.589  26.220  0.00  0.00    -0.313 N 
ATOM     20  C   UNL     1      -0.778   3.283  25.876  0.00  0.00    +0.239 C 
ATOM     31  H   UNL     1      -2.466   3.212  27.087  0.00  0.00    +0.149 HD
BRANCH  20  22
ATOM     22  C   UNL     1      -0.136   2.329  26.861  0.00  0.00    +0.255 C 
BRANCH  22   3
ATOM      3  O   UNL     1       1.162   2.765  27.204  0.00  0.00    -0.374 OA
ATOM     26  C   UNL     1       1.442   2.568  28.586  0.00  0.00    +0.194 C 
ENDBRANCH  22   3
ENDBRANCH  20  22
ENDBRANCH  14   4
ENDBRANCH   8  14
BRANCH  10  15
ATOM     15  C   UNL     1      -4.497  -0.098  25.682  0.00  0.00    +0.103 C 
BRANCH  15  19
ATOM      1  O   UNL     1      -4.510  -1.823  23.984  0.00  0.00    -0.276 OA
ATOM      5  N   UNL     1      -2.489  -0.891  24.654  0.00  0.00    -0.311 N 
ATOM     19  C   UNL     1      -3.868  -1.037  24.677  0.00  0.00    +0.214 C 
ATOM     32  H   UNL     1      -2.047  -0.211  25.265  0.00  0.00    +0.149 HD
BRANCH   5  21
ATOM     21  C   UNL     1      -1.628  -1.663  23.788  0.00  0.00    +0.139 C 
BRANCH  21  23
ATOM     23  C   UNL     1      -0.340  -0.950  23.494  0.00  0.00    -0.030 A 
ATOM     24  C   UNL     1       0.118   0.046  24.356  0.00  0.00    +0.006 A 
ATOM     25  C   UNL     1       0.397  -1.282  22.358  0.00  0.00    +0.006 A 
ATOM     27  C   UNL     1       1.315   0.709  24.083  0.00  0.00    +0.019 A 
ATOM     28  C   UNL     1       1.593  -0.619  22.085  0.00  0.00    +0.019 A 
ATOM     29  C   UNL     1       2.052   0.377  22.947  0.00  0.00    +0.052 A 
BRANCH  29  30
ATOM      6  N   UNL     1       4.273   1.608  22.439  0.00  0.00    -0.191 NA
ATOM     30  C   UNL     1       3.277   1.056  22.667  0.00  0.00    +0.099 C 
ENDBRANCH  29  30
ENDBRANCH  21  23
ENDBRANCH   5  21
ENDBRANCH  15  19
ENDBRANCH  10  15
TORSDOF 10
ENDMDL
MODEL 3
REMARK VINA RESULT:      -2.2      2.356      6.742
REMARK  Name = 38029418
REMARK  14 active torsions:
REMARK  status: ('A' for Active; 'I' for Inactive)
REMARK    1  A    between atoms: O_3  and  C_22
REMARK    2  A    between atoms: O_3  and  C_26
REMARK    3  A    between atoms: N_4  and  C_14
REMARK    4  A    between atoms: N_5  and  C_21
REMARK    5  A    between atoms: C_7  and  C_11
REMARK    6  A    between atoms: C_8  and  C_14
REMARK    7  A    between atoms: C_10  and  C_15
REMARK    8  A    between atoms: C_11  and  C_16
REMARK    9  A    between atoms: C_11  and  C_17
REMARK   10  A    between atoms: C_12  and  C_18
REMARK   11  A    between atoms: C_15  and  C_19
REMARK   12  A    between atoms: C_20  and  C_22
REMARK   13  A    between atoms: C_21  and  C_23
REMARK   14  A    between atoms: C_29  and  C_30
REMARK                            x       y       z     vdW  Elec       q    Type
REMARK                         _______ _______ _______ _____ _____    ______ ____
ROOT
ATOM      7  C   UNL     1      -4.014   2.536  25.280  0.00  0.00    +0.000 C 
ATOM      8  C   UNL     1      -4.551   1.393  24.382  0.00  0.00    +0.032 C 
ATOM      9  C   UNL     1      -3.467   3.683  24.418  0.00  0.00    +0.012 C 
ATOM     10  C   UNL     1      -2.330   3.220  23.487  0.00  0.00    +0.023 C 
ATOM     12  C   UNL     1      -2.684   1.937  22.761  0.00  0.00    -0.073 C 
ATOM     13  C   UNL     1      -3.688   1.140  23.169  0.00  0.00    -0.022 C 
ATOM     18  C   UNL     1      -1.886   1.613  21.529  0.00  0.00    +0.039 C 
ENDROOT
BRANCH   7  11
ATOM     11  C   UNL     1      -5.094   3.070  26.227  0.00  0.00    -0.013 C 
ATOM     16  C   UNL     1      -5.670   4.378  25.695  0.00  0.00    +0.007 C 
ATOM     17  C   UNL     1      -6.196   2.032  26.417  0.00  0.00    +0.007 C 
ENDBRANCH   7  11
BRANCH   8  14
ATOM     14  C   UNL     1      -4.708   0.091  25.178  0.00  0.00    +0.112 C 
BRANCH  14   4
ATOM      2  O   UNL     1      -4.404  -2.418  23.771  0.00  0.00    -0.273 OA
ATOM      4  N   UNL     1      -3.525  -0.707  25.082  0.00  0.00    -0.313 N 
ATOM     20  C   UNL     1      -3.466  -1.909  24.380  0.00  0.00    +0.239 C 
ATOM     31  H   UNL     1      -2.671  -0.351  25.501  0.00  0.00    +0.149 HD
BRANCH  20  22
ATOM     22  C   UNL     1      -2.092  -2.542  24.442  0.00  0.00    +0.255 C 
BRANCH  22   3
ATOM      3  O   UNL     1      -1.305  -1.929  25.441  0.00  0.00    -0.374 OA
ATOM     26  C   UNL     1      -0.003  -2.501  25.517  0.00  0.00    +0.194 C 
ENDBRANCH  22   3
ENDBRANCH  20  22
ENDBRANCH  14   4
ENDBRANCH   8  14
BRANCH  10  15
ATOM     15  C   UNL     1      -1.012   3.069  24.255  0.00  0.00    +0.103 C 
BRANCH  15  19
ATOM      1  O   UNL     1      -0.969   0.915  25.357  0.00  0.00    -0.276 OA
ATOM      5  N   UNL     1       0.206   1.210  23.373  0.00  0.00    -0.311 N 
ATOM     19  C   UNL     1      -0.611   1.620  24.417  0.00  0.00    +0.214 C 
ATOM     32  H   UNL     1       0.446   1.867  22.638  0.00  0.00    +0.149 HD
BRANCH   5  21
ATOM     21  C   UNL     1       0.742  -0.128  23.271  0.00  0.00    +0.139 C 
BRANCH  21  23
ATOM     23  C   UNL     1       2.243  -0.131  23.245  0.00  0.00    -0.030 A 
ATOM     24  C   UNL     1       2.934   0.982  22.768  0.00  0.00    +0.006 A 
ATOM     25  C   UNL     1       2.945  -1.248  23.698  0.00  0.00    +0.006 A 
ATOM     27  C   UNL     1       4.330   0.979  22.745  0.00  0.00    +0.019 A 
ATOM     28  C   UNL     1       4.340  -1.251  23.674  0.00  0.00    +0.019 A 
ATOM     29  C   UNL     1       5.032  -0.137  23.198  0.00  0.00    +0.052 A 
BRANCH  29  30
ATOM      6  N   UNL     1       7.621  -0.143  23.154  0.00  0.00    -0.191 NA
ATOM     30  C   UNL     1       6.460  -0.140  23.174  0.00  0.00    +0.099 C 
ENDBRANCH  29  30
ENDBRANCH  21  23
ENDBRANCH   5  21
ENDBRANCH  15  19
ENDBRANCH  10  15
TORSDOF 10
ENDMDL
MODEL 4
REMARK VINA RESULT:      -1.9      1.851      3.612
REMARK  Name = 38029418
REMARK  14 active torsions:
REMARK  status: ('A' for Active; 'I' for Inactive)
REMARK    1  A    between atoms: O_3  and  C_22
REMARK    2  A    between atoms: O_3  and  C_26
REMARK    3  A    between atoms: N_4  and  C_14
REMARK    4  A    between atoms: N_5  and  C_21
REMARK    5  A    between atoms: C_7  and  C_11
REMARK    6  A    between atoms: C_8  and  C_14
REMARK    7  A    between atoms: C_10  and  C_15
REMARK    8  A    between atoms: C_11  and  C_16
REMARK    9  A    between atoms: C_11  and  C_17
REMARK   10  A    between atoms: C_12  and  C_18
REMARK   11  A    between atoms: C_15  and  C_19
REMARK   12  A    between atoms: C_20  and  C_22
REMARK   13  A    between atoms: C_21  and  C_23
REMARK   14  A    between atoms: C_29  and  C_30
REMARK                            x       y       z     vdW  Elec       q    Type
REMARK                         _______ _______ _______ _____ _____    ______ ____
ROOT
ATOM      7  C   UNL     1      -3.254  -0.731  24.914  0.00  0.00    +0.000 C 
ATOM      8  C   UNL     1      -2.187  -0.043  24.026  0.00  0.00    +0.032 C 
ATOM      9  C   UNL     1      -4.661  -0.482  24.352  0.00  0.00    +0.012 C 
ATOM     10  C   UNL     1      -4.996   1.019  24.264  0.00  0.00    +0.023 C 
ATOM     12  C   UNL     1      -3.866   1.811  23.636  0.00  0.00    -0.073 C 
ATOM     13  C   UNL     1      -2.621   1.316  23.528  0.00  0.00    -0.022 C 
ATOM     18  C   UNL     1      -4.212   3.171  23.096  0.00  0.00    +0.039 C 
ENDROOT
BRANCH   7  11
ATOM     11  C   UNL     1      -3.004  -2.238  25.037  0.00  0.00    -0.013 C 
ATOM     16  C   UNL     1      -4.010  -3.015  24.193  0.00  0.00    +0.007 C 
ATOM     17  C   UNL     1      -1.575  -2.577  24.624  0.00  0.00    +0.007 C 
ENDBRANCH   7  11
BRANCH   8  14
ATOM     14  C   UNL     1      -0.851   0.088  24.767  0.00  0.00    +0.112 C 
BRANCH  14   4
ATOM      2  O   UNL     1       1.396   1.710  23.936  0.00  0.00    -0.273 OA
ATOM      4  N   UNL     1       0.235  -0.308  23.927  0.00  0.00    -0.313 N 
ATOM     20  C   UNL     1       1.283   0.541  23.574  0.00  0.00    +0.239 C 
ATOM     31  H   UNL     1       0.273  -1.275  23.616  0.00  0.00    +0.149 HD
BRANCH  20  22
ATOM     22  C   UNL     1       2.295  -0.139  22.678  0.00  0.00    +0.255 C 
BRANCH  22   3
ATOM      3  O   UNL     1       3.372   0.728  22.393  0.00  0.00    -0.374 OA
ATOM     26  C   UNL     1       4.544   0.379  23.123  0.00  0.00    +0.194 C 
ENDBRANCH  22   3
ENDBRANCH  20  22
ENDBRANCH  14   4
ENDBRANCH   8  14
BRANCH  10  15
ATOM     15  C   UNL     1      -5.365   1.585  25.640  0.00  0.00    +0.103 C 
BRANCH  15  19
ATOM      1  O   UNL     1      -5.406   4.003  25.546  0.00  0.00    -0.276 OA
ATOM      5  N   UNL     1      -3.543   2.923  26.420  0.00  0.00    -0.311 N 
ATOM     19  C   UNL     1      -4.806   2.975  25.850  0.00  0.00    +0.214 C 
ATOM     32  H   UNL     1      -3.129   2.022  26.638  0.00  0.00    +0.149 HD
BRANCH   5  21
ATOM     21  C   UNL     1      -2.769   4.102  26.731  0.00  0.00    +0.139 C 
BRANCH  21  23
ATOM     23  C   UNL     1      -1.850   4.484  25.606  0.00  0.00    -0.030 A 
ATOM     24  C   UNL     1      -1.961   5.741  25.013  0.00  0.00    +0.006 A 
ATOM     25  C   UNL     1      -0.888   3.582  25.155  0.00  0.00    +0.006 A 
ATOM     27  C   UNL     1      -1.107   6.097  23.968  0.00  0.00    +0.019 A 
ATOM     28  C   UNL     1      -0.035   3.936  24.110  0.00  0.00    +0.019 A 
ATOM     29  C   UNL     1      -0.145   5.194  23.516  0.00  0.00    +0.052 A 
BRANCH  29  30
ATOM      6  N   UNL     1       1.439   5.852  21.577  0.00  0.00    -0.191 NA
ATOM     30  C   UNL     1       0.729   5.557  22.446  0.00  0.00    +0.099 C 
ENDBRANCH  29  30
ENDBRANCH  21  23
ENDBRANCH   5  21
ENDBRANCH  15  19
ENDBRANCH  10  15
TORSDOF 10
ENDMDL
MODEL 5
REMARK VINA RESULT:      -1.9      2.287      6.893
REMARK  Name = 38029418
REMARK  14 active torsions:
REMARK  status: ('A' for Active; 'I' for Inactive)
REMARK    1  A    between atoms: O_3  and  C_22
REMARK    2  A    between atoms: O_3  and  C_26
REMARK    3  A    between atoms: N_4  and  C_14
REMARK    4  A    between atoms: N_5  and  C_21
REMARK    5  A    between atoms: C_7  and  C_11
REMARK    6  A    between atoms: C_8  and  C_14
REMARK    7  A    between atoms: C_10  and  C_15
REMARK    8  A    between atoms: C_11  and  C_16
REMARK    9  A    between atoms: C_11  and  C_17
REMARK   10  A    between atoms: C_12  and  C_18
REMARK   11  A    between atoms: C_15  and  C_19
REMARK   12  A    between atoms: C_20  and  C_22
REMARK   13  A    between atoms: C_21  and  C_23
REMARK   14  A    between atoms: C_29  and  C_30
REMARK                            x       y       z     vdW  Elec       q    Type
REMARK                         _______ _______ _______ _____ _____    ______ ____
ROOT
ATOM      7  C   UNL     1      -3.578   2.602  25.401  0.00  0.00    +0.000 C 
ATOM      8  C   UNL     1      -3.595   2.571  23.852  0.00  0.00    +0.032 C 
ATOM      9  C   UNL     1      -2.799   3.826  25.904  0.00  0.00    +0.012 C 
ATOM     10  C   UNL     1      -1.343   3.837  25.400  0.00  0.00    +0.023 C 
ATOM     12  C   UNL     1      -1.260   3.545  23.915  0.00  0.00    -0.073 C 
ATOM     13  C   UNL     1      -2.281   2.990  23.238  0.00  0.00    -0.022 C 
ATOM     18  C   UNL     1       0.010   3.946  23.216  0.00  0.00    +0.039 C 
ENDROOT
BRANCH   7  11
ATOM     11  C   UNL     1      -4.994   2.614  25.986  0.00  0.00    -0.013 C 
ATOM     16  C   UNL     1      -5.671   3.953  25.716  0.00  0.00    +0.007 C 
ATOM     17  C   UNL     1      -5.818   1.466  25.409  0.00  0.00    +0.007 C 
ENDBRANCH   7  11
BRANCH   8  14
ATOM     14  C   UNL     1      -3.983   1.181  23.331  0.00  0.00    +0.112 C 
BRANCH  14   4
ATOM      2  O   UNL     1      -4.816  -1.565  23.694  0.00  0.00    -0.273 OA
ATOM      4  N   UNL     1      -3.293   0.159  24.054  0.00  0.00    -0.313 N 
ATOM     20  C   UNL     1      -3.768  -1.146  24.180  0.00  0.00    +0.239 C 
ATOM     31  H   UNL     1      -2.384   0.381  24.449  0.00  0.00    +0.149 HD
BRANCH  20  22
ATOM     22  C   UNL     1      -2.837  -2.018  24.995  0.00  0.00    +0.255 C 
BRANCH  22   3
ATOM      3  O   UNL     1      -1.712  -2.397  24.232  0.00  0.00    -0.374 OA
ATOM     26  C   UNL     1      -0.554  -2.570  25.042  0.00  0.00    +0.194 C 
ENDBRANCH  22   3
ENDBRANCH  20  22
ENDBRANCH  14   4
ENDBRANCH   8  14
BRANCH  10  15
ATOM     15  C   UNL     1      -0.473   2.862  26.200  0.00  0.00    +0.103 C 
BRANCH  15  19
ATOM      1  O   UNL     1      -0.999   0.520  25.896  0.00  0.00    -0.276 OA
ATOM      5  N   UNL     1       0.519   1.547  24.467  0.00  0.00    -0.311 N 
ATOM     19  C   UNL     1      -0.371   1.510  25.530  0.00  0.00    +0.214 C 
ATOM     32  H   UNL     1       0.991   2.416  24.239  0.00  0.00    +0.149 HD
BRANCH   5  21
ATOM     21  C   UNL     1       0.815   0.395  23.646  0.00  0.00    +0.139 C 
BRANCH  21  23
ATOM     23  C   UNL     1       2.293   0.198  23.467  0.00  0.00    -0.030 A 
ATOM     24  C   UNL     1       3.077   1.235  22.963  0.00  0.00    +0.006 A 
ATOM     25  C   UNL     1       2.880  -1.021  23.803  0.00  0.00    +0.006 A 
ATOM     27  C   UNL     1       4.451   1.053  22.796  0.00  0.00    +0.019 A 
ATOM     28  C   UNL     1       4.252  -1.204  23.636  0.00  0.00    +0.019 A 
ATOM     29  C   UNL     1       5.038  -0.167  23.132  0.00  0.00    +0.052 A 
BRANCH  29  30
ATOM      6  N   UNL     1       7.586  -0.506  22.823  0.00  0.00    -0.191 NA
ATOM     30  C   UNL     1       6.444  -0.354  22.962  0.00  0.00    +0.099 C 
ENDBRANCH  29  30
ENDBRANCH  21  23
ENDBRANCH   5  21
ENDBRANCH  15  19
ENDBRANCH  10  15
TORSDOF 10
ENDMDL
MODEL 6
REMARK VINA RESULT:      -1.6      1.896      5.253
REMARK  Name = 38029418
REMARK  14 active torsions:
REMARK  status: ('A' for Active; 'I' for Inactive)
REMARK    1  A    between atoms: O_3  and  C_22
REMARK    2  A    between atoms: O_3  and  C_26
REMARK    3  A    between atoms: N_4  and  C_14
REMARK    4  A    between atoms: N_5  and  C_21
REMARK    5  A    between atoms: C_7  and  C_11
REMARK    6  A    between atoms: C_8  and  C_14
REMARK    7  A    between atoms: C_10  and  C_15
REMARK    8  A    between atoms: C_11  and  C_16
REMARK    9  A    between atoms: C_11  and  C_17
REMARK   10  A    between atoms: C_12  and  C_18
REMARK   11  A    between atoms: C_15  and  C_19
REMARK   12  A    between atoms: C_20  and  C_22
REMARK   13  A    between atoms: C_21  and  C_23
REMARK   14  A    between atoms: C_29  and  C_30
REMARK                            x       y       z     vdW  Elec       q    Type
REMARK                         _______ _______ _______ _____ _____    ______ ____
ROOT
ATOM      7  C   UNL     1      -2.114   2.355  23.927  0.00  0.00    +0.000 C 
ATOM      8  C   UNL     1      -0.635   2.806  23.826  0.00  0.00    +0.032 C 
ATOM      9  C   UNL     1      -3.055   3.527  23.612  0.00  0.00    +0.012 C 
ATOM     10  C   UNL     1      -2.842   4.717  24.566  0.00  0.00    +0.023 C 
ATOM     12  C   UNL     1      -1.373   5.054  24.727  0.00  0.00    -0.073 C 
ATOM     13  C   UNL     1      -0.400   4.192  24.379  0.00  0.00    -0.022 C 
ATOM     18  C   UNL     1      -1.045   6.422  25.257  0.00  0.00    +0.039 C 
ENDROOT
BRANCH   7  11
ATOM     11  C   UNL     1      -2.416   1.182  22.990  0.00  0.00    -0.013 C 
ATOM     16  C   UNL     1      -2.542   1.668  21.550  0.00  0.00    +0.007 C 
ATOM     17  C   UNL     1      -1.332   0.114  23.107  0.00  0.00    +0.007 C 
ENDBRANCH   7  11
BRANCH   8  14
ATOM     14  C   UNL     1       0.297   1.811  24.528  0.00  0.00    +0.112 C 
BRANCH  14   4
ATOM      2  O   UNL     1       1.556  -0.292  22.992  0.00  0.00    -0.273 OA
ATOM      4  N   UNL     1       1.599   1.834  23.938  0.00  0.00    -0.313 N 
ATOM     20  C   UNL     1       2.131   0.771  23.210  0.00  0.00    +0.239 C 
ATOM     31  H   UNL     1       2.142   2.690  24.008  0.00  0.00    +0.149 HD
BRANCH  20  22
ATOM     22  C   UNL     1       3.525   1.067  22.700  0.00  0.00    +0.255 C 
BRANCH  22   3
ATOM      3  O   UNL     1       4.371  -0.048  22.884  0.00  0.00    -0.374 OA
ATOM     26  C   UNL     1       5.365   0.196  23.874  0.00  0.00    +0.194 C 
ENDBRANCH  22   3
ENDBRANCH  20  22
ENDBRANCH  14   4
ENDBRANCH   8  14
BRANCH  10  15
ATOM     15  C   UNL     1      -3.498   4.460  25.927  0.00  0.00    +0.103 C 
BRANCH  15  19
ATOM      1  O   UNL     1      -5.830   3.882  25.644  0.00  0.00    -0.276 OA
ATOM      5  N   UNL     1      -4.263   2.195  25.957  0.00  0.00    -0.311 N 
ATOM     19  C   UNL     1      -4.672   3.513  25.822  0.00  0.00    +0.214 C 
ATOM     32  H   UNL     1      -3.279   1.988  26.100  0.00  0.00    +0.149 HD
BRANCH   5  21
ATOM     21  C   UNL     1      -5.175   1.076  25.900  0.00  0.00    +0.139 C 
BRANCH  21  23
ATOM     23  C   UNL     1      -4.526  -0.150  25.325  0.00  0.00    -0.030 A 
ATOM     24  C   UNL     1      -4.973  -0.670  24.110  0.00  0.00    +0.006 A 
ATOM     25  C   UNL     1      -3.477  -0.768  26.005  0.00  0.00    +0.006 A 
ATOM     27  C   UNL     1      -4.370  -1.808  23.575  0.00  0.00    +0.019 A 
ATOM     28  C   UNL     1      -2.875  -1.906  25.470  0.00  0.00    +0.019 A 
ATOM     29  C   UNL     1      -3.321  -2.427  24.255  0.00  0.00    +0.052 A 
BRANCH  29  30
ATOM      6  N   UNL     1      -2.202  -4.540  23.262  0.00  0.00    -0.191 NA
ATOM     30  C   UNL     1      -2.703  -3.593  23.707  0.00  0.00    +0.099 C 
ENDBRANCH  29  30
ENDBRANCH  21  23
ENDBRANCH   5  21
ENDBRANCH  15  19
ENDBRANCH  10  15
TORSDOF 10
ENDMDL
MODEL 7
REMARK VINA RESULT:      -1.2      1.748      5.084
REMARK  Name = 38029418
REMARK  14 active torsions:
REMARK  status: ('A' for Active; 'I' for Inactive)
REMARK    1  A    between atoms: O_3  and  C_22
REMARK    2  A    between atoms: O_3  and  C_26
REMARK    3  A    between atoms: N_4  and  C_14
REMARK    4  A    between atoms: N_5  and  C_21
REMARK    5  A    between atoms: C_7  and  C_11
REMARK    6  A    between atoms: C_8  and  C_14
REMARK    7  A    between atoms: C_10  and  C_15
REMARK    8  A    between atoms: C_11  and  C_16
REMARK    9  A    between atoms: C_11  and  C_17
REMARK   10  A    between atoms: C_12  and  C_18
REMARK   11  A    between atoms: C_15  and  C_19
REMARK   12  A    between atoms: C_20  and  C_22
REMARK   13  A    between atoms: C_21  and  C_23
REMARK   14  A    between atoms: C_29  and  C_30
REMARK                            x       y       z     vdW  Elec       q    Type
REMARK                         _______ _______ _______ _____ _____    ______ ____
ROOT
ATOM      7  C   UNL     1      -2.829   2.436  23.930  0.00  0.00    +0.000 C 
ATOM      8  C   UNL     1      -1.591   3.079  24.604  0.00  0.00    +0.032 C 
ATOM      9  C   UNL     1      -3.919   3.491  23.693  0.00  0.00    +0.012 C 
ATOM     10  C   UNL     1      -4.372   4.164  25.003  0.00  0.00    +0.023 C 
ATOM     12  C   UNL     1      -3.192   4.589  25.855  0.00  0.00    -0.073 C 
ATOM     13  C   UNL     1      -1.955   4.102  25.654  0.00  0.00    -0.022 C 
ATOM     18  C   UNL     1      -3.460   5.620  26.915  0.00  0.00    +0.039 C 
ENDROOT
BRANCH   7  11
ATOM     11  C   UNL     1      -2.466   1.759  22.604  0.00  0.00    -0.013 C 
ATOM     16  C   UNL     1      -3.134   0.391  22.504  0.00  0.00    +0.007 C 
ATOM     17  C   UNL     1      -2.867   2.644  21.428  0.00  0.00    +0.007 C 
ENDBRANCH   7  11
BRANCH   8  14
ATOM     14  C   UNL     1      -0.683   2.011  25.226  0.00  0.00    +0.112 C 
BRANCH  14   4
ATOM      2  O   UNL     1       0.332   0.138  23.270  0.00  0.00    -0.273 OA
ATOM      4  N   UNL     1       0.607   2.021  24.610  0.00  0.00    -0.313 N 
ATOM     20  C   UNL     1       1.017   1.075  23.671  0.00  0.00    +0.239 C 
ATOM     31  H   UNL     1       1.236   2.789  24.826  0.00  0.00    +0.149 HD
BRANCH  20  22
ATOM     22  C   UNL     1       2.427   1.327  23.182  0.00  0.00    +0.255 C 
BRANCH  22   3
ATOM      3  O   UNL     1       3.077   0.109  22.886  0.00  0.00    -0.374 OA
ATOM     26  C   UNL     1       4.493   0.222  22.996  0.00  0.00    +0.194 C 
ENDBRANCH  22   3
ENDBRANCH  20  22
ENDBRANCH  14   4
ENDBRANCH   8  14
BRANCH  10  15
ATOM     15  C   UNL     1      -5.320   3.256  25.793  0.00  0.00    +0.103 C 
BRANCH  15  19
ATOM      1  O   UNL     1      -6.257   1.770  24.128  0.00  0.00    -0.276 OA
ATOM      5  N   UNL     1      -4.809   0.920  25.735  0.00  0.00    -0.311 N 
ATOM     19  C   UNL     1      -5.532   1.924  25.108  0.00  0.00    +0.214 C 
ATOM     32  H   UNL     1      -4.234   1.147  26.541  0.00  0.00    +0.149 HD
BRANCH   5  21
ATOM     21  C   UNL     1      -4.824  -0.456  25.296  0.00  0.00    +0.139 C 
BRANCH  21  23
ATOM     23  C   UNL     1      -3.452  -1.066  25.311  0.00  0.00    -0.030 A 
ATOM     24  C   UNL     1      -2.445  -0.498  26.090  0.00  0.00    +0.006 A 
ATOM     25  C   UNL     1      -3.185  -2.200  24.544  0.00  0.00    +0.006 A 
ATOM     27  C   UNL     1      -1.170  -1.065  26.105  0.00  0.00    +0.019 A 
ATOM     28  C   UNL     1      -1.911  -2.766  24.558  0.00  0.00    +0.019 A 
ATOM     29  C   UNL     1      -0.903  -2.198  25.338  0.00  0.00    +0.052 A 
BRANCH  29  30
ATOM      6  N   UNL     1       1.463  -3.250  25.364  0.00  0.00    -0.191 NA
ATOM     30  C   UNL     1       0.402  -2.779  25.352  0.00  0.00    +0.099 C 
ENDBRANCH  29  30
ENDBRANCH  21  23
ENDBRANCH   5  21
ENDBRANCH  15  19
ENDBRANCH  10  15
TORSDOF 10
ENDMDL
MODEL 8
REMARK VINA RESULT:      -1.2      2.279      6.980
REMARK  Name = 38029418
REMARK  14 active torsions:
REMARK  status: ('A' for Active; 'I' for Inactive)
REMARK    1  A    between atoms: O_3  and  C_22
REMARK    2  A    between atoms: O_3  and  C_26
REMARK    3  A    between atoms: N_4  and  C_14
REMARK    4  A    between atoms: N_5  and  C_21
REMARK    5  A    between atoms: C_7  and  C_11
REMARK    6  A    between atoms: C_8  and  C_14
REMARK    7  A    between atoms: C_10  and  C_15
REMARK    8  A    between atoms: C_11  and  C_16
REMARK    9  A    between atoms: C_11  and  C_17
REMARK   10  A    between atoms: C_12  and  C_18
REMARK   11  A    between atoms: C_15  and  C_19
REMARK   12  A    between atoms: C_20  and  C_22
REMARK   13  A    between atoms: C_21  and  C_23
REMARK   14  A    between atoms: C_29  and  C_30
REMARK                            x       y       z     vdW  Elec       q    Type
REMARK                         _______ _______ _______ _____ _____    ______ ____
ROOT
ATOM      7  C   UNL     1      -3.307   0.940  23.803  0.00  0.00    +0.000 C 
ATOM      8  C   UNL     1      -4.616   0.473  24.488  0.00  0.00    +0.032 C 
ATOM      9  C   UNL     1      -2.456  -0.270  23.390  0.00  0.00    +0.012 C 
ATOM     10  C   UNL     1      -2.086  -1.158  24.593  0.00  0.00    +0.023 C 
ATOM     12  C   UNL     1      -3.287  -1.444  25.473  0.00  0.00    -0.073 C 
ATOM     13  C   UNL     1      -4.413  -0.712  25.403  0.00  0.00    -0.022 C 
ATOM     18  C   UNL     1      -3.180  -2.619  26.405  0.00  0.00    +0.039 C 
ENDROOT
BRANCH   7  11
ATOM     11  C   UNL     1      -3.588   1.817  22.578  0.00  0.00    -0.013 C 
ATOM     16  C   UNL     1      -3.783   3.271  22.997  0.00  0.00    +0.007 C 
ATOM     17  C   UNL     1      -2.456   1.694  21.563  0.00  0.00    +0.007 C 
ENDBRANCH   7  11
BRANCH   8  14
ATOM     14  C   UNL     1      -5.269   1.618  25.272  0.00  0.00    +0.112 C 
BRANCH  14   4
ATOM      2  O   UNL     1      -5.569   4.442  25.819  0.00  0.00    -0.273 OA
ATOM      4  N   UNL     1      -4.277   2.506  25.793  0.00  0.00    -0.313 N 
ATOM     20  C   UNL     1      -4.507   3.861  26.027  0.00  0.00    +0.239 C 
ATOM     31  H   UNL     1      -3.377   2.117  26.057  0.00  0.00    +0.149 HD
BRANCH  20  22
ATOM     22  C   UNL     1      -3.286   4.562  26.582  0.00  0.00    +0.255 C 
BRANCH  22   3
ATOM      3  O   UNL     1      -2.106   4.032  26.015  0.00  0.00    -0.374 OA
ATOM     26  C   UNL     1      -1.442   4.981  25.186  0.00  0.00    +0.194 C 
ENDBRANCH  22   3
ENDBRANCH  20  22
ENDBRANCH  14   4
ENDBRANCH   8  14
BRANCH  10  15
ATOM     15  C   UNL     1      -0.944  -0.540  25.407  0.00  0.00    +0.103 C 
BRANCH  15  19
ATOM      1  O   UNL     1       0.202   1.517  24.848  0.00  0.00    -0.276 OA
ATOM      5  N   UNL     1       0.393  -0.320  23.437  0.00  0.00    -0.311 N 
ATOM     19  C   UNL     1      -0.062   0.352  24.562  0.00  0.00    +0.214 C 
ATOM     32  H   UNL     1       0.121  -1.287  23.287  0.00  0.00    +0.149 HD
BRANCH   5  21
ATOM     21  C   UNL     1       1.253   0.289  22.449  0.00  0.00    +0.139 C 
BRANCH  21  23
ATOM     23  C   UNL     1       2.706   0.137  22.798  0.00  0.00    -0.030 A 
ATOM     24  C   UNL     1       3.581   1.208  22.621  0.00  0.00    +0.006 A 
ATOM     25  C   UNL     1       3.179  -1.075  23.300  0.00  0.00    +0.006 A 
ATOM     27  C   UNL     1       4.931   1.068  22.946  0.00  0.00    +0.019 A 
ATOM     28  C   UNL     1       4.528  -1.216  23.624  0.00  0.00    +0.019 A 
ATOM     29  C   UNL     1       5.404  -0.144  23.447  0.00  0.00    +0.052 A 
BRANCH  29  30
ATOM      6  N   UNL     1       7.908  -0.406  24.050  0.00  0.00    -0.191 NA
ATOM     30  C   UNL     1       6.786  -0.289  23.780  0.00  0.00    +0.099 C 
ENDBRANCH  29  30
ENDBRANCH  21  23
ENDBRANCH   5  21
ENDBRANCH  15  19
ENDBRANCH  10  15
TORSDOF 10
ENDMDL
MODEL 9
REMARK VINA RESULT:      -0.1      3.006      5.861
REMARK  Name = 38029418
REMARK  14 active torsions:
REMARK  status: ('A' for Active; 'I' for Inactive)
REMARK    1  A    between atoms: O_3  and  C_22
REMARK    2  A    between atoms: O_3  and  C_26
REMARK    3  A    between atoms: N_4  and  C_14
REMARK    4  A    between atoms: N_5  and  C_21
REMARK    5  A    between atoms: C_7  and  C_11
REMARK    6  A    between atoms: C_8  and  C_14
REMARK    7  A    between atoms: C_10  and  C_15
REMARK    8  A    between atoms: C_11  and  C_16
REMARK    9  A    between atoms: C_11  and  C_17
REMARK   10  A    between atoms: C_12  and  C_18
REMARK   11  A    between atoms: C_15  and  C_19
REMARK   12  A    between atoms: C_20  and  C_22
REMARK   13  A    between atoms: C_21  and  C_23
REMARK   14  A    between atoms: C_29  and  C_30
REMARK                            x       y       z     vdW  Elec       q    Type
REMARK                         _______ _______ _______ _____ _____    ______ ____
ROOT
ATOM      7  C   UNL     1      -2.105   2.294  24.103  0.00  0.00    +0.000 C 
ATOM      8  C   UNL     1      -0.825   2.818  24.800  0.00  0.00    +0.032 C 
ATOM      9  C   UNL     1      -2.657   3.348  23.132  0.00  0.00    +0.012 C 
ATOM     10  C   UNL     1      -2.997   4.672  23.843  0.00  0.00    +0.023 C 
ATOM     12  C   UNL     1      -1.879   5.119  24.764  0.00  0.00    -0.073 C 
ATOM     13  C   UNL     1      -0.910   4.280  25.171  0.00  0.00    -0.022 C 
ATOM     18  C   UNL     1      -1.876   6.567  25.172  0.00  0.00    +0.039 C 
ENDROOT
BRANCH   7  11
ATOM     11  C   UNL     1      -1.847   0.984  23.352  0.00  0.00    -0.013 C 
ATOM     16  C   UNL     1      -2.324   1.094  21.908  0.00  0.00    +0.007 C 
ATOM     17  C   UNL     1      -0.366   0.621  23.406  0.00  0.00    +0.007 C 
ENDBRANCH   7  11
BRANCH   8  14
ATOM     14  C   UNL     1      -0.498   1.993  26.050  0.00  0.00    +0.112 C 
BRANCH  14   4
ATOM      2  O   UNL     1       0.101   2.579  28.819  0.00  0.00    -0.273 OA
ATOM      4  N   UNL     1       0.766   2.380  26.597  0.00  0.00    -0.313 N 
ATOM     20  C   UNL     1       0.967   2.645  27.951  0.00  0.00    +0.239 C 
ATOM     31  H   UNL     1       1.568   2.410  25.975  0.00  0.00    +0.149 HD
BRANCH  20  22
ATOM     22  C   UNL     1       2.400   3.031  28.252  0.00  0.00    +0.255 C 
BRANCH  22   3
ATOM      3  O   UNL     1       2.718   2.757  29.599  0.00  0.00    -0.374 OA
ATOM     26  C   UNL     1       1.769   1.883  30.203  0.00  0.00    +0.194 C 
ENDBRANCH  22   3
ENDBRANCH  20  22
ENDBRANCH  14   4
ENDBRANCH   8  14
BRANCH  10  15
ATOM     15  C   UNL     1      -4.324   4.568  24.602  0.00  0.00    +0.103 C 
BRANCH  15  19
ATOM      1  O   UNL     1      -3.615   3.238  26.495  0.00  0.00    -0.276 OA
ATOM      5  N   UNL     1      -5.327   2.461  25.127  0.00  0.00    -0.311 N 
ATOM     19  C   UNL     1      -4.358   3.371  25.526  0.00  0.00    +0.214 C 
ATOM     32  H   UNL     1      -5.896   2.662  24.310  0.00  0.00    +0.149 HD
BRANCH   5  21
ATOM     21  C   UNL     1      -5.579   1.222  25.825  0.00  0.00    +0.139 C 
BRANCH  21  23
ATOM     23  C   UNL     1      -4.671   0.120  25.360  0.00  0.00    -0.030 A 
ATOM     24  C   UNL     1      -4.908  -0.509  24.139  0.00  0.00    +0.006 A 
ATOM     25  C   UNL     1      -3.592  -0.274  26.151  0.00  0.00    +0.006 A 
ATOM     27  C   UNL     1      -4.064  -1.532  23.706  0.00  0.00    +0.019 A 
ATOM     28  C   UNL     1      -2.749  -1.298  25.719  0.00  0.00    +0.019 A 
ATOM     29  C   UNL     1      -2.985  -1.927  24.496  0.00  0.00    +0.052 A 
BRANCH  29  30
ATOM      6  N   UNL     1      -1.419  -3.826  23.694  0.00  0.00    -0.191 NA
ATOM     30  C   UNL     1      -2.121  -2.975  24.054  0.00  0.00    +0.099 C 
ENDBRANCH  29  30
ENDBRANCH  21  23
ENDBRANCH   5  21
ENDBRANCH  15  19
ENDBRANCH  10  15
TORSDOF 10
ENDMDL
