MODEL 1
REMARK VINA RESULT:      -4.1      0.000      0.000
REMARK  Name = 75536603
REMARK  9 active torsions:
REMARK  status: ('A' for Active; 'I' for Inactive)
REMARK    1  A    between atoms: O_3  and  C_10
REMARK    2  A    between atoms: O_5  and  C_24
REMARK    3  A    between atoms: N_7  and  C_9
REMARK    4  A    between atoms: N_7  and  C_14
REMARK    5  A    between atoms: N_8  and  C_13
REMARK    6  A    between atoms: C_11  and  C_13
REMARK    7  A    between atoms: C_14  and  C_15
REMARK    8  A    between atoms: C_16  and  C_19
REMARK    9  A    between atoms: C_22  and  C_24
REMARK                            x       y       z     vdW  Elec       q    Type
REMARK                         _______ _______ _______ _____ _____    ______ ____
ROOT
ATOM      2  O   UNL     1      -2.568  -3.203  23.611  0.00  0.00    -0.371 OA
ATOM      9  C   UNL     1      -1.295  -2.271  25.387  0.00  0.00    +0.111 C 
ATOM     10  C   UNL     1      -2.646  -1.583  25.333  0.00  0.00    +0.164 C 
ATOM     11  C   UNL     1      -3.467  -2.608  24.563  0.00  0.00    +0.165 C 
ATOM     12  C   UNL     1      -1.218  -2.894  24.002  0.00  0.00    +0.181 C 
ENDROOT
BRANCH  10   3
ATOM      3  O   UNL     1      -3.184  -1.334  26.617  0.00  0.00    -0.388 OA
ATOM     28  H   UNL     1      -4.096  -1.014  26.509  0.00  0.00    +0.210 HD
ENDBRANCH  10   3
BRANCH   9   7
ATOM      7  N   UNL     1      -0.190  -1.367  25.662  0.00  0.00    -0.305 NA
ATOM     27  H   UNL     1       0.623  -1.912  25.949  0.00  0.00    +0.123 HD
BRANCH   7  14
ATOM     14  C   UNL     1       0.158  -0.589  24.479  0.00  0.00    +0.116 C 
BRANCH  14  15
ATOM     15  C   UNL     1      -0.177   0.869  24.647  0.00  0.00    -0.034 A 
ATOM     17  C   UNL     1      -0.599   1.348  25.888  0.00  0.00    +0.006 A 
ATOM     18  C   UNL     1      -0.068   1.741  23.564  0.00  0.00    +0.006 A 
ATOM     20  C   UNL     1      -0.910   2.698  26.045  0.00  0.00    +0.015 A 
ATOM     21  C   UNL     1      -0.379   3.091  23.722  0.00  0.00    +0.015 A 
ATOM     22  C   UNL     1      -0.799   3.570  24.962  0.00  0.00    +0.059 A 
BRANCH  22  24
ATOM      6  O   UNL     1      -0.502   5.920  24.621  0.00  0.00    -0.245 OA
ATOM     24  C   UNL     1      -1.123   4.979  25.126  0.00  0.00    +0.337 C 
BRANCH  24   5
ATOM      5  O   UNL     1      -2.215   5.173  25.915  0.00  0.00    -0.477 OA
ATOM     30  H   UNL     1      -3.040   5.239  25.388  0.00  0.00    +0.295 HD
ENDBRANCH  24   5
ENDBRANCH  22  24
ENDBRANCH  14  15
ENDBRANCH   7  14
ENDBRANCH   9   7
BRANCH  11  13
ATOM     13  C   UNL     1      -4.656  -2.004  23.837  0.00  0.00    +0.138 C 
BRANCH  13   8
ATOM      4  O   UNL     1      -3.226   0.335  22.985  0.00  0.00    -0.270 OA
ATOM      8  N   UNL     1      -4.894  -0.654  24.259  0.00  0.00    -0.308 N 
ATOM     16  C   UNL     1      -4.148   0.424  23.791  0.00  0.00    +0.251 C 
ATOM     29  H   UNL     1      -5.634  -0.506  24.937  0.00  0.00    +0.149 HD
BRANCH  16  19
ATOM      1  S   UNL     1      -5.597   1.851  25.656  0.00  0.00    -0.092 S 
ATOM     19  C   UNL     1      -4.501   1.757  24.345  0.00  0.00    +0.074 A 
ATOM     23  C   UNL     1      -4.061   3.001  23.948  0.00  0.00    +0.021 A 
ATOM     25  C   UNL     1      -4.632   4.044  24.732  0.00  0.00    +0.008 A 
ATOM     26  C   UNL     1      -5.487   3.559  25.697  0.00  0.00    +0.046 A 
ENDBRANCH  16  19
ENDBRANCH  13   8
ENDBRANCH  11  13
TORSDOF 9
ENDMDL
MODEL 2
REMARK VINA RESULT:      -3.8      3.557      7.151
REMARK  Name = 75536603
REMARK  9 active torsions:
REMARK  status: ('A' for Active; 'I' for Inactive)
REMARK    1  A    between atoms: O_3  and  C_10
REMARK    2  A    between atoms: O_5  and  C_24
REMARK    3  A    between atoms: N_7  and  C_9
REMARK    4  A    between atoms: N_7  and  C_14
REMARK    5  A    between atoms: N_8  and  C_13
REMARK    6  A    between atoms: C_11  and  C_13
REMARK    7  A    between atoms: C_14  and  C_15
REMARK    8  A    between atoms: C_16  and  C_19
REMARK    9  A    between atoms: C_22  and  C_24
REMARK                            x       y       z     vdW  Elec       q    Type
REMARK                         _______ _______ _______ _____ _____    ______ ____
ROOT
ATOM      2  O   UNL     1      -0.296   4.163  23.910  0.00  0.00    -0.371 OA
ATOM      9  C   UNL     1      -1.762   3.949  25.766  0.00  0.00    +0.111 C 
ATOM     10  C   UNL     1      -1.297   2.569  25.343  0.00  0.00    +0.164 C 
ATOM     11  C   UNL     1      -0.032   2.911  24.567  0.00  0.00    +0.165 C 
ATOM     12  C   UNL     1      -1.447   4.768  24.524  0.00  0.00    +0.181 C 
ENDROOT
BRANCH  10   3
ATOM      3  O   UNL     1      -1.027   1.721  26.443  0.00  0.00    -0.388 OA
ATOM     28  H   UNL     1      -0.473   2.210  27.076  0.00  0.00    +0.210 HD
ENDBRANCH  10   3
BRANCH   9   7
ATOM      7  N   UNL     1      -3.168   4.002  26.137  0.00  0.00    -0.305 NA
ATOM     27  H   UNL     1      -3.397   4.949  26.438  0.00  0.00    +0.123 HD
BRANCH   7  14
ATOM     14  C   UNL     1      -4.021   3.646  25.010  0.00  0.00    +0.116 C 
BRANCH  14  15
ATOM     15  C   UNL     1      -4.000   2.166  24.736  0.00  0.00    -0.034 A 
ATOM     17  C   UNL     1      -4.588   1.281  25.642  0.00  0.00    +0.006 A 
ATOM     18  C   UNL     1      -3.392   1.677  23.580  0.00  0.00    +0.006 A 
ATOM     20  C   UNL     1      -4.569  -0.090  25.389  0.00  0.00    +0.015 A 
ATOM     21  C   UNL     1      -3.373   0.306  23.327  0.00  0.00    +0.015 A 
ATOM     22  C   UNL     1      -3.961  -0.578  24.232  0.00  0.00    +0.059 A 
BRANCH  22  24
ATOM      6  O   UNL     1      -4.881  -2.665  23.506  0.00  0.00    -0.245 OA
ATOM     24  C   UNL     1      -3.942  -2.008  23.968  0.00  0.00    +0.337 C 
BRANCH  24   5
ATOM      5  O   UNL     1      -2.748  -2.580  24.288  0.00  0.00    -0.477 OA
ATOM     30  H   UNL     1      -1.991  -2.016  24.023  0.00  0.00    +0.295 HD
ENDBRANCH  24   5
ENDBRANCH  22  24
ENDBRANCH  14  15
ENDBRANCH   7  14
ENDBRANCH   9   7
BRANCH  11  13
ATOM     13  C   UNL     1       0.344   1.861  23.537  0.00  0.00    +0.138 C 
BRANCH  13   8
ATOM      4  O   UNL     1       1.681  -0.200  22.052  0.00  0.00    -0.270 OA
ATOM      8  N   UNL     1       1.706   1.438  23.695  0.00  0.00    -0.308 N 
ATOM     16  C   UNL     1       2.273   0.425  22.927  0.00  0.00    +0.251 C 
ATOM     29  H   UNL     1       2.253   1.903  24.412  0.00  0.00    +0.149 HD
BRANCH  16  19
ATOM      1  S   UNL     1       4.064  -1.479  23.814  0.00  0.00    -0.092 S 
ATOM     19  C   UNL     1       3.688   0.086  23.231  0.00  0.00    +0.074 A 
ATOM     23  C   UNL     1       4.810   0.876  23.110  0.00  0.00    +0.021 A 
ATOM     25  C   UNL     1       5.994   0.187  23.502  0.00  0.00    +0.008 A 
ATOM     26  C   UNL     1       5.731  -1.103  23.907  0.00  0.00    +0.046 A 
ENDBRANCH  16  19
ENDBRANCH  13   8
ENDBRANCH  11  13
TORSDOF 9
ENDMDL
MODEL 3
REMARK VINA RESULT:      -3.7      2.561      6.532
REMARK  Name = 75536603
REMARK  9 active torsions:
REMARK  status: ('A' for Active; 'I' for Inactive)
REMARK    1  A    between atoms: O_3  and  C_10
REMARK    2  A    between atoms: O_5  and  C_24
REMARK    3  A    between atoms: N_7  and  C_9
REMARK    4  A    between atoms: N_7  and  C_14
REMARK    5  A    between atoms: N_8  and  C_13
REMARK    6  A    between atoms: C_11  and  C_13
REMARK    7  A    between atoms: C_14  and  C_15
REMARK    8  A    between atoms: C_16  and  C_19
REMARK    9  A    between atoms: C_22  and  C_24
REMARK                            x       y       z     vdW  Elec       q    Type
REMARK                         _______ _______ _______ _____ _____    ______ ____
ROOT
ATOM      2  O   UNL     1      -3.062   4.240  23.751  0.00  0.00    -0.371 OA
ATOM      9  C   UNL     1      -4.616   3.646  25.446  0.00  0.00    +0.111 C 
ATOM     10  C   UNL     1      -3.254   3.862  26.078  0.00  0.00    +0.164 C 
ATOM     11  C   UNL     1      -2.569   4.713  25.017  0.00  0.00    +0.165 C 
ATOM     12  C   UNL     1      -4.243   3.453  23.985  0.00  0.00    +0.181 C 
ENDROOT
BRANCH  10   3
ATOM      3  O   UNL     1      -3.329   4.531  27.323  0.00  0.00    -0.388 OA
ATOM     28  H   UNL     1      -3.737   5.402  27.177  0.00  0.00    +0.210 HD
ENDBRANCH  10   3
BRANCH   9   7
ATOM      7  N   UNL     1      -5.342   2.514  25.998  0.00  0.00    -0.305 NA
ATOM     27  H   UNL     1      -6.203   2.849  26.430  0.00  0.00    +0.123 HD
BRANCH   7  14
ATOM     14  C   UNL     1      -5.681   1.550  24.958  0.00  0.00    +0.116 C 
BRANCH  14  15
ATOM     15  C   UNL     1      -4.663   0.446  24.863  0.00  0.00    -0.034 A 
ATOM     17  C   UNL     1      -4.830  -0.578  23.930  0.00  0.00    +0.006 A 
ATOM     18  C   UNL     1      -3.553   0.444  25.708  0.00  0.00    +0.006 A 
ATOM     20  C   UNL     1      -3.887  -1.602  23.841  0.00  0.00    +0.015 A 
ATOM     21  C   UNL     1      -2.610  -0.580  25.619  0.00  0.00    +0.015 A 
ATOM     22  C   UNL     1      -2.777  -1.602  24.686  0.00  0.00    +0.059 A 
BRANCH  22  24
ATOM      6  O   UNL     1      -0.779  -2.773  25.293  0.00  0.00    -0.245 OA
ATOM     24  C   UNL     1      -1.792  -2.670  24.593  0.00  0.00    +0.337 C 
BRANCH  24   5
ATOM      5  O   UNL     1      -2.101  -3.579  23.629  0.00  0.00    -0.477 OA
ATOM     30  H   UNL     1      -2.770  -4.227  23.939  0.00  0.00    +0.295 HD
ENDBRANCH  24   5
ENDBRANCH  22  24
ENDBRANCH  14  15
ENDBRANCH   7  14
ENDBRANCH   9   7
BRANCH  11  13
ATOM     13  C   UNL     1      -1.055   4.611  25.050  0.00  0.00    +0.138 C 
BRANCH  13   8
ATOM      4  O   UNL     1       0.478   2.403  26.058  0.00  0.00    -0.270 OA
ATOM      8  N   UNL     1      -0.591   3.478  24.301  0.00  0.00    -0.308 N 
ATOM     16  C   UNL     1       0.150   2.449  24.876  0.00  0.00    +0.251 C 
ATOM     29  H   UNL     1      -0.813   3.456  23.312  0.00  0.00    +0.149 HD
BRANCH  16  19
ATOM      1  S   UNL     1       2.202   1.316  23.419  0.00  0.00    -0.092 S 
ATOM     19  C   UNL     1       0.579   1.360  23.961  0.00  0.00    +0.074 A 
ATOM     23  C   UNL     1      -0.165   0.319  23.449  0.00  0.00    +0.021 A 
ATOM     25  C   UNL     1       0.608  -0.526  22.602  0.00  0.00    +0.008 A 
ATOM     26  C   UNL     1       1.914  -0.098  22.498  0.00  0.00    +0.046 A 
ENDBRANCH  16  19
ENDBRANCH  13   8
ENDBRANCH  11  13
TORSDOF 9
ENDMDL
MODEL 4
REMARK VINA RESULT:      -3.7      2.559      5.132
REMARK  Name = 75536603
REMARK  9 active torsions:
REMARK  status: ('A' for Active; 'I' for Inactive)
REMARK    1  A    between atoms: O_3  and  C_10
REMARK    2  A    between atoms: O_5  and  C_24
REMARK    3  A    between atoms: N_7  and  C_9
REMARK    4  A    between atoms: N_7  and  C_14
REMARK    5  A    between atoms: N_8  and  C_13
REMARK    6  A    between atoms: C_11  and  C_13
REMARK    7  A    between atoms: C_14  and  C_15
REMARK    8  A    between atoms: C_16  and  C_19
REMARK    9  A    between atoms: C_22  and  C_24
REMARK                            x       y       z     vdW  Elec       q    Type
REMARK                         _______ _______ _______ _____ _____    ______ ____
ROOT
ATOM      2  O   UNL     1      -5.851   2.711  26.301  0.00  0.00    -0.371 OA
ATOM      9  C   UNL     1      -4.437   4.138  25.033  0.00  0.00    +0.111 C 
ATOM     10  C   UNL     1      -4.468   2.767  24.383  0.00  0.00    +0.164 C 
ATOM     11  C   UNL     1      -5.755   2.196  24.962  0.00  0.00    +0.165 C 
ATOM     12  C   UNL     1      -4.943   3.820  26.431  0.00  0.00    +0.181 C 
ENDROOT
BRANCH  10   3
ATOM      3  O   UNL     1      -4.508   2.833  22.970  0.00  0.00    -0.388 OA
ATOM     28  H   UNL     1      -3.742   2.347  22.620  0.00  0.00    +0.210 HD
ENDBRANCH  10   3
BRANCH   9   7
ATOM      7  N   UNL     1      -3.120   4.753  25.035  0.00  0.00    -0.305 NA
ATOM     27  H   UNL     1      -3.209   5.729  25.317  0.00  0.00    +0.123 HD
BRANCH   7  14
ATOM     14  C   UNL     1      -2.225   4.074  25.965  0.00  0.00    +0.116 C 
BRANCH  14  15
ATOM     15  C   UNL     1      -1.250   3.177  25.250  0.00  0.00    -0.034 A 
ATOM     17  C   UNL     1      -0.087   2.756  25.897  0.00  0.00    +0.006 A 
ATOM     18  C   UNL     1      -1.507   2.766  23.942  0.00  0.00    +0.006 A 
ATOM     20  C   UNL     1       0.817   1.925  25.235  0.00  0.00    +0.015 A 
ATOM     21  C   UNL     1      -0.603   1.935  23.281  0.00  0.00    +0.015 A 
ATOM     22  C   UNL     1       0.559   1.514  23.928  0.00  0.00    +0.059 A 
BRANCH  22  24
ATOM      6  O   UNL     1       1.222  -0.430  22.700  0.00  0.00    -0.245 OA
ATOM     24  C   UNL     1       1.501   0.647  23.238  0.00  0.00    +0.337 C 
BRANCH  24   5
ATOM      5  O   UNL     1       2.767   1.149  23.239  0.00  0.00    -0.477 OA
ATOM     30  H   UNL     1       3.002   1.546  22.373  0.00  0.00    +0.295 HD
ENDBRANCH  24   5
ENDBRANCH  22  24
ENDBRANCH  14  15
ENDBRANCH   7  14
ENDBRANCH   9   7
BRANCH  11  13
ATOM     13  C   UNL     1      -5.780   0.679  24.992  0.00  0.00    +0.138 C 
BRANCH  13   8
ATOM      4  O   UNL     1      -4.801  -1.747  23.810  0.00  0.00    -0.270 OA
ATOM      8  N   UNL     1      -4.458   0.137  25.122  0.00  0.00    -0.308 N 
ATOM     16  C   UNL     1      -4.070  -1.052  24.510  0.00  0.00    +0.251 C 
ATOM     29  H   UNL     1      -3.803   0.652  25.699  0.00  0.00    +0.149 HD
BRANCH  16  19
ATOM      1  S   UNL     1      -1.716  -0.628  25.888  0.00  0.00    -0.092 S 
ATOM     19  C   UNL     1      -2.673  -1.493  24.763  0.00  0.00    +0.074 A 
ATOM     23  C   UNL     1      -1.988  -2.550  24.206  0.00  0.00    +0.021 A 
ATOM     25  C   UNL     1      -0.659  -2.650  24.708  0.00  0.00    +0.008 A 
ATOM     26  C   UNL     1      -0.379  -1.666  25.631  0.00  0.00    +0.046 A 
ENDBRANCH  16  19
ENDBRANCH  13   8
ENDBRANCH  11  13
TORSDOF 9
ENDMDL
MODEL 5
REMARK VINA RESULT:      -3.5      1.923      4.165
REMARK  Name = 75536603
REMARK  9 active torsions:
REMARK  status: ('A' for Active; 'I' for Inactive)
REMARK    1  A    between atoms: O_3  and  C_10
REMARK    2  A    between atoms: O_5  and  C_24
REMARK    3  A    between atoms: N_7  and  C_9
REMARK    4  A    between atoms: N_7  and  C_14
REMARK    5  A    between atoms: N_8  and  C_13
REMARK    6  A    between atoms: C_11  and  C_13
REMARK    7  A    between atoms: C_14  and  C_15
REMARK    8  A    between atoms: C_16  and  C_19
REMARK    9  A    between atoms: C_22  and  C_24
REMARK                            x       y       z     vdW  Elec       q    Type
REMARK                         _______ _______ _______ _____ _____    ______ ____
ROOT
ATOM      2  O   UNL     1      -1.421  -1.047  26.429  0.00  0.00    -0.371 OA
ATOM      9  C   UNL     1      -2.864  -2.572  25.318  0.00  0.00    +0.111 C 
ATOM     10  C   UNL     1      -1.764  -2.148  24.364  0.00  0.00    +0.164 C 
ATOM     11  C   UNL     1      -0.705  -1.651  25.338  0.00  0.00    +0.165 C 
ATOM     12  C   UNL     1      -2.793  -1.474  26.367  0.00  0.00    +0.181 C 
ENDROOT
BRANCH  10   3
ATOM      3  O   UNL     1      -1.289  -3.216  23.567  0.00  0.00    -0.388 OA
ATOM     28  H   UNL     1      -0.921  -2.845  22.747  0.00  0.00    +0.210 HD
ENDBRANCH  10   3
BRANCH   9   7
ATOM      7  N   UNL     1      -4.173  -2.672  24.692  0.00  0.00    -0.305 NA
ATOM     27  H   UNL     1      -4.887  -2.400  25.368  0.00  0.00    +0.123 HD
BRANCH   7  14
ATOM     14  C   UNL     1      -4.267  -1.798  23.529  0.00  0.00    +0.116 C 
BRANCH  14  15
ATOM     15  C   UNL     1      -4.452  -0.357  23.925  0.00  0.00    -0.034 A 
ATOM     17  C   UNL     1      -5.541   0.014  24.716  0.00  0.00    +0.006 A 
ATOM     18  C   UNL     1      -3.538   0.607  23.501  0.00  0.00    +0.006 A 
ATOM     20  C   UNL     1      -5.713   1.348  25.083  0.00  0.00    +0.015 A 
ATOM     21  C   UNL     1      -3.711   1.942  23.868  0.00  0.00    +0.015 A 
ATOM     22  C   UNL     1      -4.798   2.312  24.659  0.00  0.00    +0.059 A 
BRANCH  22  24
ATOM      6  O   UNL     1      -4.335   4.659  24.594  0.00  0.00    -0.245 OA
ATOM     24  C   UNL     1      -4.978   3.704  25.043  0.00  0.00    +0.337 C 
BRANCH  24   5
ATOM      5  O   UNL     1      -5.956   3.864  25.975  0.00  0.00    -0.477 OA
ATOM     30  H   UNL     1      -5.682   4.478  26.690  0.00  0.00    +0.295 HD
ENDBRANCH  24   5
ENDBRANCH  22  24
ENDBRANCH  14  15
ENDBRANCH   7  14
ENDBRANCH   9   7
BRANCH  11  13
ATOM     13  C   UNL     1       0.248  -0.640  24.727  0.00  0.00    +0.138 C 
BRANCH  13   8
ATOM      4  O   UNL     1       1.487   1.759  23.753  0.00  0.00    -0.270 OA
ATOM      8  N   UNL     1      -0.251   0.698  24.865  0.00  0.00    -0.308 N 
ATOM     16  C   UNL     1       0.420   1.807  24.358  0.00  0.00    +0.251 C 
ATOM     29  H   UNL     1      -1.124   0.815  25.368  0.00  0.00    +0.149 HD
BRANCH  16  19
ATOM      1  S   UNL     1      -1.260   3.311  25.950  0.00  0.00    -0.092 S 
ATOM     19  C   UNL     1      -0.214   3.128  24.607  0.00  0.00    +0.074 A 
ATOM     23  C   UNL     1      -0.087   4.296  23.888  0.00  0.00    +0.021 A 
ATOM     25  C   UNL     1      -0.858   5.355  24.447  0.00  0.00    +0.008 A 
ATOM     26  C   UNL     1      -1.546   4.956  25.572  0.00  0.00    +0.046 A 
ENDBRANCH  16  19
ENDBRANCH  13   8
ENDBRANCH  11  13
TORSDOF 9
ENDMDL
MODEL 6
REMARK VINA RESULT:      -3.0      2.556      5.154
REMARK  Name = 75536603
REMARK  9 active torsions:
REMARK  status: ('A' for Active; 'I' for Inactive)
REMARK    1  A    between atoms: O_3  and  C_10
REMARK    2  A    between atoms: O_5  and  C_24
REMARK    3  A    between atoms: N_7  and  C_9
REMARK    4  A    between atoms: N_7  and  C_14
REMARK    5  A    between atoms: N_8  and  C_13
REMARK    6  A    between atoms: C_11  and  C_13
REMARK    7  A    between atoms: C_14  and  C_15
REMARK    8  A    between atoms: C_16  and  C_19
REMARK    9  A    between atoms: C_22  and  C_24
REMARK                            x       y       z     vdW  Elec       q    Type
REMARK                         _______ _______ _______ _____ _____    ______ ____
ROOT
ATOM      2  O   UNL     1      -4.834   3.757  26.447  0.00  0.00    -0.371 OA
ATOM      9  C   UNL     1      -2.566   3.987  25.780  0.00  0.00    +0.111 C 
ATOM     10  C   UNL     1      -3.290   3.109  24.776  0.00  0.00    +0.164 C 
ATOM     11  C   UNL     1      -4.739   3.500  25.035  0.00  0.00    +0.165 C 
ATOM     12  C   UNL     1      -3.505   3.918  26.973  0.00  0.00    +0.181 C 
ENDROOT
BRANCH  10   3
ATOM      3  O   UNL     1      -2.904   3.372  23.441  0.00  0.00    -0.388 OA
ATOM     28  H   UNL     1      -1.936   3.472  23.417  0.00  0.00    +0.210 HD
ENDBRANCH  10   3
BRANCH   9   7
ATOM      7  N   UNL     1      -1.221   3.530  26.091  0.00  0.00    -0.305 NA
ATOM     27  H   UNL     1      -0.936   3.923  26.988  0.00  0.00    +0.123 HD
BRANCH   7  14
ATOM     14  C   UNL     1      -1.168   2.075  26.175  0.00  0.00    +0.116 C 
BRANCH  14  15
ATOM     15  C   UNL     1      -0.327   1.481  25.077  0.00  0.00    -0.034 A 
ATOM     17  C   UNL     1      -0.530   0.158  24.682  0.00  0.00    +0.006 A 
ATOM     18  C   UNL     1       0.656   2.251  24.455  0.00  0.00    +0.006 A 
ATOM     20  C   UNL     1       0.249  -0.394  23.665  0.00  0.00    +0.015 A 
ATOM     21  C   UNL     1       1.434   1.699  23.437  0.00  0.00    +0.015 A 
ATOM     22  C   UNL     1       1.230   0.377  23.043  0.00  0.00    +0.059 A 
BRANCH  22  24
ATOM      6  O   UNL     1       3.272  -0.317  22.004  0.00  0.00    -0.245 OA
ATOM     24  C   UNL     1       2.042  -0.198  21.981  0.00  0.00    +0.337 C 
BRANCH  24   5
ATOM      5  O   UNL     1       1.295  -0.609  20.920  0.00  0.00    -0.477 OA
ATOM     30  H   UNL     1       0.434  -0.141  20.876  0.00  0.00    +0.295 HD
ENDBRANCH  24   5
ENDBRANCH  22  24
ENDBRANCH  14  15
ENDBRANCH   7  14
ENDBRANCH   9   7
BRANCH  11  13
ATOM     13  C   UNL     1      -5.732   2.423  24.641  0.00  0.00    +0.138 C 
BRANCH  13   8
ATOM      4  O   UNL     1      -3.900   0.899  23.040  0.00  0.00    -0.270 OA
ATOM      8  N   UNL     1      -5.225   1.112  24.933  0.00  0.00    -0.308 N 
ATOM     16  C   UNL     1      -4.336   0.446  24.095  0.00  0.00    +0.251 C 
ATOM     29  H   UNL     1      -5.555   0.669  25.784  0.00  0.00    +0.149 HD
BRANCH  16  19
ATOM      1  S   UNL     1      -3.286  -1.138  26.096  0.00  0.00    -0.092 S 
ATOM     19  C   UNL     1      -3.926  -0.916  24.524  0.00  0.00    +0.074 A 
ATOM     23  C   UNL     1      -3.983  -2.098  23.818  0.00  0.00    +0.021 A 
ATOM     25  C   UNL     1      -3.494  -3.199  24.578  0.00  0.00    +0.008 A 
ATOM     26  C   UNL     1      -3.082  -2.818  25.836  0.00  0.00    +0.046 A 
ENDBRANCH  16  19
ENDBRANCH  13   8
ENDBRANCH  11  13
TORSDOF 9
ENDMDL
MODEL 7
REMARK VINA RESULT:      -2.9      3.286      5.450
REMARK  Name = 75536603
REMARK  9 active torsions:
REMARK  status: ('A' for Active; 'I' for Inactive)
REMARK    1  A    between atoms: O_3  and  C_10
REMARK    2  A    between atoms: O_5  and  C_24
REMARK    3  A    between atoms: N_7  and  C_9
REMARK    4  A    between atoms: N_7  and  C_14
REMARK    5  A    between atoms: N_8  and  C_13
REMARK    6  A    between atoms: C_11  and  C_13
REMARK    7  A    between atoms: C_14  and  C_15
REMARK    8  A    between atoms: C_16  and  C_19
REMARK    9  A    between atoms: C_22  and  C_24
REMARK                            x       y       z     vdW  Elec       q    Type
REMARK                         _______ _______ _______ _____ _____    ______ ____
ROOT
ATOM      2  O   UNL     1      -0.731  -0.613  25.531  0.00  0.00    -0.371 OA
ATOM      9  C   UNL     1      -3.042  -1.125  25.733  0.00  0.00    +0.111 C 
ATOM     10  C   UNL     1      -2.623  -1.293  24.284  0.00  0.00    +0.164 C 
ATOM     11  C   UNL     1      -1.116  -1.456  24.431  0.00  0.00    +0.165 C 
ATOM     12  C   UNL     1      -1.911  -0.265  26.276  0.00  0.00    +0.181 C 
ENDROOT
BRANCH  10   3
ATOM      3  O   UNL     1      -3.218  -2.420  23.670  0.00  0.00    -0.388 OA
ATOM     28  H   UNL     1      -2.522  -2.920  23.211  0.00  0.00    +0.210 HD
ENDBRANCH  10   3
BRANCH   9   7
ATOM      7  N   UNL     1      -4.349  -0.509  25.894  0.00  0.00    -0.305 NA
ATOM     27  H   UNL     1      -4.357   0.031  26.760  0.00  0.00    +0.123 HD
BRANCH   7  14
ATOM     14  C   UNL     1      -4.650   0.381  24.780  0.00  0.00    +0.116 C 
BRANCH  14  15
ATOM     15  C   UNL     1      -3.827   1.641  24.829  0.00  0.00    -0.034 A 
ATOM     17  C   UNL     1      -4.137   2.640  25.753  0.00  0.00    +0.006 A 
ATOM     18  C   UNL     1      -2.755   1.810  23.953  0.00  0.00    +0.006 A 
ATOM     20  C   UNL     1      -3.374   3.807  25.800  0.00  0.00    +0.015 A 
ATOM     21  C   UNL     1      -1.992   2.977  24.000  0.00  0.00    +0.015 A 
ATOM     22  C   UNL     1      -2.302   3.975  24.923  0.00  0.00    +0.059 A 
BRANCH  22  24
ATOM      6  O   UNL     1      -1.917   6.303  25.323  0.00  0.00    -0.245 OA
ATOM     24  C   UNL     1      -1.506   5.192  24.972  0.00  0.00    +0.337 C 
BRANCH  24   5
ATOM      5  O   UNL     1      -0.218   4.987  24.583  0.00  0.00    -0.477 OA
ATOM     30  H   UNL     1      -0.095   4.100  24.181  0.00  0.00    +0.295 HD
ENDBRANCH  24   5
ENDBRANCH  22  24
ENDBRANCH  14  15
ENDBRANCH   7  14
ENDBRANCH   9   7
BRANCH  11  13
ATOM     13  C   UNL     1      -0.344  -1.060  23.186  0.00  0.00    +0.138 C 
BRANCH  13   8
ATOM      4  O   UNL     1       1.708  -0.322  21.319  0.00  0.00    -0.270 OA
ATOM      8  N   UNL     1       1.026  -0.763  23.492  0.00  0.00    -0.308 N 
ATOM     16  C   UNL     1       1.955  -0.413  22.518  0.00  0.00    +0.251 C 
ATOM     29  H   UNL     1       1.306  -0.833  24.465  0.00  0.00    +0.149 HD
BRANCH  16  19
ATOM      1  S   UNL     1       4.187  -1.415  23.797  0.00  0.00    -0.092 S 
ATOM     19  C   UNL     1       3.341  -0.162  22.993  0.00  0.00    +0.074 A 
ATOM     23  C   UNL     1       4.097   0.985  22.884  0.00  0.00    +0.021 A 
ATOM     25  C   UNL     1       5.388   0.832  23.467  0.00  0.00    +0.008 A 
ATOM     26  C   UNL     1       5.569  -0.425  24.001  0.00  0.00    +0.046 A 
ENDBRANCH  16  19
ENDBRANCH  13   8
ENDBRANCH  11  13
TORSDOF 9
ENDMDL
MODEL 8
REMARK VINA RESULT:      -2.8      3.816      6.676
REMARK  Name = 75536603
REMARK  9 active torsions:
REMARK  status: ('A' for Active; 'I' for Inactive)
REMARK    1  A    between atoms: O_3  and  C_10
REMARK    2  A    between atoms: O_5  and  C_24
REMARK    3  A    between atoms: N_7  and  C_9
REMARK    4  A    between atoms: N_7  and  C_14
REMARK    5  A    between atoms: N_8  and  C_13
REMARK    6  A    between atoms: C_11  and  C_13
REMARK    7  A    between atoms: C_14  and  C_15
REMARK    8  A    between atoms: C_16  and  C_19
REMARK    9  A    between atoms: C_22  and  C_24
REMARK                            x       y       z     vdW  Elec       q    Type
REMARK                         _______ _______ _______ _____ _____    ______ ____
ROOT
ATOM      2  O   UNL     1      -0.241   0.492  25.539  0.00  0.00    -0.371 OA
ATOM      9  C   UNL     1      -1.031   2.617  24.830  0.00  0.00    +0.111 C 
ATOM     10  C   UNL     1      -0.783   1.749  23.610  0.00  0.00    +0.164 C 
ATOM     11  C   UNL     1      -0.816   0.358  24.228  0.00  0.00    +0.165 C 
ATOM     12  C   UNL     1      -0.220   1.887  25.888  0.00  0.00    +0.181 C 
ENDROOT
BRANCH  10   3
ATOM      3  O   UNL     1      -1.776   1.908  22.615  0.00  0.00    -0.388 OA
ATOM     28  H   UNL     1      -2.453   1.222  22.747  0.00  0.00    +0.210 HD
ENDBRANCH  10   3
BRANCH   9   7
ATOM      7  N   UNL     1      -0.618   4.000  24.655  0.00  0.00    -0.305 NA
ATOM     27  H   UNL     1      -0.220   4.113  23.723  0.00  0.00    +0.123 HD
BRANCH   7  14
ATOM     14  C   UNL     1      -1.751   4.908  24.797  0.00  0.00    +0.116 C 
BRANCH  14  15
ATOM     15  C   UNL     1      -3.030   4.167  25.083  0.00  0.00    -0.034 A 
ATOM     17  C   UNL     1      -3.729   3.556  24.041  0.00  0.00    +0.006 A 
ATOM     18  C   UNL     1      -3.517   4.091  26.387  0.00  0.00    +0.006 A 
ATOM     20  C   UNL     1      -4.914   2.869  24.304  0.00  0.00    +0.015 A 
ATOM     21  C   UNL     1      -4.703   3.404  26.651  0.00  0.00    +0.015 A 
ATOM     22  C   UNL     1      -5.400   2.793  25.609  0.00  0.00    +0.059 A 
BRANCH  22  24
ATOM      6  O   UNL     1      -7.046   1.760  27.006  0.00  0.00    -0.245 OA
ATOM     24  C   UNL     1      -6.636   2.076  25.884  0.00  0.00    +0.337 C 
BRANCH  24   5
ATOM      5  O   UNL     1      -7.326   1.775  24.750  0.00  0.00    -0.477 OA
ATOM     30  H   UNL     1      -7.515   0.815  24.682  0.00  0.00    +0.295 HD
ENDBRANCH  24   5
ENDBRANCH  22  24
ENDBRANCH  14  15
ENDBRANCH   7  14
ENDBRANCH   9   7
BRANCH  11  13
ATOM     13  C   UNL     1      -0.039  -0.673  23.429  0.00  0.00    +0.138 C 
BRANCH  13   8
ATOM      4  O   UNL     1       2.005  -0.006  21.528  0.00  0.00    -0.270 OA
ATOM      8  N   UNL     1       1.369  -0.579  23.685  0.00  0.00    -0.308 N 
ATOM     16  C   UNL     1       2.292  -0.248  22.697  0.00  0.00    +0.251 C 
ATOM     29  H   UNL     1       1.682  -0.781  24.628  0.00  0.00    +0.149 HD
BRANCH  16  19
ATOM      1  S   UNL     1       4.399  -1.604  23.854  0.00  0.00    -0.092 S 
ATOM     19  C   UNL     1       3.718  -0.218  23.115  0.00  0.00    +0.074 A 
ATOM     23  C   UNL     1       4.632   0.806  22.994  0.00  0.00    +0.021 A 
ATOM     25  C   UNL     1       5.908   0.447  23.516  0.00  0.00    +0.008 A 
ATOM     26  C   UNL     1       5.921  -0.836  24.016  0.00  0.00    +0.046 A 
ENDBRANCH  16  19
ENDBRANCH  13   8
ENDBRANCH  11  13
TORSDOF 9
ENDMDL
MODEL 9
REMARK VINA RESULT:      -2.5      3.494      5.998
REMARK  Name = 75536603
REMARK  9 active torsions:
REMARK  status: ('A' for Active; 'I' for Inactive)
REMARK    1  A    between atoms: O_3  and  C_10
REMARK    2  A    between atoms: O_5  and  C_24
REMARK    3  A    between atoms: N_7  and  C_9
REMARK    4  A    between atoms: N_7  and  C_14
REMARK    5  A    between atoms: N_8  and  C_13
REMARK    6  A    between atoms: C_11  and  C_13
REMARK    7  A    between atoms: C_14  and  C_15
REMARK    8  A    between atoms: C_16  and  C_19
REMARK    9  A    between atoms: C_22  and  C_24
REMARK                            x       y       z     vdW  Elec       q    Type
REMARK                         _______ _______ _______ _____ _____    ______ ____
ROOT
ATOM      2  O   UNL     1      -1.100  -0.329  25.801  0.00  0.00    -0.371 OA
ATOM      9  C   UNL     1      -2.545  -2.160  25.349  0.00  0.00    +0.111 C 
ATOM     10  C   UNL     1      -1.745  -1.842  24.100  0.00  0.00    +0.164 C 
ATOM     11  C   UNL     1      -0.570  -1.075  24.691  0.00  0.00    +0.165 C 
ATOM     12  C   UNL     1      -2.386  -0.874  26.144  0.00  0.00    +0.181 C 
ENDROOT
BRANCH  10   3
ATOM      3  O   UNL     1      -1.324  -3.002  23.410  0.00  0.00    -0.388 OA
ATOM     28  H   UNL     1      -1.466  -2.860  22.459  0.00  0.00    +0.210 HD
ENDBRANCH  10   3
BRANCH   9   7
ATOM      7  N   UNL     1      -3.935  -2.493  25.083  0.00  0.00    -0.305 NA
ATOM     27  H   UNL     1      -4.494  -2.272  25.907  0.00  0.00    +0.123 HD
BRANCH   7  14
ATOM     14  C   UNL     1      -4.448  -1.734  23.949  0.00  0.00    +0.116 C 
BRANCH  14  15
ATOM     15  C   UNL     1      -4.452  -0.253  24.221  0.00  0.00    -0.034 A 
ATOM     17  C   UNL     1      -5.297   0.274  25.197  0.00  0.00    +0.006 A 
ATOM     18  C   UNL     1      -3.611   0.593  23.497  0.00  0.00    +0.006 A 
ATOM     20  C   UNL     1      -5.302   1.646  25.450  0.00  0.00    +0.015 A 
ATOM     21  C   UNL     1      -3.615   1.964  23.750  0.00  0.00    +0.015 A 
ATOM     22  C   UNL     1      -4.460   2.490  24.726  0.00  0.00    +0.059 A 
BRANCH  22  24
ATOM      6  O   UNL     1      -3.563   4.709  24.682  0.00  0.00    -0.245 OA
ATOM     24  C   UNL     1      -4.464   3.921  24.990  0.00  0.00    +0.337 C 
BRANCH  24   5
ATOM      5  O   UNL     1      -5.593   4.329  25.632  0.00  0.00    -0.477 OA
ATOM     30  H   UNL     1      -5.389   4.785  26.477  0.00  0.00    +0.295 HD
ENDBRANCH  24   5
ENDBRANCH  22  24
ENDBRANCH  14  15
ENDBRANCH   7  14
ENDBRANCH   9   7
BRANCH  11  13
ATOM     13  C   UNL     1       0.087  -0.127  23.704  0.00  0.00    +0.138 C 
BRANCH  13   8
ATOM      4  O   UNL     1       2.070  -0.153  21.628  0.00  0.00    -0.270 OA
ATOM      8  N   UNL     1       1.511  -0.095  23.879  0.00  0.00    -0.308 N 
ATOM     16  C   UNL     1       2.401  -0.111  22.809  0.00  0.00    +0.251 C 
ATOM     29  H   UNL     1       1.858  -0.074  24.832  0.00  0.00    +0.149 HD
BRANCH  16  19
ATOM      1  S   UNL     1       4.554  -1.511  23.820  0.00  0.00    -0.092 S 
ATOM     19  C   UNL     1       3.846  -0.100  23.158  0.00  0.00    +0.074 A 
ATOM     23  C   UNL     1       4.759   0.923  23.024  0.00  0.00    +0.021 A 
ATOM     25  C   UNL     1       6.057   0.543  23.472  0.00  0.00    +0.008 A 
ATOM     26  C   UNL     1       6.086  -0.755  23.931  0.00  0.00    +0.046 A 
ENDBRANCH  16  19
ENDBRANCH  13   8
ENDBRANCH  11  13
TORSDOF 9
ENDMDL
MODEL 10
REMARK VINA RESULT:      -2.0      2.237      6.354
REMARK  Name = 75536603
REMARK  9 active torsions:
REMARK  status: ('A' for Active; 'I' for Inactive)
REMARK    1  A    between atoms: O_3  and  C_10
REMARK    2  A    between atoms: O_5  and  C_24
REMARK    3  A    between atoms: N_7  and  C_9
REMARK    4  A    between atoms: N_7  and  C_14
REMARK    5  A    between atoms: N_8  and  C_13
REMARK    6  A    between atoms: C_11  and  C_13
REMARK    7  A    between atoms: C_14  and  C_15
REMARK    8  A    between atoms: C_16  and  C_19
REMARK    9  A    between atoms: C_22  and  C_24
REMARK                            x       y       z     vdW  Elec       q    Type
REMARK                         _______ _______ _______ _____ _____    ______ ____
ROOT
ATOM      2  O   UNL     1      -0.531   5.038  24.210  0.00  0.00    -0.371 OA
ATOM      9  C   UNL     1      -2.190   4.719  25.880  0.00  0.00    +0.111 C 
ATOM     10  C   UNL     1      -1.424   3.424  25.691  0.00  0.00    +0.164 C 
ATOM     11  C   UNL     1      -0.143   3.932  25.044  0.00  0.00    +0.165 C 
ATOM     12  C   UNL     1      -1.851   5.460  24.596  0.00  0.00    +0.181 C 
ENDROOT
BRANCH  10   3
ATOM      3  O   UNL     1      -1.169   2.756  26.912  0.00  0.00    -0.388 OA
ATOM     28  H   UNL     1      -1.069   1.807  26.725  0.00  0.00    +0.210 HD
ENDBRANCH  10   3
BRANCH   9   7
ATOM      7  N   UNL     1      -3.620   4.530  26.062  0.00  0.00    -0.305 NA
ATOM     27  H   UNL     1      -4.036   5.409  26.370  0.00  0.00    +0.123 HD
BRANCH   7  14
ATOM     14  C   UNL     1      -4.257   4.118  24.816  0.00  0.00    +0.116 C 
BRANCH  14  15
ATOM     15  C   UNL     1      -4.261   2.621  24.657  0.00  0.00    -0.034 A 
ATOM     17  C   UNL     1      -3.474   2.024  23.671  0.00  0.00    +0.006 A 
ATOM     18  C   UNL     1      -5.049   1.830  25.493  0.00  0.00    +0.006 A 
ATOM     20  C   UNL     1      -3.477   0.637  23.522  0.00  0.00    +0.015 A 
ATOM     21  C   UNL     1      -5.052   0.444  25.344  0.00  0.00    +0.015 A 
ATOM     22  C   UNL     1      -4.265  -0.153  24.359  0.00  0.00    +0.059 A 
BRANCH  22  24
ATOM      6  O   UNL     1      -4.432  -2.206  23.141  0.00  0.00    -0.245 OA
ATOM     24  C   UNL     1      -4.267  -1.600  24.205  0.00  0.00    +0.337 C 
BRANCH  24   5
ATOM      5  O   UNL     1      -4.063  -2.249  25.383  0.00  0.00    -0.477 OA
ATOM     30  H   UNL     1      -4.340  -1.706  26.152  0.00  0.00    +0.295 HD
ENDBRANCH  24   5
ENDBRANCH  22  24
ENDBRANCH  14  15
ENDBRANCH   7  14
ENDBRANCH   9   7
BRANCH  11  13
ATOM     13  C   UNL     1       0.566   2.882  24.206  0.00  0.00    +0.138 C 
BRANCH  13   8
ATOM      4  O   UNL     1       1.310   0.456  22.865  0.00  0.00    -0.270 OA
ATOM      8  N   UNL     1       0.025   1.574  24.441  0.00  0.00    -0.308 N 
ATOM     16  C   UNL     1       0.448   0.449  23.740  0.00  0.00    +0.251 C 
ATOM     29  H   UNL     1      -0.703   1.495  25.142  0.00  0.00    +0.149 HD
BRANCH  16  19
ATOM      1  S   UNL     1      -0.694  -1.120  25.703  0.00  0.00    -0.092 S 
ATOM     19  C   UNL     1      -0.229  -0.829  24.081  0.00  0.00    +0.074 A 
ATOM     23  C   UNL     1      -0.562  -1.878  23.252  0.00  0.00    +0.021 A 
ATOM     25  C   UNL     1      -1.207  -2.934  23.958  0.00  0.00    +0.008 A 
ATOM     26  C   UNL     1      -1.342  -2.652  25.300  0.00  0.00    +0.046 A 
ENDBRANCH  16  19
ENDBRANCH  13   8
ENDBRANCH  11  13
TORSDOF 9
ENDMDL
