MODEL 1
REMARK VINA RESULT:      -3.3      0.000      0.000
REMARK  Name = 7673828
REMARK  5 active torsions:
REMARK  status: ('A' for Active; 'I' for Inactive)
REMARK    1  A    between atoms: N_5  and  C_20
REMARK    2  A    between atoms: C_17  and  C_19
REMARK    3  A    between atoms: C_20  and  C_23
REMARK    4  A    between atoms: C_20  and  C_24
REMARK    5  A    between atoms: C_25  and  C_28
REMARK                            x       y       z     vdW  Elec       q    Type
REMARK                         _______ _______ _______ _____ _____    ______ ____
ROOT
ATOM      1  O   UNL     1      14.154  -6.777  27.656  0.00  0.00    -0.267 OA
ATOM      2  O   UNL     1      14.419  -3.763  31.837  0.00  0.00    -0.253 OA
ATOM      3  N   UNL     1      14.946  -5.922  32.499  0.00  0.00    -0.285 N 
ATOM      4  N   UNL     1      14.856  -7.496  29.761  0.00  0.00    -0.311 N 
ATOM      5  N   UNL     1      16.629  -4.303  32.124  0.00  0.00    -0.297 N 
ATOM      7  C   UNL     1      13.273  -7.619  31.771  0.00  0.00    +0.027 C 
ATOM      8  C   UNL     1      15.636  -8.259  32.031  0.00  0.00    +0.054 C 
ATOM      9  C   UNL     1      14.198  -8.731  32.252  0.00  0.00    +0.018 C 
ATOM     10  C   UNL     1      13.536  -6.319  32.557  0.00  0.00    +0.114 C 
ATOM     11  C   UNL     1      13.475  -7.432  30.263  0.00  0.00    +0.130 C 
ATOM     12  C   UNL     1      15.889  -6.991  32.871  0.00  0.00    +0.119 C 
ATOM     13  C   UNL     1      15.896  -7.966  30.566  0.00  0.00    +0.027 A 
ATOM     14  C   UNL     1      17.126  -8.125  30.053  0.00  0.00    +0.022 A 
ATOM     15  C   UNL     1      15.053  -7.161  28.407  0.00  0.00    +0.259 A 
ATOM     16  C   UNL     1      15.273  -4.605  32.138  0.00  0.00    +0.302 C 
ATOM     17  C   UNL     1      16.451  -7.314  27.870  0.00  0.00    +0.047 A 
ATOM     18  C   UNL     1      17.405  -7.787  28.686  0.00  0.00    +0.015 A 
ATOM     29  H   UNL     1      17.328  -5.019  32.257  0.00  0.00    +0.150 HD
ENDROOT
BRANCH  17  19
ATOM     19  C   UNL     1      16.781  -6.942  26.483  0.00  0.00    -0.011 A 
ATOM     21  C   UNL     1      16.820  -5.598  26.110  0.00  0.00    +0.027 A 
ATOM     22  C   UNL     1      17.055  -7.935  25.542  0.00  0.00    +0.009 A 
ATOM     25  C   UNL     1      17.132  -5.249  24.795  0.00  0.00    +0.052 A 
ATOM     26  C   UNL     1      17.367  -7.586  24.229  0.00  0.00    +0.002 A 
ATOM     27  C   UNL     1      17.405  -6.242  23.855  0.00  0.00    +0.019 A 
BRANCH  25  28
ATOM      6  N   UNL     1      17.201  -2.754  24.100  0.00  0.00    -0.191 NA
ATOM     28  C   UNL     1      17.171  -3.873  24.412  0.00  0.00    +0.099 C 
ENDBRANCH  25  28
ENDBRANCH  17  19
BRANCH   5  20
ATOM     20  C   UNL     1      17.121  -2.992  31.762  0.00  0.00    +0.068 C 
ATOM     23  C   UNL     1      16.690  -2.631  30.346  0.00  0.00    +0.027 C 
ATOM     24  C   UNL     1      16.645  -1.951  32.766  0.00  0.00    +0.027 C 
ENDBRANCH   5  20
TORSDOF 3
ENDMDL
