MODEL 1
REMARK VINA RESULT:      -4.2      0.000      0.000
REMARK  Name = 45783688
REMARK  6 active torsions:
REMARK  status: ('A' for Active; 'I' for Inactive)
REMARK    1  A    between atoms: O_3  and  C_25
REMARK    2  A    between atoms: O_3  and  C_26
REMARK    3  A    between atoms: N_4  and  C_12
REMARK    4  A    between atoms: C_8  and  C_13
REMARK    5  A    between atoms: C_12  and  C_14
REMARK    6  A    between atoms: C_17  and  C_20
REMARK                            x       y       z     vdW  Elec       q    Type
REMARK                         _______ _______ _______ _____ _____    ______ ____
ROOT
ATOM      4  N   UNL     1      -4.862   1.532  25.245  0.00  0.00    -0.287 NA
ATOM      8  C   UNL     1      -4.187   2.352  24.218  0.00  0.00    +0.146 C 
ATOM      9  C   UNL     1      -4.709   3.781  24.455  0.00  0.00    +0.030 C 
ATOM     10  C   UNL     1      -5.715   3.655  25.591  0.00  0.00    +0.017 C 
ATOM     11  C   UNL     1      -6.130   2.199  25.539  0.00  0.00    +0.085 C 
ENDROOT
BRANCH   8  13
ATOM      2  O   UNL     1      -2.074   3.018  25.251  0.00  0.00    -0.336 OA
ATOM      5  N   UNL     1      -1.850   1.546  23.577  0.00  0.00    -0.190 NA
ATOM      6  N   UNL     1      -0.702   2.769  25.133  0.00  0.00    -0.056 NA
ATOM     13  C   UNL     1      -2.678   2.259  24.299  0.00  0.00    +0.245 A 
ATOM     17  C   UNL     1      -0.650   1.892  24.125  0.00  0.00    +0.204 A 
BRANCH  17  20
ATOM      7  N   UNL     1       2.968   1.587  23.319  0.00  0.00    -0.221 NA
ATOM     20  C   UNL     1       0.585   1.343  23.643  0.00  0.00    +0.041 A 
ATOM     22  C   UNL     1       0.625   0.085  23.051  0.00  0.00    +0.018 A 
ATOM     23  C   UNL     1       1.773   2.047  23.753  0.00  0.00    +0.126 A 
ATOM     24  C   UNL     1       1.837  -0.421  22.592  0.00  0.00    +0.068 A 
ATOM     25  C   UNL     1       2.969   0.362  22.748  0.00  0.00    +0.214 A 
BRANCH  25   3
ATOM      3  O   UNL     1       4.174  -0.116  22.305  0.00  0.00    -0.480 OA
ATOM     26  C   UNL     1       5.292   0.074  23.163  0.00  0.00    +0.279 C 
ENDBRANCH  25   3
ENDBRANCH  17  20
ENDBRANCH   8  13
BRANCH   4  12
ATOM     12  C   UNL     1      -5.052   0.146  24.839  0.00  0.00    +0.120 C 
BRANCH  12  14
ATOM      1 CL   UNL     1       0.018  -3.053  25.348  0.00  0.00    -0.084 Cl
ATOM     14  C   UNL     1      -3.784  -0.656  24.967  0.00  0.00    -0.033 A 
ATOM     15  C   UNL     1      -3.508  -1.674  24.056  0.00  0.00    +0.006 A 
ATOM     16  C   UNL     1      -2.884  -0.378  25.997  0.00  0.00    +0.006 A 
ATOM     18  C   UNL     1      -2.332  -2.416  24.174  0.00  0.00    +0.020 A 
ATOM     19  C   UNL     1      -1.710  -1.120  26.115  0.00  0.00    +0.020 A 
ATOM     21  C   UNL     1      -1.433  -2.139  25.204  0.00  0.00    +0.041 A 
ENDBRANCH  12  14
ENDBRANCH   4  12
TORSDOF 5
ENDMDL
MODEL 2
REMARK VINA RESULT:      -1.9      1.497      2.058
REMARK  Name = 45783688
REMARK  6 active torsions:
REMARK  status: ('A' for Active; 'I' for Inactive)
REMARK    1  A    between atoms: O_3  and  C_25
REMARK    2  A    between atoms: O_3  and  C_26
REMARK    3  A    between atoms: N_4  and  C_12
REMARK    4  A    between atoms: C_8  and  C_13
REMARK    5  A    between atoms: C_12  and  C_14
REMARK    6  A    between atoms: C_17  and  C_20
REMARK                            x       y       z     vdW  Elec       q    Type
REMARK                         _______ _______ _______ _____ _____    ______ ____
ROOT
ATOM      4  N   UNL     1      -3.664   2.723  25.607  0.00  0.00    -0.287 NA
ATOM      8  C   UNL     1      -2.998   3.299  24.422  0.00  0.00    +0.146 C 
ATOM      9  C   UNL     1      -2.422   4.641  24.912  0.00  0.00    +0.030 C 
ATOM     10  C   UNL     1      -2.866   4.759  26.363  0.00  0.00    +0.017 C 
ATOM     11  C   UNL     1      -4.078   3.852  26.440  0.00  0.00    +0.085 C 
ENDROOT
BRANCH   8  13
ATOM      2  O   UNL     1      -2.366   1.447  22.958  0.00  0.00    -0.336 OA
ATOM      5  N   UNL     1      -0.650   2.355  24.077  0.00  0.00    -0.190 NA
ATOM      6  N   UNL     1      -1.226   0.733  22.571  0.00  0.00    -0.056 NA
ATOM     13  C   UNL     1      -1.939   2.384  23.846  0.00  0.00    +0.245 A 
ATOM     17  C   UNL     1      -0.256   1.326  23.273  0.00  0.00    +0.204 A 
BRANCH  17  20
ATOM      7  N   UNL     1       3.457   1.522  23.188  0.00  0.00    -0.221 NA
ATOM     20  C   UNL     1       1.116   0.916  23.193  0.00  0.00    +0.041 A 
ATOM     22  C   UNL     1       1.456  -0.425  23.048  0.00  0.00    +0.018 A 
ATOM     23  C   UNL     1       2.145   1.842  23.258  0.00  0.00    +0.126 A 
ATOM     24  C   UNL     1       2.795  -0.792  22.972  0.00  0.00    +0.068 A 
ATOM     25  C   UNL     1       3.748   0.210  23.046  0.00  0.00    +0.214 A 
BRANCH  25   3
ATOM      3  O   UNL     1       5.075  -0.127  22.974  0.00  0.00    -0.480 OA
ATOM     26  C   UNL     1       5.674  -0.620  24.166  0.00  0.00    +0.279 C 
ENDBRANCH  25   3
ENDBRANCH  17  20
ENDBRANCH   8  13
BRANCH   4  12
ATOM     12  C   UNL     1      -4.782   1.852  25.270  0.00  0.00    +0.120 C 
BRANCH  12  14
ATOM      1 CL   UNL     1      -3.020  -3.839  24.427  0.00  0.00    -0.084 Cl
ATOM     14  C   UNL     1      -4.340   0.428  25.058  0.00  0.00    -0.033 A 
ATOM     15  C   UNL     1      -3.441  -0.162  25.945  0.00  0.00    +0.006 A 
ATOM     16  C   UNL     1      -4.831  -0.302  23.976  0.00  0.00    +0.006 A 
ATOM     18  C   UNL     1      -3.032  -1.482  25.750  0.00  0.00    +0.020 A 
ATOM     19  C   UNL     1      -4.422  -1.620  23.779  0.00  0.00    +0.020 A 
ATOM     21  C   UNL     1      -3.522  -2.211  24.667  0.00  0.00    +0.041 A 
ENDBRANCH  12  14
ENDBRANCH   4  12
TORSDOF 5
ENDMDL
MODEL 3
REMARK VINA RESULT:      -0.8      2.579      4.299
REMARK  Name = 45783688
REMARK  6 active torsions:
REMARK  status: ('A' for Active; 'I' for Inactive)
REMARK    1  A    between atoms: O_3  and  C_25
REMARK    2  A    between atoms: O_3  and  C_26
REMARK    3  A    between atoms: N_4  and  C_12
REMARK    4  A    between atoms: C_8  and  C_13
REMARK    5  A    between atoms: C_12  and  C_14
REMARK    6  A    between atoms: C_17  and  C_20
REMARK                            x       y       z     vdW  Elec       q    Type
REMARK                         _______ _______ _______ _____ _____    ______ ____
ROOT
ATOM      4  N   UNL     1      -3.229  -0.640  24.668  0.00  0.00    -0.287 NA
ATOM      8  C   UNL     1      -2.056  -1.538  24.671  0.00  0.00    +0.146 C 
ATOM      9  C   UNL     1      -2.516  -2.784  23.891  0.00  0.00    +0.030 C 
ATOM     10  C   UNL     1      -3.975  -2.520  23.543  0.00  0.00    +0.017 C 
ATOM     11  C   UNL     1      -4.409  -1.500  24.576  0.00  0.00    +0.085 C 
ENDROOT
BRANCH   8  13
ATOM      2  O   UNL     1      -1.043   0.080  23.146  0.00  0.00    -0.336 OA
ATOM      5  N   UNL     1       0.439  -1.133  24.309  0.00  0.00    -0.190 NA
ATOM      6  N   UNL     1       0.223   0.519  22.741  0.00  0.00    -0.056 NA
ATOM     13  C   UNL     1      -0.826  -0.893  24.070  0.00  0.00    +0.245 A 
ATOM     17  C   UNL     1       1.044  -0.243  23.470  0.00  0.00    +0.204 A 
BRANCH  17  20
ATOM      7  N   UNL     1       4.641  -1.145  23.746  0.00  0.00    -0.221 NA
ATOM     20  C   UNL     1       2.472  -0.140  23.386  0.00  0.00    +0.041 A 
ATOM     22  C   UNL     1       3.078   1.007  22.886  0.00  0.00    +0.018 A 
ATOM     23  C   UNL     1       3.291  -1.178  23.799  0.00  0.00    +0.126 A 
ATOM     24  C   UNL     1       4.465   1.079  22.816  0.00  0.00    +0.068 A 
ATOM     25  C   UNL     1       5.195  -0.014  23.256  0.00  0.00    +0.214 A 
BRANCH  25   3
ATOM      3  O   UNL     1       6.564   0.033  23.196  0.00  0.00    -0.480 OA
ATOM     26  C   UNL     1       7.216  -1.082  22.602  0.00  0.00    +0.279 C 
ENDBRANCH  25   3
ENDBRANCH  17  20
ENDBRANCH   8  13
BRANCH   4  12
ATOM     12  C   UNL     1      -3.280   0.241  25.827  0.00  0.00    +0.120 C 
BRANCH  12  14
ATOM      1 CL   UNL     1      -0.896   5.636  24.643  0.00  0.00    -0.084 Cl
ATOM     14  C   UNL     1      -2.684   1.592  25.532  0.00  0.00    -0.033 A 
ATOM     15  C   UNL     1      -1.341   1.838  25.813  0.00  0.00    +0.006 A 
ATOM     16  C   UNL     1      -3.475   2.597  24.975  0.00  0.00    +0.006 A 
ATOM     18  C   UNL     1      -0.788   3.089  25.539  0.00  0.00    +0.020 A 
ATOM     19  C   UNL     1      -2.923   3.848  24.702  0.00  0.00    +0.020 A 
ATOM     21  C   UNL     1      -1.579   4.095  24.983  0.00  0.00    +0.041 A 
ENDBRANCH  12  14
ENDBRANCH   4  12
TORSDOF 5
ENDMDL
MODEL 4
REMARK VINA RESULT:      -0.8      2.254      3.921
REMARK  Name = 45783688
REMARK  6 active torsions:
REMARK  status: ('A' for Active; 'I' for Inactive)
REMARK    1  A    between atoms: O_3  and  C_25
REMARK    2  A    between atoms: O_3  and  C_26
REMARK    3  A    between atoms: N_4  and  C_12
REMARK    4  A    between atoms: C_8  and  C_13
REMARK    5  A    between atoms: C_12  and  C_14
REMARK    6  A    between atoms: C_17  and  C_20
REMARK                            x       y       z     vdW  Elec       q    Type
REMARK                         _______ _______ _______ _____ _____    ______ ____
ROOT
ATOM      4  N   UNL     1      -4.375  -0.506  24.108  0.00  0.00    -0.287 NA
ATOM      8  C   UNL     1      -3.430  -1.036  25.112  0.00  0.00    +0.146 C 
ATOM      9  C   UNL     1      -3.401  -2.554  24.857  0.00  0.00    +0.030 C 
ATOM     10  C   UNL     1      -4.404  -2.790  23.736  0.00  0.00    +0.017 C 
ATOM     11  C   UNL     1      -5.319  -1.585  23.817  0.00  0.00    +0.085 C 
ENDROOT
BRANCH   8  13
ATOM      2  O   UNL     1      -1.786   0.589  25.906  0.00  0.00    -0.336 OA
ATOM      5  N   UNL     1      -1.079  -0.663  24.188  0.00  0.00    -0.190 NA
ATOM      6  N   UNL     1      -0.483   1.014  25.625  0.00  0.00    -0.056 NA
ATOM     13  C   UNL     1      -2.060  -0.400  25.015  0.00  0.00    +0.245 A 
ATOM     17  C   UNL     1      -0.134   0.230  24.601  0.00  0.00    +0.204 A 
BRANCH  17  20
ATOM      7  N   UNL     1       3.083  -0.821  23.059  0.00  0.00    -0.221 NA
ATOM     20  C   UNL     1       1.151   0.313  23.968  0.00  0.00    +0.041 A 
ATOM     22  C   UNL     1       1.715   1.544  23.652  0.00  0.00    +0.018 A 
ATOM     23  C   UNL     1       1.869  -0.830  23.654  0.00  0.00    +0.126 A 
ATOM     24  C   UNL     1       2.963   1.593  23.039  0.00  0.00    +0.068 A 
ATOM     25  C   UNL     1       3.600   0.393  22.767  0.00  0.00    +0.214 A 
BRANCH  25   3
ATOM      3  O   UNL     1       4.830   0.416  22.163  0.00  0.00    -0.480 OA
ATOM     26  C   UNL     1       5.941   0.022  22.959  0.00  0.00    +0.279 C 
ENDBRANCH  25   3
ENDBRANCH  17  20
ENDBRANCH   8  13
BRANCH   4  12
ATOM     12  C   UNL     1      -5.049   0.712  24.540  0.00  0.00    +0.120 C 
BRANCH  12  14
ATOM      1 CL   UNL     1      -1.259   5.374  24.860  0.00  0.00    -0.084 Cl
ATOM     14  C   UNL     1      -4.101   1.879  24.620  0.00  0.00    -0.033 A 
ATOM     15  C   UNL     1      -4.082   2.685  25.757  0.00  0.00    +0.006 A 
ATOM     16  C   UNL     1      -3.241   2.154  23.556  0.00  0.00    +0.006 A 
ATOM     18  C   UNL     1      -3.203   3.767  25.831  0.00  0.00    +0.020 A 
ATOM     19  C   UNL     1      -2.364   3.235  23.629  0.00  0.00    +0.020 A 
ATOM     21  C   UNL     1      -2.344   4.042  24.767  0.00  0.00    +0.041 A 
ENDBRANCH  12  14
ENDBRANCH   4  12
TORSDOF 5
ENDMDL
