MODEL 1
REMARK VINA RESULT:       7.1      0.000      0.000
REMARK  Name = 11884130
REMARK  8 active torsions:
REMARK  status: ('A' for Active; 'I' for Inactive)
REMARK    1  A    between atoms: O_3  and  C_13
REMARK    2  A    between atoms: O_3  and  C_17
REMARK    3  A    between atoms: O_6  and  C_25
REMARK    4  A    between atoms: O_6  and  C_26
REMARK    5  A    between atoms: N_7  and  C_12
REMARK    6  A    between atoms: N_8  and  C_18
REMARK    7  A    between atoms: N_9  and  C_19
REMARK    8  A    between atoms: C_19  and  C_22
REMARK                            x       y       z     vdW  Elec       q    Type
REMARK                         _______ _______ _______ _____ _____    ______ ____
ROOT
ATOM      4  O   UNL     1      -2.093   1.054  24.498  0.00  0.00    -0.252 OA
ATOM      7  N   UNL     1      -3.386  -0.791  23.982  0.00  0.00    -0.292 N 
ATOM      8  N   UNL     1      -1.223  -0.706  23.211  0.00  0.00    -0.269 N 
ATOM     16  C   UNL     1      -2.206  -0.038  23.946  0.00  0.00    +0.304 C 
ATOM     32  H   UNL     1      -3.380  -1.715  23.558  0.00  0.00    +0.151 HD
ATOM     33  H   UNL     1      -1.482  -1.607  22.817  0.00  0.00    +0.156 HD
ENDROOT
BRANCH   7  12
ATOM      1  O   UNL     1      -3.945   1.363  26.180  0.00  0.00    -0.368 OA
ATOM      2  O   UNL     1      -6.466   1.141  24.449  0.00  0.00    -0.368 OA
ATOM     10  C   UNL     1      -5.071   0.965  24.131  0.00  0.00    +0.173 C 
ATOM     11  C   UNL     1      -4.303   1.993  24.938  0.00  0.00    +0.192 C 
ATOM     12  C   UNL     1      -4.579  -0.359  24.669  0.00  0.00    +0.131 C 
ATOM     13  C   UNL     1      -5.328   3.083  25.139  0.00  0.00    +0.235 C 
ATOM     14  C   UNL     1      -4.291  -0.029  26.123  0.00  0.00    +0.185 C 
ATOM     15  C   UNL     1      -6.607   2.292  25.296  0.00  0.00    +0.207 C 
BRANCH  13   3
ATOM      3  O   UNL     1      -5.070   3.900  26.258  0.00  0.00    -0.442 OA
BRANCH   3  17
ATOM      5  O   UNL     1      -3.227   4.215  27.593  0.00  0.00    -0.226 OA
ATOM      9  N   UNL     1      -3.137   4.598  25.307  0.00  0.00    -0.281 N 
ATOM     17  C   UNL     1      -3.755   4.239  26.485  0.00  0.00    +0.401 C 
ATOM     34  H   UNL     1      -3.688   4.581  24.454  0.00  0.00    +0.152 HD
BRANCH   9  19
ATOM     19  C   UNL     1      -1.753   5.005  25.218  0.00  0.00    +0.104 C 
ATOM     22  C   UNL     1      -0.826   3.810  25.146  0.00  0.00    +0.024 C 
ENDBRANCH   9  19
ENDBRANCH   3  17
ENDBRANCH  13   3
ENDBRANCH   7  12
BRANCH   8  18
ATOM     18  C   UNL     1       0.099  -0.281  22.942  0.00  0.00    +0.035 A 
ATOM     20  C   UNL     1       0.796  -0.814  21.858  0.00  0.00    +0.027 A 
ATOM     21  C   UNL     1       0.705   0.671  23.762  0.00  0.00    +0.027 A 
ATOM     23  C   UNL     1       2.099  -0.394  21.593  0.00  0.00    +0.048 A 
ATOM     24  C   UNL     1       2.009   1.090  23.498  0.00  0.00    +0.048 A 
ATOM     25  C   UNL     1       2.706   0.558  22.414  0.00  0.00    +0.129 A 
BRANCH  25   6
ATOM      6  O   UNL     1       3.978   0.965  22.157  0.00  0.00    -0.456 OA
BRANCH   6  26
ATOM     26  C   UNL     1       5.005   0.350  22.854  0.00  0.00    +0.128 A 
ATOM     27  C   UNL     1       6.067  -0.231  22.161  0.00  0.00    +0.046 A 
ATOM     28  C   UNL     1       4.977   0.310  24.248  0.00  0.00    +0.046 A 
ATOM     29  C   UNL     1       7.101  -0.852  22.862  0.00  0.00    +0.004 A 
ATOM     30  C   UNL     1       6.011  -0.311  24.949  0.00  0.00    +0.004 A 
ATOM     31  C   UNL     1       7.073  -0.892  24.255  0.00  0.00    +0.000 A 
ENDBRANCH   6  26
ENDBRANCH  25   6
ENDBRANCH   8  18
TORSDOF 7
ENDMDL
MODEL 2
REMARK VINA RESULT:       8.8      1.671      2.458
REMARK  Name = 11884130
REMARK  8 active torsions:
REMARK  status: ('A' for Active; 'I' for Inactive)
REMARK    1  A    between atoms: O_3  and  C_13
REMARK    2  A    between atoms: O_3  and  C_17
REMARK    3  A    between atoms: O_6  and  C_25
REMARK    4  A    between atoms: O_6  and  C_26
REMARK    5  A    between atoms: N_7  and  C_12
REMARK    6  A    between atoms: N_8  and  C_18
REMARK    7  A    between atoms: N_9  and  C_19
REMARK    8  A    between atoms: C_19  and  C_22
REMARK                            x       y       z     vdW  Elec       q    Type
REMARK                         _______ _______ _______ _____ _____    ______ ____
ROOT
ATOM      4  O   UNL     1      -0.029  -0.014  25.112  0.00  0.00    -0.252 OA
ATOM      7  N   UNL     1      -1.140  -1.549  23.787  0.00  0.00    -0.292 N 
ATOM      8  N   UNL     1       1.063  -1.083  23.330  0.00  0.00    -0.269 N 
ATOM     16  C   UNL     1      -0.019  -0.799  24.167  0.00  0.00    +0.304 C 
ATOM     32  H   UNL     1      -1.033  -2.227  23.037  0.00  0.00    +0.151 HD
ATOM     33  H   UNL     1       0.902  -1.761  22.590  0.00  0.00    +0.156 HD
ENDROOT
BRANCH   7  12
ATOM      1  O   UNL     1      -2.510   0.646  25.545  0.00  0.00    -0.368 OA
ATOM      2  O   UNL     1      -4.733  -0.895  24.102  0.00  0.00    -0.368 OA
ATOM     10  C   UNL     1      -3.379  -0.587  23.715  0.00  0.00    +0.173 C 
ATOM     11  C   UNL     1      -3.079   0.806  24.235  0.00  0.00    +0.192 C 
ATOM     12  C   UNL     1      -2.411  -1.470  24.466  0.00  0.00    +0.131 C 
ATOM     13  C   UNL     1      -4.451   1.434  24.295  0.00  0.00    +0.235 C 
ATOM     14  C   UNL     1      -2.282  -0.749  25.797  0.00  0.00    +0.185 C 
ATOM     15  C   UNL     1      -5.319   0.267  24.709  0.00  0.00    +0.207 C 
BRANCH  13   3
ATOM      3  O   UNL     1      -4.539   2.509  25.202  0.00  0.00    -0.442 OA
BRANCH   3  17
ATOM      5  O   UNL     1      -4.200   4.410  23.958  0.00  0.00    -0.226 OA
ATOM      9  N   UNL     1      -2.769   3.832  25.690  0.00  0.00    -0.281 N 
ATOM     17  C   UNL     1      -3.860   3.659  24.867  0.00  0.00    +0.401 C 
ATOM     34  H   UNL     1      -2.592   3.133  26.405  0.00  0.00    +0.152 HD
BRANCH   9  19
ATOM     19  C   UNL     1      -1.857   4.949  25.588  0.00  0.00    +0.104 C 
ATOM     22  C   UNL     1      -0.602   4.574  24.827  0.00  0.00    +0.024 C 
ENDBRANCH   9  19
ENDBRANCH   3  17
ENDBRANCH  13   3
ENDBRANCH   7  12
BRANCH   8  18
ATOM     18  C   UNL     1       2.367  -0.537  23.382  0.00  0.00    +0.035 A 
ATOM     20  C   UNL     1       3.427  -1.305  23.866  0.00  0.00    +0.027 A 
ATOM     21  C   UNL     1       2.592   0.770  22.950  0.00  0.00    +0.027 A 
ATOM     23  C   UNL     1       4.712  -0.765  23.917  0.00  0.00    +0.048 A 
ATOM     24  C   UNL     1       3.878   1.310  23.002  0.00  0.00    +0.048 A 
ATOM     25  C   UNL     1       4.937   0.542  23.486  0.00  0.00    +0.129 A 
BRANCH  25   6
ATOM      6  O   UNL     1       6.190   1.069  23.538  0.00  0.00    -0.456 OA
BRANCH   6  26
ATOM     26  C   UNL     1       7.247   0.258  23.157  0.00  0.00    +0.128 A 
ATOM     27  C   UNL     1       8.556   0.632  23.458  0.00  0.00    +0.046 A 
ATOM     28  C   UNL     1       7.001  -0.932  22.472  0.00  0.00    +0.046 A 
ATOM     29  C   UNL     1       9.621  -0.184  23.074  0.00  0.00    +0.004 A 
ATOM     30  C   UNL     1       8.065  -1.748  22.088  0.00  0.00    +0.004 A 
ATOM     31  C   UNL     1       9.375  -1.374  22.389  0.00  0.00    +0.000 A 
ENDBRANCH   6  26
ENDBRANCH  25   6
ENDBRANCH   8  18
TORSDOF 7
ENDMDL
MODEL 3
REMARK VINA RESULT:       9.5      1.601      2.029
REMARK  Name = 11884130
REMARK  8 active torsions:
REMARK  status: ('A' for Active; 'I' for Inactive)
REMARK    1  A    between atoms: O_3  and  C_13
REMARK    2  A    between atoms: O_3  and  C_17
REMARK    3  A    between atoms: O_6  and  C_25
REMARK    4  A    between atoms: O_6  and  C_26
REMARK    5  A    between atoms: N_7  and  C_12
REMARK    6  A    between atoms: N_8  and  C_18
REMARK    7  A    between atoms: N_9  and  C_19
REMARK    8  A    between atoms: C_19  and  C_22
REMARK                            x       y       z     vdW  Elec       q    Type
REMARK                         _______ _______ _______ _____ _____    ______ ____
ROOT
ATOM      4  O   UNL     1      -2.666   0.682  25.467  0.00  0.00    -0.252 OA
ATOM      7  N   UNL     1      -4.521  -0.474  24.715  0.00  0.00    -0.292 N 
ATOM      8  N   UNL     1      -2.437  -1.364  24.339  0.00  0.00    -0.269 N 
ATOM     16  C   UNL     1      -3.144  -0.294  24.894  0.00  0.00    +0.304 C 
ATOM     32  H   UNL     1      -4.842  -1.341  24.291  0.00  0.00    +0.151 HD
ATOM     33  H   UNL     1      -2.987  -2.095  23.897  0.00  0.00    +0.156 HD
ENDROOT
BRANCH   7  12
ATOM      1  O   UNL     1      -4.356   2.172  26.374  0.00  0.00    -0.368 OA
ATOM      2  O   UNL     1      -6.763   2.418  24.490  0.00  0.00    -0.368 OA
ATOM     10  C   UNL     1      -5.505   1.725  24.348  0.00  0.00    +0.173 C 
ATOM     11  C   UNL     1      -4.450   2.594  25.003  0.00  0.00    +0.192 C 
ATOM     12  C   UNL     1      -5.509   0.467  25.184  0.00  0.00    +0.131 C 
ATOM     13  C   UNL     1      -5.044   3.977  24.883  0.00  0.00    +0.235 C 
ATOM     14  C   UNL     1      -5.156   0.996  26.564  0.00  0.00    +0.185 C 
ATOM     15  C   UNL     1      -6.520   3.708  25.072  0.00  0.00    +0.207 C 
BRANCH  13   3
ATOM      3  O   UNL     1      -4.545   4.889  25.835  0.00  0.00    -0.442 OA
BRANCH   3  17
ATOM      5  O   UNL     1      -2.838   4.527  27.328  0.00  0.00    -0.226 OA
ATOM      9  N   UNL     1      -2.411   4.912  25.080  0.00  0.00    -0.281 N 
ATOM     17  C   UNL     1      -3.220   4.756  26.185  0.00  0.00    +0.401 C 
ATOM     34  H   UNL     1      -2.853   5.104  24.187  0.00  0.00    +0.152 HD
BRANCH   9  19
ATOM     19  C   UNL     1      -0.969   4.828  25.124  0.00  0.00    +0.104 C 
ATOM     22  C   UNL     1      -0.492   3.396  24.992  0.00  0.00    +0.024 C 
ENDBRANCH   9  19
ENDBRANCH   3  17
ENDBRANCH  13   3
ENDBRANCH   7  12
BRANCH   8  18
ATOM     18  C   UNL     1      -1.036  -1.556  24.310  0.00  0.00    +0.035 A 
ATOM     20  C   UNL     1      -0.254  -0.864  23.385  0.00  0.00    +0.027 A 
ATOM     21  C   UNL     1      -0.435  -2.439  25.209  0.00  0.00    +0.027 A 
ATOM     23  C   UNL     1       1.127  -1.054  23.358  0.00  0.00    +0.048 A 
ATOM     24  C   UNL     1       0.947  -2.630  25.181  0.00  0.00    +0.048 A 
ATOM     25  C   UNL     1       1.727  -1.938  24.256  0.00  0.00    +0.129 A 
BRANCH  25   6
ATOM      6  O   UNL     1       3.075  -2.125  24.227  0.00  0.00    -0.456 OA
BRANCH   6  26
ATOM     26  C   UNL     1       3.865  -1.057  23.835  0.00  0.00    +0.128 A 
ATOM     27  C   UNL     1       5.201  -0.996  24.232  0.00  0.00    +0.046 A 
ATOM     28  C   UNL     1       3.326  -0.044  23.042  0.00  0.00    +0.046 A 
ATOM     29  C   UNL     1       5.998   0.079  23.838  0.00  0.00    +0.004 A 
ATOM     30  C   UNL     1       4.123   1.031  22.648  0.00  0.00    +0.004 A 
ATOM     31  C   UNL     1       5.458   1.092  23.046  0.00  0.00    +0.000 A 
ENDBRANCH   6  26
ENDBRANCH  25   6
ENDBRANCH   8  18
TORSDOF 7
ENDMDL
MODEL 4
REMARK VINA RESULT:       9.7      1.995      3.859
REMARK  Name = 11884130
REMARK  8 active torsions:
REMARK  status: ('A' for Active; 'I' for Inactive)
REMARK    1  A    between atoms: O_3  and  C_13
REMARK    2  A    between atoms: O_3  and  C_17
REMARK    3  A    between atoms: O_6  and  C_25
REMARK    4  A    between atoms: O_6  and  C_26
REMARK    5  A    between atoms: N_7  and  C_12
REMARK    6  A    between atoms: N_8  and  C_18
REMARK    7  A    between atoms: N_9  and  C_19
REMARK    8  A    between atoms: C_19  and  C_22
REMARK                            x       y       z     vdW  Elec       q    Type
REMARK                         _______ _______ _______ _____ _____    ______ ____
ROOT
ATOM      4  O   UNL     1      -0.980   0.853  23.680  0.00  0.00    -0.252 OA
ATOM      7  N   UNL     1      -1.237   3.149  23.770  0.00  0.00    -0.292 N 
ATOM      8  N   UNL     1       0.876   2.282  23.522  0.00  0.00    -0.269 N 
ATOM     16  C   UNL     1      -0.481   1.975  23.658  0.00  0.00    +0.304 C 
ATOM     32  H   UNL     1      -0.759   4.040  23.676  0.00  0.00    +0.151 HD
ATOM     33  H   UNL     1       1.124   3.267  23.525  0.00  0.00    +0.156 HD
ENDROOT
BRANCH   7  12
ATOM      1  O   UNL     1      -3.476   1.062  23.127  0.00  0.00    -0.368 OA
ATOM      2  O   UNL     1      -4.418   2.706  25.537  0.00  0.00    -0.368 OA
ATOM     10  C   UNL     1      -3.099   2.315  25.104  0.00  0.00    +0.173 C 
ATOM     11  C   UNL     1      -3.221   0.916  24.534  0.00  0.00    +0.192 C 
ATOM     12  C   UNL     1      -2.672   3.153  23.922  0.00  0.00    +0.131 C 
ATOM     13  C   UNL     1      -4.422   0.367  25.266  0.00  0.00    +0.235 C 
ATOM     14  C   UNL     1      -3.352   2.445  22.763  0.00  0.00    +0.185 C 
ATOM     15  C   UNL     1      -5.307   1.588  25.386  0.00  0.00    +0.207 C 
BRANCH  13   3
ATOM      3  O   UNL     1      -5.063  -0.687  24.586  0.00  0.00    -0.442 OA
BRANCH   3  17
ATOM      5  O   UNL     1      -4.648  -2.621  23.418  0.00  0.00    -0.226 OA
ATOM      9  N   UNL     1      -3.006  -1.622  24.717  0.00  0.00    -0.281 N 
ATOM     17  C   UNL     1      -4.267  -1.731  24.171  0.00  0.00    +0.401 C 
ATOM     34  H   UNL     1      -2.817  -0.837  25.333  0.00  0.00    +0.152 HD
BRANCH   9  19
ATOM     19  C   UNL     1      -1.941  -2.568  24.470  0.00  0.00    +0.104 C 
ATOM     22  C   UNL     1      -0.665  -2.166  25.181  0.00  0.00    +0.024 C 
ENDBRANCH   9  19
ENDBRANCH   3  17
ENDBRANCH  13   3
ENDBRANCH   7  12
BRANCH   8  18
ATOM     18  C   UNL     1       1.959   1.382  23.384  0.00  0.00    +0.035 A 
ATOM     20  C   UNL     1       1.755   0.013  23.554  0.00  0.00    +0.027 A 
ATOM     21  C   UNL     1       3.231   1.865  23.077  0.00  0.00    +0.027 A 
ATOM     23  C   UNL     1       2.823  -0.874  23.417  0.00  0.00    +0.048 A 
ATOM     24  C   UNL     1       4.300   0.978  22.941  0.00  0.00    +0.048 A 
ATOM     25  C   UNL     1       4.095  -0.391  23.111  0.00  0.00    +0.129 A 
BRANCH  25   6
ATOM      6  O   UNL     1       5.138  -1.255  22.980  0.00  0.00    -0.456 OA
BRANCH   6  26
ATOM     26  C   UNL     1       6.420  -0.741  23.092  0.00  0.00    +0.128 A 
ATOM     27  C   UNL     1       6.653   0.379  23.889  0.00  0.00    +0.046 A 
ATOM     28  C   UNL     1       7.475  -1.344  22.408  0.00  0.00    +0.046 A 
ATOM     29  C   UNL     1       7.943   0.898  24.002  0.00  0.00    +0.004 A 
ATOM     30  C   UNL     1       8.765  -0.825  22.521  0.00  0.00    +0.004 A 
ATOM     31  C   UNL     1       8.999   0.296  23.318  0.00  0.00    +0.000 A 
ENDBRANCH   6  26
ENDBRANCH  25   6
ENDBRANCH   8  18
TORSDOF 7
ENDMDL
