MODEL 1
REMARK VINA RESULT:      -5.5      0.000      0.000
REMARK  Name = 25338204
REMARK  4 active torsions:
REMARK  status: ('A' for Active; 'I' for Inactive)
REMARK    1  A    between atoms: O_3  and  C_9
REMARK    2  A    between atoms: N_5  and  C_8
REMARK    3  A    between atoms: N_6  and  C_10
REMARK    4  A    between atoms: N_7  and  C_20
REMARK                            x       y       z     vdW  Elec       q    Type
REMARK                         _______ _______ _______ _____ _____    ______ ____
ROOT
ATOM      1  O   UNL     1      -1.844   1.583  25.622  0.00  0.00    -0.342 OA
ATOM      2  O   UNL     1      -3.631   3.061  25.564  0.00  0.00    -0.347 OA
ATOM      8  C   UNL     1      -3.670   1.125  24.115  0.00  0.00    +0.143 C 
ATOM      9  C   UNL     1      -2.969   1.924  22.992  0.00  0.00    +0.159 C 
ATOM     10  C   UNL     1      -1.559   2.420  23.379  0.00  0.00    +0.136 C 
ATOM     11  C   UNL     1      -3.271   1.672  25.498  0.00  0.00    +0.270 C 
ATOM     12  C   UNL     1      -1.417   2.731  24.883  0.00  0.00    +0.170 C 
ATOM     13  C   UNL     1      -2.394   3.771  25.398  0.00  0.00    +0.196 C 
ENDROOT
BRANCH  10   6
ATOM      4  O   UNL     1       1.148   2.272  24.301  0.00  0.00    -0.252 OA
ATOM      6  N   UNL     1      -0.563   1.449  22.983  0.00  0.00    -0.291 N 
ATOM      7  N   UNL     1       1.474   0.400  22.923  0.00  0.00    -0.269 N 
ATOM     19  C   UNL     1       0.741   1.449  23.484  0.00  0.00    +0.304 C 
ATOM     26  H   UNL     1      -0.801   0.787  22.250  0.00  0.00    +0.151 HD
ATOM     28  H   UNL     1       0.986  -0.194  22.258  0.00  0.00    +0.156 HD
BRANCH   7  20
ATOM     20  C   UNL     1       2.825   0.058  23.166  0.00  0.00    +0.035 A 
ATOM     21  C   UNL     1       3.148  -1.223  23.617  0.00  0.00    +0.023 A 
ATOM     22  C   UNL     1       3.832   0.998  22.957  0.00  0.00    +0.023 A 
ATOM     23  C   UNL     1       4.480  -1.561  23.858  0.00  0.00    +0.002 A 
ATOM     24  C   UNL     1       5.164   0.661  23.198  0.00  0.00    +0.002 A 
ATOM     25  C   UNL     1       5.488  -0.620  23.649  0.00  0.00    +0.000 A 
ENDBRANCH   7  20
ENDBRANCH  10   6
BRANCH   8   5
ATOM      5  N   UNL     1      -3.316  -0.291  24.021  0.00  0.00    -0.293 NA
ATOM     14  C   UNL     1      -4.527  -1.121  23.950  0.00  0.00    +0.085 C 
ATOM     15  C   UNL     1      -2.468  -0.685  25.156  0.00  0.00    +0.085 C 
ATOM     16  C   UNL     1      -4.173  -2.602  23.802  0.00  0.00    +0.015 C 
ATOM     17  C   UNL     1      -2.048  -2.151  25.048  0.00  0.00    +0.015 C 
ATOM     18  C   UNL     1      -3.260  -3.068  24.929  0.00  0.00    +0.002 C 
ENDBRANCH   8   5
BRANCH   9   3
ATOM      3  O   UNL     1      -3.790   3.059  22.686  0.00  0.00    -0.388 OA
ATOM     27  H   UNL     1      -4.627   2.727  22.322  0.00  0.00    +0.210 HD
ENDBRANCH   9   3
TORSDOF 4
ENDMDL
MODEL 2
REMARK VINA RESULT:      -4.6      1.817      3.920
REMARK  Name = 25338204
REMARK  4 active torsions:
REMARK  status: ('A' for Active; 'I' for Inactive)
REMARK    1  A    between atoms: O_3  and  C_9
REMARK    2  A    between atoms: N_5  and  C_8
REMARK    3  A    between atoms: N_6  and  C_10
REMARK    4  A    between atoms: N_7  and  C_20
REMARK                            x       y       z     vdW  Elec       q    Type
REMARK                         _______ _______ _______ _____ _____    ______ ____
ROOT
ATOM      1  O   UNL     1      -3.660   0.403  23.096  0.00  0.00    -0.342 OA
ATOM      2  O   UNL     1      -5.051  -0.383  24.778  0.00  0.00    -0.347 OA
ATOM      8  C   UNL     1      -3.191   1.043  25.374  0.00  0.00    +0.143 C 
ATOM      9  C   UNL     1      -2.275  -0.190  25.552  0.00  0.00    +0.159 C 
ATOM     10  C   UNL     1      -2.082  -1.005  24.256  0.00  0.00    +0.136 C 
ATOM     11  C   UNL     1      -4.291   0.753  24.336  0.00  0.00    +0.270 C 
ATOM     12  C   UNL     1      -3.312  -0.966  23.325  0.00  0.00    +0.170 C 
ATOM     13  C   UNL     1      -4.591  -1.473  23.965  0.00  0.00    +0.196 C 
ENDROOT
BRANCH  10   6
ATOM      4  O   UNL     1       0.652  -1.340  25.042  0.00  0.00    -0.252 OA
ATOM      6  N   UNL     1      -0.913  -0.538  23.542  0.00  0.00    -0.291 N 
ATOM      7  N   UNL     1       1.309  -0.186  23.107  0.00  0.00    -0.269 N 
ATOM     19  C   UNL     1       0.391  -0.746  23.999  0.00  0.00    +0.304 C 
ATOM     26  H   UNL     1      -1.052   0.032  22.712  0.00  0.00    +0.151 HD
ATOM     28  H   UNL     1       0.926   0.274  22.286  0.00  0.00    +0.156 HD
BRANCH   7  20
ATOM     20  C   UNL     1       2.720  -0.179  23.206  0.00  0.00    +0.035 A 
ATOM     21  C   UNL     1       3.392  -1.316  23.658  0.00  0.00    +0.023 A 
ATOM     22  C   UNL     1       3.440   0.961  22.852  0.00  0.00    +0.023 A 
ATOM     23  C   UNL     1       4.783  -1.310  23.756  0.00  0.00    +0.002 A 
ATOM     24  C   UNL     1       4.831   0.967  22.950  0.00  0.00    +0.002 A 
ATOM     25  C   UNL     1       5.503  -0.169  23.403  0.00  0.00    +0.000 A 
ENDBRANCH   7  20
ENDBRANCH  10   6
BRANCH   8   5
ATOM      5  N   UNL     1      -2.401   2.198  24.949  0.00  0.00    -0.293 NA
ATOM     14  C   UNL     1      -1.136   2.260  25.695  0.00  0.00    +0.085 C 
ATOM     15  C   UNL     1      -3.175   3.438  25.115  0.00  0.00    +0.085 C 
ATOM     16  C   UNL     1      -0.276   3.436  25.228  0.00  0.00    +0.015 C 
ATOM     17  C   UNL     1      -2.382   4.652  24.629  0.00  0.00    +0.015 C 
ATOM     18  C   UNL     1      -1.034   4.753  25.335  0.00  0.00    +0.002 C 
ENDBRANCH   8   5
BRANCH   9   3
ATOM      3  O   UNL     1      -2.870  -1.036  26.545  0.00  0.00    -0.388 OA
ATOM     27  H   UNL     1      -2.285  -1.035  27.321  0.00  0.00    +0.210 HD
ENDBRANCH   9   3
TORSDOF 4
ENDMDL
MODEL 3
REMARK VINA RESULT:      -2.1      1.590      2.247
REMARK  Name = 25338204
REMARK  4 active torsions:
REMARK  status: ('A' for Active; 'I' for Inactive)
REMARK    1  A    between atoms: O_3  and  C_9
REMARK    2  A    between atoms: N_5  and  C_8
REMARK    3  A    between atoms: N_6  and  C_10
REMARK    4  A    between atoms: N_7  and  C_20
REMARK                            x       y       z     vdW  Elec       q    Type
REMARK                         _______ _______ _______ _____ _____    ______ ____
ROOT
ATOM      1  O   UNL     1      -3.849   2.792  26.471  0.00  0.00    -0.342 OA
ATOM      2  O   UNL     1      -5.796   3.517  25.439  0.00  0.00    -0.347 OA
ATOM      8  C   UNL     1      -4.536   1.720  24.423  0.00  0.00    +0.143 C 
ATOM      9  C   UNL     1      -3.715   2.735  23.594  0.00  0.00    +0.159 C 
ATOM     10  C   UNL     1      -2.884   3.706  24.459  0.00  0.00    +0.136 C 
ATOM     11  C   UNL     1      -5.006   2.356  25.744  0.00  0.00    +0.270 C 
ATOM     12  C   UNL     1      -3.544   4.027  25.816  0.00  0.00    +0.170 C 
ATOM     13  C   UNL     1      -4.931   4.631  25.704  0.00  0.00    +0.196 C 
ENDROOT
BRANCH  10   6
ATOM      4  O   UNL     1      -1.369   2.099  22.635  0.00  0.00    -0.252 OA
ATOM      6  N   UNL     1      -1.557   3.171  24.674  0.00  0.00    -0.291 N 
ATOM      7  N   UNL     1       0.370   2.021  24.210  0.00  0.00    -0.269 N 
ATOM     19  C   UNL     1      -0.887   2.393  23.727  0.00  0.00    +0.304 C 
ATOM     26  H   UNL     1      -1.126   3.305  25.584  0.00  0.00    +0.151 HD
ATOM     28  H   UNL     1       0.618   2.349  25.139  0.00  0.00    +0.156 HD
BRANCH   7  20
ATOM     20  C   UNL     1       1.351   1.235  23.560  0.00  0.00    +0.035 A 
ATOM     21  C   UNL     1       2.657   1.712  23.440  0.00  0.00    +0.023 A 
ATOM     22  C   UNL     1       1.014  -0.014  23.041  0.00  0.00    +0.023 A 
ATOM     23  C   UNL     1       3.625   0.939  22.799  0.00  0.00    +0.002 A 
ATOM     24  C   UNL     1       1.982  -0.788  22.400  0.00  0.00    +0.002 A 
ATOM     25  C   UNL     1       3.288  -0.311  22.279  0.00  0.00    +0.000 A 
ENDBRANCH   7  20
ENDBRANCH  10   6
BRANCH   8   5
ATOM      5  N   UNL     1      -3.729   0.533  24.705  0.00  0.00    -0.293 NA
ATOM     14  C   UNL     1      -3.605  -0.302  23.501  0.00  0.00    +0.085 C 
ATOM     15  C   UNL     1      -4.309  -0.229  25.820  0.00  0.00    +0.085 C 
ATOM     16  C   UNL     1      -2.724  -1.524  23.766  0.00  0.00    +0.015 C 
ATOM     17  C   UNL     1      -3.451  -1.449  26.161  0.00  0.00    +0.015 C 
ATOM     18  C   UNL     1      -3.247  -2.340  24.941  0.00  0.00    +0.002 C 
ENDBRANCH   8   5
BRANCH   9   3
ATOM      3  O   UNL     1      -4.636   3.496  22.801  0.00  0.00    -0.388 OA
ATOM     27  H   UNL     1      -5.056   4.149  23.385  0.00  0.00    +0.210 HD
ENDBRANCH   9   3
TORSDOF 4
ENDMDL
MODEL 4
REMARK VINA RESULT:      -2.0      3.045      3.914
REMARK  Name = 25338204
REMARK  4 active torsions:
REMARK  status: ('A' for Active; 'I' for Inactive)
REMARK    1  A    between atoms: O_3  and  C_9
REMARK    2  A    between atoms: N_5  and  C_8
REMARK    3  A    between atoms: N_6  and  C_10
REMARK    4  A    between atoms: N_7  and  C_20
REMARK                            x       y       z     vdW  Elec       q    Type
REMARK                         _______ _______ _______ _____ _____    ______ ____
ROOT
ATOM      1  O   UNL     1      -3.647   2.348  25.421  0.00  0.00    -0.342 OA
ATOM      2  O   UNL     1      -4.951   2.840  23.567  0.00  0.00    -0.347 OA
ATOM      8  C   UNL     1      -3.545   0.873  23.517  0.00  0.00    +0.143 C 
ATOM      9  C   UNL     1      -2.380   1.693  22.918  0.00  0.00    +0.159 C 
ATOM     10  C   UNL     1      -1.885   2.824  23.846  0.00  0.00    +0.136 C 
ATOM     11  C   UNL     1      -4.449   1.769  24.383  0.00  0.00    +0.270 C 
ATOM     12  C   UNL     1      -3.003   3.420  24.727  0.00  0.00    +0.170 C 
ATOM     13  C   UNL     1      -4.173   3.986  23.945  0.00  0.00    +0.196 C 
ENDROOT
BRANCH  10   6
ATOM      4  O   UNL     1      -1.203   3.763  26.464  0.00  0.00    -0.252 OA
ATOM      6  N   UNL     1      -0.804   2.347  24.681  0.00  0.00    -0.291 N 
ATOM      7  N   UNL     1       0.558   2.212  26.519  0.00  0.00    -0.269 N 
ATOM     19  C   UNL     1      -0.541   2.864  25.952  0.00  0.00    +0.304 C 
ATOM     26  H   UNL     1      -0.163   1.661  24.294  0.00  0.00    +0.151 HD
ATOM     28  H   UNL     1       0.997   1.486  25.960  0.00  0.00    +0.156 HD
BRANCH   7  20
ATOM     20  C   UNL     1       1.142   2.440  27.787  0.00  0.00    +0.035 A 
ATOM     21  C   UNL     1       0.428   2.135  28.947  0.00  0.00    +0.023 A 
ATOM     22  C   UNL     1       2.428   2.969  27.879  0.00  0.00    +0.023 A 
ATOM     23  C   UNL     1       1.003   2.360  30.198  0.00  0.00    +0.002 A 
ATOM     24  C   UNL     1       3.004   3.193  29.130  0.00  0.00    +0.002 A 
ATOM     25  C   UNL     1       2.290   2.890  30.290  0.00  0.00    +0.000 A 
ENDBRANCH   7  20
ENDBRANCH  10   6
BRANCH   8   5
ATOM      5  N   UNL     1      -3.021  -0.229  24.323  0.00  0.00    -0.293 NA
ATOM     14  C   UNL     1      -1.631  -0.526  23.949  0.00  0.00    +0.085 C 
ATOM     15  C   UNL     1      -3.873  -1.420  24.182  0.00  0.00    +0.085 C 
ATOM     16  C   UNL     1      -1.052  -1.644  24.817  0.00  0.00    +0.015 C 
ATOM     17  C   UNL     1      -3.368  -2.567  25.057  0.00  0.00    +0.015 C 
ATOM     18  C   UNL     1      -1.912  -2.900  24.749  0.00  0.00    +0.002 C 
ENDBRANCH   8   5
BRANCH   9   3
ATOM      3  O   UNL     1      -2.839   2.272  21.689  0.00  0.00    -0.388 OA
ATOM     27  H   UNL     1      -3.697   1.868  21.477  0.00  0.00    +0.210 HD
ENDBRANCH   9   3
TORSDOF 4
ENDMDL
