MODEL 1
REMARK VINA RESULT:      -2.7      0.000      0.000
REMARK  Name = 26743452
REMARK  7 active torsions:
REMARK  status: ('A' for Active; 'I' for Inactive)
REMARK    1  A    between atoms: S_1  and  C_23
REMARK    2  A    between atoms: S_1  and  C_24
REMARK    3  A    between atoms: O_3  and  C_15
REMARK    4  A    between atoms: N_7  and  C_11
REMARK    5  A    between atoms: N_8  and  C_21
REMARK    6  A    between atoms: C_12  and  C_20
REMARK    7  A    between atoms: C_22  and  C_23
REMARK                            x       y       z     vdW  Elec       q    Type
REMARK                         _______ _______ _______ _____ _____    ______ ____
ROOT
ATOM      4  O   UNL     1      -1.638   2.659  25.554  0.00  0.00    -0.336 OA
ATOM      9  N   UNL     1      -1.454   1.905  23.453  0.00  0.00    -0.193 NA
ATOM     10  N   UNL     1      -0.266   2.587  25.286  0.00  0.00    -0.060 NA
ATOM     20  C   UNL     1      -2.265   2.240  24.424  0.00  0.00    +0.245 A 
ATOM     22  C   UNL     1      -0.238   2.136  24.029  0.00  0.00    +0.193 A 
ENDROOT
BRANCH  20  12
ATOM      7  N   UNL     1      -4.316   1.470  25.608  0.00  0.00    -0.286 NA
ATOM     12  C   UNL     1      -3.779   2.225  24.457  0.00  0.00    +0.149 C 
ATOM     13  C   UNL     1      -5.601   2.081  25.940  0.00  0.00    +0.116 C 
ATOM     14  C   UNL     1      -4.387   3.633  24.591  0.00  0.00    +0.061 C 
ATOM     15  C   UNL     1      -5.285   3.559  25.820  0.00  0.00    +0.130 C 
BRANCH   7  11
ATOM      8  N   UNL     1      -3.300  -2.438  24.279  0.00  0.00    -0.305 NA
ATOM     11  C   UNL     1      -4.437   0.036  25.350  0.00  0.00    +0.060 C 
ATOM     16  C   UNL     1      -4.389  -0.257  23.849  0.00  0.00    +0.034 C 
ATOM     17  C   UNL     1      -3.321  -0.727  26.068  0.00  0.00    +0.034 C 
ATOM     18  C   UNL     1      -4.406  -1.765  23.584  0.00  0.00    +0.085 C 
ATOM     19  C   UNL     1      -3.372  -2.219  25.731  0.00  0.00    +0.085 C 
ATOM     21  C   UNL     1      -3.299  -3.869  23.976  0.00  0.00    +0.104 C 
ENDBRANCH   7  11
BRANCH  15   3
ATOM      3  O   UNL     1      -6.454   4.333  25.633  0.00  0.00    -0.390 OA
ATOM     30  H   UNL     1      -6.240   5.037  24.997  0.00  0.00    +0.210 HD
ENDBRANCH  15   3
ENDBRANCH  20  12
BRANCH  22  23
ATOM     23  C   UNL     1       1.022   1.903  23.314  0.00  0.00    +0.251 C 
BRANCH  23   1
ATOM      1  S   UNL     1       1.240   0.159  23.098  0.00  0.00    +0.004 S 
ATOM      5  O   UNL     1       0.878  -0.161  21.730  0.00  0.00    -0.169 OA
ATOM      6  O   UNL     1       0.602  -0.525  24.208  0.00  0.00    -0.169 OA
BRANCH   1  24
ATOM      2  F   UNL     1       7.052  -0.624  23.690  0.00  0.00    -0.205 F 
ATOM     24  C   UNL     1       2.981  -0.076  23.275  0.00  0.00    +0.089 A 
ATOM     25  C   UNL     1       3.478  -1.305  23.709  0.00  0.00    +0.030 A 
ATOM     26  C   UNL     1       3.859   0.966  22.980  0.00  0.00    +0.030 A 
ATOM     27  C   UNL     1       4.854  -1.491  23.849  0.00  0.00    +0.040 A 
ATOM     28  C   UNL     1       5.234   0.781  23.120  0.00  0.00    +0.040 A 
ATOM     29  C   UNL     1       5.732  -0.448  23.555  0.00  0.00    +0.124 A 
ENDBRANCH   1  24
ENDBRANCH  23   1
ENDBRANCH  22  23
TORSDOF 6
ENDMDL
MODEL 2
REMARK VINA RESULT:      -2.1     14.970     16.977
REMARK  Name = 26743452
REMARK  7 active torsions:
REMARK  status: ('A' for Active; 'I' for Inactive)
REMARK    1  A    between atoms: S_1  and  C_23
REMARK    2  A    between atoms: S_1  and  C_24
REMARK    3  A    between atoms: O_3  and  C_15
REMARK    4  A    between atoms: N_7  and  C_11
REMARK    5  A    between atoms: N_8  and  C_21
REMARK    6  A    between atoms: C_12  and  C_20
REMARK    7  A    between atoms: C_22  and  C_23
REMARK                            x       y       z     vdW  Elec       q    Type
REMARK                         _______ _______ _______ _____ _____    ______ ____
ROOT
ATOM      4  O   UNL     1      -5.306  -8.692   9.665  0.00  0.00    -0.336 OA
ATOM      9  N   UNL     1      -5.079 -10.772  10.464  0.00  0.00    -0.193 NA
ATOM     10  N   UNL     1      -3.933  -8.887   9.857  0.00  0.00    -0.060 NA
ATOM     20  C   UNL     1      -5.908  -9.849  10.046  0.00  0.00    +0.245 A 
ATOM     22  C   UNL     1      -3.879 -10.136  10.329  0.00  0.00    +0.193 A 
ENDROOT
BRANCH  20  12
ATOM      7  N   UNL     1      -8.093  -9.149  11.013  0.00  0.00    -0.286 NA
ATOM     12  C   UNL     1      -7.417  -9.895   9.932  0.00  0.00    +0.149 C 
ATOM     13  C   UNL     1      -9.356  -8.669  10.457  0.00  0.00    +0.116 C 
ATOM     14  C   UNL     1      -7.936  -9.258   8.630  0.00  0.00    +0.061 C 
ATOM     15  C   UNL     1      -8.931  -8.196   9.080  0.00  0.00    +0.130 C 
BRANCH   7  11
ATOM      8  N   UNL     1      -8.671 -10.068  15.122  0.00  0.00    -0.305 NA
ATOM     11  C   UNL     1      -8.291  -9.944  12.224  0.00  0.00    +0.060 C 
ATOM     16  C   UNL     1      -7.136  -9.741  13.208  0.00  0.00    +0.034 C 
ATOM     17  C   UNL     1      -9.617  -9.571  12.891  0.00  0.00    +0.034 C 
ATOM     18  C   UNL     1      -7.397 -10.485  14.520  0.00  0.00    +0.085 C 
ATOM     19  C   UNL     1      -9.797 -10.320  14.212  0.00  0.00    +0.085 C 
ATOM     21  C   UNL     1      -8.881 -10.750  16.399  0.00  0.00    +0.104 C 
ENDBRANCH   7  11
BRANCH  15   3
ATOM      3  O   UNL     1     -10.027  -8.125   8.188  0.00  0.00    -0.390 OA
ATOM     30  H   UNL     1     -10.811  -8.452   8.662  0.00  0.00    +0.210 HD
ENDBRANCH  15   3
ENDBRANCH  20  12
BRANCH  22  23
ATOM     23  C   UNL     1      -2.609 -10.781  10.679  0.00  0.00    +0.251 C 
BRANCH  23   1
ATOM      1  S   UNL     1      -1.601  -9.615  11.551  0.00  0.00    +0.004 S 
ATOM      5  O   UNL     1      -2.112  -8.289  11.257  0.00  0.00    -0.169 OA
ATOM      6  O   UNL     1      -0.207  -9.938  11.307  0.00  0.00    -0.169 OA
BRANCH   1  24
ATOM      2  F   UNL     1      -2.681 -10.781  17.228  0.00  0.00    -0.205 F 
ATOM     24  C   UNL     1      -1.924  -9.964  13.252  0.00  0.00    +0.089 A 
ATOM     25  C   UNL     1      -0.947  -9.709  14.214  0.00  0.00    +0.030 A 
ATOM     26  C   UNL     1      -3.157 -10.494  13.633  0.00  0.00    +0.030 A 
ATOM     27  C   UNL     1      -1.202  -9.985  15.557  0.00  0.00    +0.040 A 
ATOM     28  C   UNL     1      -3.412 -10.769  14.976  0.00  0.00    +0.040 A 
ATOM     29  C   UNL     1      -2.435 -10.515  15.939  0.00  0.00    +0.124 A 
ENDBRANCH   1  24
ENDBRANCH  23   1
ENDBRANCH  22  23
TORSDOF 6
ENDMDL
MODEL 3
REMARK VINA RESULT:       0.1      1.613      3.732
REMARK  Name = 26743452
REMARK  7 active torsions:
REMARK  status: ('A' for Active; 'I' for Inactive)
REMARK    1  A    between atoms: S_1  and  C_23
REMARK    2  A    between atoms: S_1  and  C_24
REMARK    3  A    between atoms: O_3  and  C_15
REMARK    4  A    between atoms: N_7  and  C_11
REMARK    5  A    between atoms: N_8  and  C_21
REMARK    6  A    between atoms: C_12  and  C_20
REMARK    7  A    between atoms: C_22  and  C_23
REMARK                            x       y       z     vdW  Elec       q    Type
REMARK                         _______ _______ _______ _____ _____    ______ ____
ROOT
ATOM      4  O   UNL     1      -1.111   1.472  25.762  0.00  0.00    -0.336 OA
ATOM      9  N   UNL     1      -0.648   0.335  23.889  0.00  0.00    -0.193 NA
ATOM     10  N   UNL     1       0.092   1.997  25.276  0.00  0.00    -0.060 NA
ATOM     20  C   UNL     1      -1.479   0.499  24.887  0.00  0.00    +0.245 A 
ATOM     22  C   UNL     1       0.299   1.276  24.170  0.00  0.00    +0.193 A 
ENDROOT
BRANCH  20  12
ATOM      7  N   UNL     1      -3.759  -0.117  24.103  0.00  0.00    -0.286 NA
ATOM     12  C   UNL     1      -2.768  -0.233  25.192  0.00  0.00    +0.149 C 
ATOM     13  C   UNL     1      -4.568  -1.334  24.148  0.00  0.00    +0.116 C 
ATOM     14  C   UNL     1      -2.565  -1.747  25.380  0.00  0.00    +0.061 C 
ATOM     15  C   UNL     1      -3.516  -2.399  24.384  0.00  0.00    +0.130 C 
BRANCH   7  11
ATOM      8  N   UNL     1      -5.118   3.680  25.446  0.00  0.00    -0.305 NA
ATOM     11  C   UNL     1      -4.577   1.091  24.194  0.00  0.00    +0.060 C 
ATOM     16  C   UNL     1      -5.228   1.211  25.574  0.00  0.00    +0.034 C 
ATOM     17  C   UNL     1      -3.724   2.331  23.910  0.00  0.00    +0.034 C 
ATOM     18  C   UNL     1      -5.994   2.529  25.707  0.00  0.00    +0.085 C 
ATOM     19  C   UNL     1      -4.539   3.612  24.097  0.00  0.00    +0.085 C 
ATOM     21  C   UNL     1      -5.852   4.933  25.626  0.00  0.00    +0.104 C 
ENDBRANCH   7  11
BRANCH  15   3
ATOM      3  O   UNL     1      -4.076  -3.580  24.926  0.00  0.00    -0.390 OA
ATOM     30  H   UNL     1      -3.726  -3.682  25.827  0.00  0.00    +0.210 HD
ENDBRANCH  15   3
ENDBRANCH  20  12
BRANCH  22  23
ATOM     23  C   UNL     1       1.472   1.486  23.313  0.00  0.00    +0.251 C 
BRANCH  23   1
ATOM      1  S   UNL     1       1.990  -0.079  22.667  0.00  0.00    +0.004 S 
ATOM      5  O   UNL     1       1.954   0.011  21.219  0.00  0.00    -0.169 OA
ATOM      6  O   UNL     1       1.261  -1.127  23.357  0.00  0.00    -0.169 OA
BRANCH   1  24
ATOM      2  F   UNL     1       7.628  -0.500  24.337  0.00  0.00    -0.205 F 
ATOM     24  C   UNL     1       3.679  -0.206  23.167  0.00  0.00    +0.089 A 
ATOM     25  C   UNL     1       4.151  -1.389  23.736  0.00  0.00    +0.030 A 
ATOM     26  C   UNL     1       4.541   0.877  22.993  0.00  0.00    +0.030 A 
ATOM     27  C   UNL     1       5.485  -1.489  24.131  0.00  0.00    +0.040 A 
ATOM     28  C   UNL     1       5.875   0.777  23.388  0.00  0.00    +0.040 A 
ATOM     29  C   UNL     1       6.347  -0.406  23.957  0.00  0.00    +0.124 A 
ENDBRANCH   1  24
ENDBRANCH  23   1
ENDBRANCH  22  23
TORSDOF 6
ENDMDL
MODEL 4
REMARK VINA RESULT:       0.2      3.609      7.700
REMARK  Name = 26743452
REMARK  7 active torsions:
REMARK  status: ('A' for Active; 'I' for Inactive)
REMARK    1  A    between atoms: S_1  and  C_23
REMARK    2  A    between atoms: S_1  and  C_24
REMARK    3  A    between atoms: O_3  and  C_15
REMARK    4  A    between atoms: N_7  and  C_11
REMARK    5  A    between atoms: N_8  and  C_21
REMARK    6  A    between atoms: C_12  and  C_20
REMARK    7  A    between atoms: C_22  and  C_23
REMARK                            x       y       z     vdW  Elec       q    Type
REMARK                         _______ _______ _______ _____ _____    ______ ____
ROOT
ATOM      4  O   UNL     1       0.282  -1.513  24.496  0.00  0.00    -0.336 OA
ATOM      9  N   UNL     1      -1.572  -0.326  24.083  0.00  0.00    -0.193 NA
ATOM     10  N   UNL     1      -0.765  -2.198  25.123  0.00  0.00    -0.060 NA
ATOM     20  C   UNL     1      -0.278  -0.424  23.908  0.00  0.00    +0.245 A 
ATOM     22  C   UNL     1      -1.825  -1.437  24.834  0.00  0.00    +0.193 A 
ENDROOT
BRANCH  20  12
ATOM      7  N   UNL     1       1.505   1.307  24.049  0.00  0.00    -0.286 NA
ATOM     12  C   UNL     1       0.659   0.494  23.152  0.00  0.00    +0.149 C 
ATOM     13  C   UNL     1       2.749   1.563  23.326  0.00  0.00    +0.116 C 
ATOM     14  C   UNL     1       1.654  -0.271  22.260  0.00  0.00    +0.061 C 
ATOM     15  C   UNL     1       3.030   0.211  22.700  0.00  0.00    +0.130 C 
BRANCH   7  11
ATOM      8  N   UNL     1      -1.570   3.981  25.259  0.00  0.00    -0.305 NA
ATOM     11  C   UNL     1       0.859   2.543  24.488  0.00  0.00    +0.060 C 
ATOM     16  C   UNL     1      -0.170   3.018  23.459  0.00  0.00    +0.034 C 
ATOM     17  C   UNL     1       0.183   2.335  25.845  0.00  0.00    +0.034 C 
ATOM     18  C   UNL     1      -0.924   4.250  23.966  0.00  0.00    +0.085 C 
ATOM     19  C   UNL     1      -0.583   3.588  26.275  0.00  0.00    +0.085 C 
ATOM     21  C   UNL     1      -2.328   5.149  25.706  0.00  0.00    +0.104 C 
ENDBRANCH   7  11
BRANCH  15   3
ATOM      3  O   UNL     1       3.903   0.317  21.592  0.00  0.00    -0.390 OA
ATOM     30  H   UNL     1       3.514  -0.199  20.864  0.00  0.00    +0.210 HD
ENDBRANCH  15   3
ENDBRANCH  20  12
BRANCH  22  23
ATOM     23  C   UNL     1      -3.175  -1.778  25.295  0.00  0.00    +0.251 C 
BRANCH  23   1
ATOM      1  S   UNL     1      -4.344  -1.235  24.080  0.00  0.00    +0.004 S 
ATOM      5  O   UNL     1      -5.549  -2.027  24.248  0.00  0.00    -0.169 OA
ATOM      6  O   UNL     1      -3.677  -1.175  22.793  0.00  0.00    -0.169 OA
BRANCH   1  24
ATOM      2  F   UNL     1      -5.565   4.311  25.661  0.00  0.00    -0.205 F 
ATOM     24  C   UNL     1      -4.709   0.426  24.555  0.00  0.00    +0.089 A 
ATOM     25  C   UNL     1      -5.547   0.673  25.643  0.00  0.00    +0.030 A 
ATOM     26  C   UNL     1      -4.161   1.491  23.841  0.00  0.00    +0.030 A 
ATOM     27  C   UNL     1      -5.836   1.985  26.017  0.00  0.00    +0.040 A 
ATOM     28  C   UNL     1      -4.450   2.804  24.216  0.00  0.00    +0.040 A 
ATOM     29  C   UNL     1      -5.287   3.051  25.304  0.00  0.00    +0.124 A 
ENDBRANCH   1  24
ENDBRANCH  23   1
ENDBRANCH  22  23
TORSDOF 6
ENDMDL
MODEL 5
REMARK VINA RESULT:       0.2      3.208      6.633
REMARK  Name = 26743452
REMARK  7 active torsions:
REMARK  status: ('A' for Active; 'I' for Inactive)
REMARK    1  A    between atoms: S_1  and  C_23
REMARK    2  A    between atoms: S_1  and  C_24
REMARK    3  A    between atoms: O_3  and  C_15
REMARK    4  A    between atoms: N_7  and  C_11
REMARK    5  A    between atoms: N_8  and  C_21
REMARK    6  A    between atoms: C_12  and  C_20
REMARK    7  A    between atoms: C_22  and  C_23
REMARK                            x       y       z     vdW  Elec       q    Type
REMARK                         _______ _______ _______ _____ _____    ______ ____
ROOT
ATOM      4  O   UNL     1       0.095   3.482  23.901  0.00  0.00    -0.336 OA
ATOM      9  N   UNL     1      -0.910   2.395  25.583  0.00  0.00    -0.193 NA
ATOM     10  N   UNL     1      -0.939   4.317  24.341  0.00  0.00    -0.060 NA
ATOM     20  C   UNL     1       0.042   2.372  24.684  0.00  0.00    +0.245 A 
ATOM     22  C   UNL     1      -1.484   3.608  25.334  0.00  0.00    +0.193 A 
ENDROOT
BRANCH  20  12
ATOM      7  N   UNL     1       0.528   0.181  23.609  0.00  0.00    -0.286 NA
ATOM     12  C   UNL     1       1.072   1.299  24.406  0.00  0.00    +0.149 C 
ATOM     13  C   UNL     1       1.647  -0.360  22.838  0.00  0.00    +0.116 C 
ATOM     14  C   UNL     1       2.270   1.819  23.590  0.00  0.00    +0.061 C 
ATOM     15  C   UNL     1       2.347   0.902  22.375  0.00  0.00    +0.130 C 
BRANCH   7  11
ATOM      8  N   UNL     1      -2.579  -2.173  25.304  0.00  0.00    -0.305 NA
ATOM     11  C   UNL     1      -0.126  -0.842  24.422  0.00  0.00    +0.060 C 
ATOM     16  C   UNL     1      -1.079  -0.208  25.438  0.00  0.00    +0.034 C 
ATOM     17  C   UNL     1      -0.892  -1.820  23.527  0.00  0.00    +0.034 C 
ATOM     18  C   UNL     1      -1.847  -1.281  26.214  0.00  0.00    +0.085 C 
ATOM     19  C   UNL     1      -1.665  -2.840  24.365  0.00  0.00    +0.085 C 
ATOM     21  C   UNL     1      -3.346  -3.160  26.062  0.00  0.00    +0.104 C 
ENDBRANCH   7  11
BRANCH  15   3
ATOM      3  O   UNL     1       3.693   0.655  22.018  0.00  0.00    -0.390 OA
ATOM     30  H   UNL     1       4.193   1.474  22.180  0.00  0.00    +0.210 HD
ENDBRANCH  15   3
ENDBRANCH  20  12
BRANCH  22  23
ATOM     23  C   UNL     1      -2.628   4.104  26.107  0.00  0.00    +0.251 C 
BRANCH  23   1
ATOM      1  S   UNL     1      -4.072   4.049  25.083  0.00  0.00    +0.004 S 
ATOM      5  O   UNL     1      -3.815   4.876  23.918  0.00  0.00    -0.169 OA
ATOM      6  O   UNL     1      -5.237   4.292  25.914  0.00  0.00    -0.169 OA
BRANCH   1  24
ATOM      2  F   UNL     1      -4.345  -1.569  23.318  0.00  0.00    -0.205 F 
ATOM     24  C   UNL     1      -4.153   2.366  24.554  0.00  0.00    +0.089 A 
ATOM     25  C   UNL     1      -3.430   1.951  23.436  0.00  0.00    +0.030 A 
ATOM     26  C   UNL     1      -4.940   1.452  25.255  0.00  0.00    +0.030 A 
ATOM     27  C   UNL     1      -3.494   0.621  23.018  0.00  0.00    +0.040 A 
ATOM     28  C   UNL     1      -5.005   0.123  24.837  0.00  0.00    +0.040 A 
ATOM     29  C   UNL     1      -4.282  -0.293  23.719  0.00  0.00    +0.124 A 
ENDBRANCH   1  24
ENDBRANCH  23   1
ENDBRANCH  22  23
TORSDOF 6
ENDMDL
MODEL 6
REMARK VINA RESULT:       0.6      3.115      6.836
REMARK  Name = 26743452
REMARK  7 active torsions:
REMARK  status: ('A' for Active; 'I' for Inactive)
REMARK    1  A    between atoms: S_1  and  C_23
REMARK    2  A    between atoms: S_1  and  C_24
REMARK    3  A    between atoms: O_3  and  C_15
REMARK    4  A    between atoms: N_7  and  C_11
REMARK    5  A    between atoms: N_8  and  C_21
REMARK    6  A    between atoms: C_12  and  C_20
REMARK    7  A    between atoms: C_22  and  C_23
REMARK                            x       y       z     vdW  Elec       q    Type
REMARK                         _______ _______ _______ _____ _____    ______ ____
ROOT
ATOM      4  O   UNL     1      -3.034   1.637  22.790  0.00  0.00    -0.336 OA
ATOM      9  N   UNL     1      -4.454   0.894  24.355  0.00  0.00    -0.193 NA
ATOM     10  N   UNL     1      -3.990   2.647  22.959  0.00  0.00    -0.060 NA
ATOM     20  C   UNL     1      -3.381   0.643  23.649  0.00  0.00    +0.245 A 
ATOM     22  C   UNL     1      -4.792   2.135  23.897  0.00  0.00    +0.193 A 
ENDROOT
BRANCH  20  12
ATOM      7  N   UNL     1      -1.245  -0.372  24.425  0.00  0.00    -0.286 NA
ATOM     12  C   UNL     1      -2.491  -0.581  23.660  0.00  0.00    +0.149 C 
ATOM     13  C   UNL     1      -0.860  -1.679  24.956  0.00  0.00    +0.116 C 
ATOM     14  C   UNL     1      -3.160  -1.800  24.323  0.00  0.00    +0.061 C 
ATOM     15  C   UNL     1      -2.194  -2.231  25.419  0.00  0.00    +0.130 C 
BRANCH   7  11
ATOM      8  N   UNL     1       2.671   0.776  23.234  0.00  0.00    -0.305 NA
ATOM     11  C   UNL     1      -0.177   0.236  23.633  0.00  0.00    +0.060 C 
ATOM     16  C   UNL     1       0.575   1.293  24.445  0.00  0.00    +0.034 C 
ATOM     17  C   UNL     1       0.798  -0.839  23.144  0.00  0.00    +0.034 C 
ATOM     18  C   UNL     1       1.761   1.851  23.655  0.00  0.00    +0.085 C 
ATOM     19  C   UNL     1       1.976  -0.212  22.396  0.00  0.00    +0.085 C 
ATOM     21  C   UNL     1       3.824   1.329  22.524  0.00  0.00    +0.104 C 
ENDBRANCH   7  11
BRANCH  15   3
ATOM      3  O   UNL     1      -2.166  -3.641  25.536  0.00  0.00    -0.390 OA
ATOM     30  H   UNL     1      -1.233  -3.916  25.529  0.00  0.00    +0.210 HD
ENDBRANCH  15   3
ENDBRANCH  20  12
BRANCH  22  23
ATOM     23  C   UNL     1      -5.961   2.863  24.403  0.00  0.00    +0.251 C 
BRANCH  23   1
ATOM      1  S   UNL     1      -5.494   3.737  25.871  0.00  0.00    +0.004 S 
ATOM      5  O   UNL     1      -5.672   2.834  26.993  0.00  0.00    -0.169 OA
ATOM      6  O   UNL     1      -6.143   5.035  25.861  0.00  0.00    -0.169 OA
BRANCH   1  24
ATOM      2  F   UNL     1       0.283   4.687  25.181  0.00  0.00    -0.205 F 
ATOM     24  C   UNL     1      -3.763   4.021  25.664  0.00  0.00    +0.089 A 
ATOM     25  C   UNL     1      -2.840   3.143  26.232  0.00  0.00    +0.030 A 
ATOM     26  C   UNL     1      -3.320   5.123  24.933  0.00  0.00    +0.030 A 
ATOM     27  C   UNL     1      -1.473   3.367  26.068  0.00  0.00    +0.040 A 
ATOM     28  C   UNL     1      -1.953   5.347  24.770  0.00  0.00    +0.040 A 
ATOM     29  C   UNL     1      -1.029   4.470  25.337  0.00  0.00    +0.124 A 
ENDBRANCH   1  24
ENDBRANCH  23   1
ENDBRANCH  22  23
TORSDOF 6
ENDMDL
MODEL 7
REMARK VINA RESULT:       1.1      3.578      7.180
REMARK  Name = 26743452
REMARK  7 active torsions:
REMARK  status: ('A' for Active; 'I' for Inactive)
REMARK    1  A    between atoms: S_1  and  C_23
REMARK    2  A    between atoms: S_1  and  C_24
REMARK    3  A    between atoms: O_3  and  C_15
REMARK    4  A    between atoms: N_7  and  C_11
REMARK    5  A    between atoms: N_8  and  C_21
REMARK    6  A    between atoms: C_12  and  C_20
REMARK    7  A    between atoms: C_22  and  C_23
REMARK                            x       y       z     vdW  Elec       q    Type
REMARK                         _______ _______ _______ _____ _____    ______ ____
ROOT
ATOM      4  O   UNL     1       0.224   2.257  26.032  0.00  0.00    -0.336 OA
ATOM      9  N   UNL     1      -0.613   2.761  24.016  0.00  0.00    -0.193 NA
ATOM     10  N   UNL     1      -0.652   3.331  26.232  0.00  0.00    -0.060 NA
ATOM     20  C   UNL     1       0.188   1.984  24.701  0.00  0.00    +0.245 A 
ATOM     22  C   UNL     1      -1.106   3.570  24.999  0.00  0.00    +0.193 A 
ENDROOT
BRANCH  20  12
ATOM      7  N   UNL     1       0.506   0.165  23.033  0.00  0.00    -0.286 NA
ATOM     12  C   UNL     1       1.061   0.845  24.221  0.00  0.00    +0.149 C 
ATOM     13  C   UNL     1       1.648  -0.352  22.281  0.00  0.00    +0.116 C 
ATOM     14  C   UNL     1       2.464   1.309  23.789  0.00  0.00    +0.061 C 
ATOM     15  C   UNL     1       2.624   0.806  22.360  0.00  0.00    +0.130 C 
BRANCH   7  11
ATOM      8  N   UNL     1      -2.539  -1.925  25.137  0.00  0.00    -0.305 NA
ATOM     11  C   UNL     1      -0.454  -0.886  23.366  0.00  0.00    +0.060 C 
ATOM     16  C   UNL     1      -0.134  -1.510  24.726  0.00  0.00    +0.034 C 
ATOM     17  C   UNL     1      -1.877  -0.320  23.374  0.00  0.00    +0.034 C 
ATOM     18  C   UNL     1      -1.201  -2.532  25.126  0.00  0.00    +0.085 C 
ATOM     19  C   UNL     1      -2.887  -1.380  23.817  0.00  0.00    +0.085 C 
ATOM     21  C   UNL     1      -3.540  -2.900  25.569  0.00  0.00    +0.104 C 
ENDBRANCH   7  11
BRANCH  15   3
ATOM      3  O   UNL     1       3.954   0.388  22.122  0.00  0.00    -0.390 OA
ATOM     30  H   UNL     1       4.537   0.948  22.663  0.00  0.00    +0.210 HD
ENDBRANCH  15   3
ENDBRANCH  20  12
BRANCH  22  23
ATOM     23  C   UNL     1      -2.075   4.636  24.720  0.00  0.00    +0.251 C 
BRANCH  23   1
ATOM      1  S   UNL     1      -3.307   4.009  23.613  0.00  0.00    +0.004 S 
ATOM      5  O   UNL     1      -2.656   3.067  22.722  0.00  0.00    -0.169 OA
ATOM      6  O   UNL     1      -4.058   5.130  23.078  0.00  0.00    -0.169 OA
BRANCH   1  24
ATOM      2  F   UNL     1      -6.955   0.990  27.125  0.00  0.00    -0.205 F 
ATOM     24  C   UNL     1      -4.401   3.105  24.665  0.00  0.00    +0.089 A 
ATOM     25  C   UNL     1      -5.162   3.777  25.621  0.00  0.00    +0.030 A 
ATOM     26  C   UNL     1      -4.502   1.720  24.539  0.00  0.00    +0.030 A 
ATOM     27  C   UNL     1      -6.026   3.063  26.452  0.00  0.00    +0.040 A 
ATOM     28  C   UNL     1      -5.365   1.006  25.370  0.00  0.00    +0.040 A 
ATOM     29  C   UNL     1      -6.127   1.677  26.327  0.00  0.00    +0.124 A 
ENDBRANCH   1  24
ENDBRANCH  23   1
ENDBRANCH  22  23
TORSDOF 6
ENDMDL
