MODEL 1
REMARK VINA RESULT:      -5.3      0.000      0.000
REMARK  Name = 56775461
REMARK  9 active torsions:
REMARK  status: ('A' for Active; 'I' for Inactive)
REMARK    1  A    between atoms: N_3  and  C_5
REMARK    2  A    between atoms: N_3  and  C_7
REMARK    3  A    between atoms: C_5  and  C_12
REMARK    4  A    between atoms: C_6  and  C_7
REMARK    5  A    between atoms: C_12  and  C_16
REMARK    6  A    between atoms: C_18  and  C_19
REMARK    7  A    between atoms: C_18  and  C_20
REMARK    8  A    between atoms: C_18  and  C_21
REMARK    9  A    between atoms: C_18  and  C_22
REMARK                            x       y       z     vdW  Elec       q    Type
REMARK                         _______ _______ _______ _____ _____    ______ ____
ROOT
ATOM      1  O   UNL     1      -6.624   4.040  26.004  0.00  0.00    -0.376 OA
ATOM      5  C   UNL     1      -4.663   3.730  25.222  0.00  0.00    +0.072 C 
ATOM      8  C   UNL     1      -5.705   2.924  25.989  0.00  0.00    +0.184 C 
ATOM      9  C   UNL     1      -5.645   4.887  25.363  0.00  0.00    +0.184 C 
ENDROOT
BRANCH   5   3
ATOM      3  N   UNL     1      -3.515   3.975  26.103  0.00  0.00    -0.306 NA
ATOM     23  H   UNL     1      -3.735   4.414  26.995  0.00  0.00    +0.123 HD
BRANCH   3   7
ATOM      7  C   UNL     1      -2.518   4.763  25.393  0.00  0.00    +0.085 C 
BRANCH   7   6
ATOM      6  C   UNL     1      -1.168   4.052  25.381  0.00  0.00    +0.003 C 
ATOM     10  C   UNL     1      -1.218   2.781  26.240  0.00  0.00    +0.005 C 
ATOM     11  C   UNL     1      -0.741   3.722  23.945  0.00  0.00    +0.005 C 
ATOM     13  C   UNL     1       0.106   2.022  26.203  0.00  0.00    +0.000 C 
ATOM     14  C   UNL     1       0.582   2.961  23.910  0.00  0.00    +0.000 C 
ATOM     15  C   UNL     1       0.532   1.704  24.772  0.00  0.00    +0.000 C 
ENDBRANCH   7   6
ENDBRANCH   3   7
ENDBRANCH   5   3
BRANCH   5  12
ATOM     12  C   UNL     1      -4.261   3.279  23.852  0.00  0.00    +0.085 C 
BRANCH  12  16
ATOM      2  O   UNL     1      -2.376   0.236  23.363  0.00  0.00    -0.359 OA
ATOM      4  N   UNL     1      -2.676   1.559  23.062  0.00  0.00    -0.083 NA
ATOM     16  C   UNL     1      -3.670   1.885  23.895  0.00  0.00    +0.086 A 
ATOM     17  C   UNL     1      -4.035   0.819  24.734  0.00  0.00    +0.071 A 
ATOM     19  C   UNL     1      -3.192  -0.194  24.360  0.00  0.00    +0.143 A 
BRANCH  19  18
ATOM     18  C   UNL     1      -3.009  -1.580  24.806  0.00  0.00    +0.023 C 
ATOM     20  C   UNL     1      -3.949  -2.654  24.138  0.00  0.00    +0.019 C 
ATOM     21  C   UNL     1      -3.256  -1.742  26.347  0.00  0.00    +0.019 C 
ATOM     22  C   UNL     1      -1.555  -2.102  24.525  0.00  0.00    +0.019 C 
ENDBRANCH  19  18
ENDBRANCH  12  16
ENDBRANCH   5  12
TORSDOF 6
ENDMDL
MODEL 2
REMARK VINA RESULT:      -5.0      2.030      5.675
REMARK  Name = 56775461
REMARK  9 active torsions:
REMARK  status: ('A' for Active; 'I' for Inactive)
REMARK    1  A    between atoms: N_3  and  C_5
REMARK    2  A    between atoms: N_3  and  C_7
REMARK    3  A    between atoms: C_5  and  C_12
REMARK    4  A    between atoms: C_6  and  C_7
REMARK    5  A    between atoms: C_12  and  C_16
REMARK    6  A    between atoms: C_18  and  C_19
REMARK    7  A    between atoms: C_18  and  C_20
REMARK    8  A    between atoms: C_18  and  C_21
REMARK    9  A    between atoms: C_18  and  C_22
REMARK                            x       y       z     vdW  Elec       q    Type
REMARK                         _______ _______ _______ _____ _____    ______ ____
ROOT
ATOM      1  O   UNL     1       2.134   0.861  23.173  0.00  0.00    -0.376 OA
ATOM      5  C   UNL     1       0.075   0.843  23.734  0.00  0.00    +0.072 C 
ATOM      8  C   UNL     1       1.263   1.790  23.858  0.00  0.00    +0.184 C 
ATOM      9  C   UNL     1       1.075  -0.121  23.107  0.00  0.00    +0.184 C 
ENDROOT
BRANCH   5   3
ATOM      3  N   UNL     1      -0.280   0.353  25.071  0.00  0.00    -0.306 NA
ATOM     23  H   UNL     1       0.245   0.765  25.840  0.00  0.00    +0.123 HD
BRANCH   3   7
ATOM      7  C   UNL     1      -0.158  -1.097  25.104  0.00  0.00    +0.085 C 
BRANCH   7   6
ATOM      6  C   UNL     1      -1.528  -1.755  25.252  0.00  0.00    +0.003 C 
ATOM     10  C   UNL     1      -2.550  -0.759  25.817  0.00  0.00    +0.005 C 
ATOM     11  C   UNL     1      -2.005  -2.321  23.908  0.00  0.00    +0.005 C 
ATOM     13  C   UNL     1      -3.941  -1.378  25.925  0.00  0.00    +0.000 C 
ATOM     14  C   UNL     1      -3.397  -2.938  24.018  0.00  0.00    +0.000 C 
ATOM     15  C   UNL     1      -4.408  -1.949  24.589  0.00  0.00    +0.000 C 
ENDBRANCH   7   6
ENDBRANCH   3   7
ENDBRANCH   5   3
BRANCH   5  12
ATOM     12  C   UNL     1      -1.116   1.275  22.935  0.00  0.00    +0.085 C 
BRANCH  12  16
ATOM      2  O   UNL     1      -3.058   3.048  25.413  0.00  0.00    -0.359 OA
ATOM      4  N   UNL     1      -1.860   2.733  24.785  0.00  0.00    -0.083 NA
ATOM     16  C   UNL     1      -2.190   1.849  23.837  0.00  0.00    +0.086 A 
ATOM     17  C   UNL     1      -3.568   1.572  23.822  0.00  0.00    +0.071 A 
ATOM     19  C   UNL     1      -4.068   2.351  24.831  0.00  0.00    +0.143 A 
BRANCH  19  18
ATOM     18  C   UNL     1      -5.413   2.567  25.377  0.00  0.00    +0.023 C 
ATOM     20  C   UNL     1      -5.657   2.057  26.847  0.00  0.00    +0.019 C 
ATOM     21  C   UNL     1      -6.517   1.851  24.523  0.00  0.00    +0.019 C 
ATOM     22  C   UNL     1      -5.793   4.089  25.421  0.00  0.00    +0.019 C 
ENDBRANCH  19  18
ENDBRANCH  12  16
ENDBRANCH   5  12
TORSDOF 6
ENDMDL
MODEL 3
REMARK VINA RESULT:      -4.9      1.930      4.160
REMARK  Name = 56775461
REMARK  9 active torsions:
REMARK  status: ('A' for Active; 'I' for Inactive)
REMARK    1  A    between atoms: N_3  and  C_5
REMARK    2  A    between atoms: N_3  and  C_7
REMARK    3  A    between atoms: C_5  and  C_12
REMARK    4  A    between atoms: C_6  and  C_7
REMARK    5  A    between atoms: C_12  and  C_16
REMARK    6  A    between atoms: C_18  and  C_19
REMARK    7  A    between atoms: C_18  and  C_20
REMARK    8  A    between atoms: C_18  and  C_21
REMARK    9  A    between atoms: C_18  and  C_22
REMARK                            x       y       z     vdW  Elec       q    Type
REMARK                         _______ _______ _______ _____ _____    ______ ____
ROOT
ATOM      1  O   UNL     1      -5.455   4.149  25.809  0.00  0.00    -0.376 OA
ATOM      5  C   UNL     1      -4.068   2.812  24.891  0.00  0.00    +0.072 C 
ATOM      8  C   UNL     1      -5.580   3.000  24.940  0.00  0.00    +0.184 C 
ATOM      9  C   UNL     1      -4.023   3.969  25.882  0.00  0.00    +0.184 C 
ENDROOT
BRANCH   5   3
ATOM      3  N   UNL     1      -3.723   1.572  25.596  0.00  0.00    -0.306 NA
ATOM     23  H   UNL     1      -2.769   1.243  25.458  0.00  0.00    +0.123 HD
BRANCH   3   7
ATOM      7  C   UNL     1      -4.668   0.527  25.231  0.00  0.00    +0.085 C 
BRANCH   7   6
ATOM      6  C   UNL     1      -4.010  -0.849  25.295  0.00  0.00    +0.003 C 
ATOM     10  C   UNL     1      -4.265  -1.633  24.001  0.00  0.00    +0.005 C 
ATOM     11  C   UNL     1      -2.505  -0.718  25.566  0.00  0.00    +0.005 C 
ATOM     13  C   UNL     1      -3.572  -2.993  24.019  0.00  0.00    +0.000 C 
ATOM     14  C   UNL     1      -1.814  -2.079  25.581  0.00  0.00    +0.000 C 
ATOM     15  C   UNL     1      -2.077  -2.859  24.297  0.00  0.00    +0.000 C 
ENDBRANCH   7   6
ENDBRANCH   3   7
ENDBRANCH   5   3
BRANCH   5  12
ATOM     12  C   UNL     1      -3.362   2.952  23.577  0.00  0.00    +0.085 C 
BRANCH  12  16
ATOM      2  O   UNL     1       0.085   2.120  24.269  0.00  0.00    -0.359 OA
ATOM      4  N   UNL     1      -1.050   2.902  24.442  0.00  0.00    -0.083 NA
ATOM     16  C   UNL     1      -1.973   2.353  23.646  0.00  0.00    +0.086 A 
ATOM     17  C   UNL     1      -1.482   1.233  22.953  0.00  0.00    +0.071 A 
ATOM     19  C   UNL     1      -0.184   1.129  23.379  0.00  0.00    +0.143 A 
BRANCH  19  18
ATOM     18  C   UNL     1       0.914   0.203  23.078  0.00  0.00    +0.023 C 
ATOM     20  C   UNL     1       0.907  -0.438  21.639  0.00  0.00    +0.019 C 
ATOM     21  C   UNL     1       0.935  -1.024  24.056  0.00  0.00    +0.019 C 
ATOM     22  C   UNL     1       2.317   0.896  23.194  0.00  0.00    +0.019 C 
ENDBRANCH  19  18
ENDBRANCH  12  16
ENDBRANCH   5  12
TORSDOF 6
ENDMDL
MODEL 4
REMARK VINA RESULT:      -4.9      1.862      3.990
REMARK  Name = 56775461
REMARK  9 active torsions:
REMARK  status: ('A' for Active; 'I' for Inactive)
REMARK    1  A    between atoms: N_3  and  C_5
REMARK    2  A    between atoms: N_3  and  C_7
REMARK    3  A    between atoms: C_5  and  C_12
REMARK    4  A    between atoms: C_6  and  C_7
REMARK    5  A    between atoms: C_12  and  C_16
REMARK    6  A    between atoms: C_18  and  C_19
REMARK    7  A    between atoms: C_18  and  C_20
REMARK    8  A    between atoms: C_18  and  C_21
REMARK    9  A    between atoms: C_18  and  C_22
REMARK                            x       y       z     vdW  Elec       q    Type
REMARK                         _______ _______ _______ _____ _____    ______ ____
ROOT
ATOM      1  O   UNL     1      -0.514   5.624  24.689  0.00  0.00    -0.376 OA
ATOM      5  C   UNL     1      -1.126   3.583  24.803  0.00  0.00    +0.072 C 
ATOM      8  C   UNL     1      -0.124   4.411  24.007  0.00  0.00    +0.184 C 
ATOM      9  C   UNL     1      -1.549   4.916  25.409  0.00  0.00    +0.184 C 
ENDROOT
BRANCH   5   3
ATOM      3  N   UNL     1      -2.182   3.120  23.896  0.00  0.00    -0.306 NA
ATOM     23  H   UNL     1      -1.899   2.991  22.926  0.00  0.00    +0.123 HD
BRANCH   3   7
ATOM      7  C   UNL     1      -3.317   4.028  23.968  0.00  0.00    +0.085 C 
BRANCH   7   6
ATOM      6  C   UNL     1      -4.585   3.285  24.381  0.00  0.00    +0.003 C 
ATOM     10  C   UNL     1      -4.434   1.778  24.133  0.00  0.00    +0.005 C 
ATOM     11  C   UNL     1      -4.923   3.564  25.851  0.00  0.00    +0.005 C 
ATOM     13  C   UNL     1      -5.670   1.005  24.586  0.00  0.00    +0.000 C 
ATOM     14  C   UNL     1      -6.158   2.789  26.303  0.00  0.00    +0.000 C 
ATOM     15  C   UNL     1      -6.009   1.293  26.047  0.00  0.00    +0.000 C 
ENDBRANCH   7   6
ENDBRANCH   3   7
ENDBRANCH   5   3
BRANCH   5  12
ATOM     12  C   UNL     1      -0.617   2.502  25.707  0.00  0.00    +0.085 C 
BRANCH  12  16
ATOM      2  O   UNL     1      -0.881  -0.664  23.988  0.00  0.00    -0.359 OA
ATOM      4  N   UNL     1      -0.261   0.555  24.232  0.00  0.00    -0.083 NA
ATOM     16  C   UNL     1      -1.002   1.135  25.181  0.00  0.00    +0.086 A 
ATOM     17  C   UNL     1      -2.091   0.337  25.570  0.00  0.00    +0.071 A 
ATOM     19  C   UNL     1      -1.970  -0.783  24.791  0.00  0.00    +0.143 A 
BRANCH  19  18
ATOM     18  C   UNL     1      -2.747  -2.021  24.662  0.00  0.00    +0.023 C 
ATOM     20  C   UNL     1      -4.073  -1.925  23.816  0.00  0.00    +0.019 C 
ATOM     21  C   UNL     1      -3.208  -2.575  26.056  0.00  0.00    +0.019 C 
ATOM     22  C   UNL     1      -1.923  -3.165  23.973  0.00  0.00    +0.019 C 
ENDBRANCH  19  18
ENDBRANCH  12  16
ENDBRANCH   5  12
TORSDOF 6
ENDMDL
MODEL 5
REMARK VINA RESULT:      -4.8      1.813      5.120
REMARK  Name = 56775461
REMARK  9 active torsions:
REMARK  status: ('A' for Active; 'I' for Inactive)
REMARK    1  A    between atoms: N_3  and  C_5
REMARK    2  A    between atoms: N_3  and  C_7
REMARK    3  A    between atoms: C_5  and  C_12
REMARK    4  A    between atoms: C_6  and  C_7
REMARK    5  A    between atoms: C_12  and  C_16
REMARK    6  A    between atoms: C_18  and  C_19
REMARK    7  A    between atoms: C_18  and  C_20
REMARK    8  A    between atoms: C_18  and  C_21
REMARK    9  A    between atoms: C_18  and  C_22
REMARK                            x       y       z     vdW  Elec       q    Type
REMARK                         _______ _______ _______ _____ _____    ______ ____
ROOT
ATOM      1  O   UNL     1      -3.075  -3.788  24.760  0.00  0.00    -0.376 OA
ATOM      5  C   UNL     1      -2.814  -1.695  24.439  0.00  0.00    +0.072 C 
ATOM      8  C   UNL     1      -2.248  -2.994  23.880  0.00  0.00    +0.184 C 
ATOM      9  C   UNL     1      -3.583  -2.595  25.400  0.00  0.00    +0.184 C 
ENDROOT
BRANCH   5   3
ATOM      3  N   UNL     1      -1.758  -1.001  25.185  0.00  0.00    -0.306 NA
ATOM     23  H   UNL     1      -2.065  -0.200  25.734  0.00  0.00    +0.123 HD
BRANCH   3   7
ATOM      7  C   UNL     1      -0.700  -0.600  24.269  0.00  0.00    +0.085 C 
BRANCH   7   6
ATOM      6  C   UNL     1      -0.178   0.792  24.615  0.00  0.00    +0.003 C 
ATOM     10  C   UNL     1      -0.602   1.810  23.548  0.00  0.00    +0.005 C 
ATOM     11  C   UNL     1      -0.666   1.224  26.004  0.00  0.00    +0.005 C 
ATOM     13  C   UNL     1      -0.137   3.221  23.898  0.00  0.00    +0.000 C 
ATOM     14  C   UNL     1      -0.201   2.636  26.352  0.00  0.00    +0.000 C 
ATOM     15  C   UNL     1      -0.616   3.644  25.284  0.00  0.00    +0.000 C 
ENDBRANCH   7   6
ENDBRANCH   3   7
ENDBRANCH   5   3
BRANCH   5  12
ATOM     12  C   UNL     1      -3.579  -0.784  23.528  0.00  0.00    +0.085 C 
BRANCH  12  16
ATOM      2  O   UNL     1      -5.022   1.680  25.740  0.00  0.00    -0.359 OA
ATOM      4  N   UNL     1      -4.827   0.372  25.317  0.00  0.00    -0.083 NA
ATOM     16  C   UNL     1      -4.015   0.468  24.259  0.00  0.00    +0.086 A 
ATOM     17  C   UNL     1      -3.670   1.799  23.971  0.00  0.00    +0.071 A 
ATOM     19  C   UNL     1      -4.328   2.522  24.931  0.00  0.00    +0.143 A 
BRANCH  19  18
ATOM     18  C   UNL     1      -4.423   3.954  25.238  0.00  0.00    +0.023 C 
ATOM     20  C   UNL     1      -5.871   4.511  25.514  0.00  0.00    +0.019 C 
ATOM     21  C   UNL     1      -3.873   4.845  24.070  0.00  0.00    +0.019 C 
ATOM     22  C   UNL     1      -3.603   4.337  26.521  0.00  0.00    +0.019 C 
ENDBRANCH  19  18
ENDBRANCH  12  16
ENDBRANCH   5  12
TORSDOF 6
ENDMDL
MODEL 6
REMARK VINA RESULT:      -4.8      2.344      5.484
REMARK  Name = 56775461
REMARK  9 active torsions:
REMARK  status: ('A' for Active; 'I' for Inactive)
REMARK    1  A    between atoms: N_3  and  C_5
REMARK    2  A    between atoms: N_3  and  C_7
REMARK    3  A    between atoms: C_5  and  C_12
REMARK    4  A    between atoms: C_6  and  C_7
REMARK    5  A    between atoms: C_12  and  C_16
REMARK    6  A    between atoms: C_18  and  C_19
REMARK    7  A    between atoms: C_18  and  C_20
REMARK    8  A    between atoms: C_18  and  C_21
REMARK    9  A    between atoms: C_18  and  C_22
REMARK                            x       y       z     vdW  Elec       q    Type
REMARK                         _______ _______ _______ _____ _____    ______ ____
ROOT
ATOM      1  O   UNL     1      -3.778  -3.670  25.185  0.00  0.00    -0.376 OA
ATOM      5  C   UNL     1      -2.648  -2.046  24.384  0.00  0.00    +0.072 C 
ATOM      8  C   UNL     1      -3.320  -2.401  25.705  0.00  0.00    +0.184 C 
ATOM      9  C   UNL     1      -3.245  -3.355  23.878  0.00  0.00    +0.184 C 
ENDROOT
BRANCH   5   3
ATOM      3  N   UNL     1      -3.374  -0.928  23.771  0.00  0.00    -0.306 NA
ATOM     23  H   UNL     1      -2.795  -0.144  23.472  0.00  0.00    +0.123 HD
BRANCH   3   7
ATOM      7  C   UNL     1      -4.410  -0.463  24.681  0.00  0.00    +0.085 C 
BRANCH   7   6
ATOM      6  C   UNL     1      -4.779   0.990  24.391  0.00  0.00    +0.003 C 
ATOM     10  C   UNL     1      -5.231   1.701  25.673  0.00  0.00    +0.005 C 
ATOM     11  C   UNL     1      -3.600   1.729  23.744  0.00  0.00    +0.005 C 
ATOM     13  C   UNL     1      -5.555   3.171  25.419  0.00  0.00    +0.000 C 
ATOM     14  C   UNL     1      -3.926   3.199  23.492  0.00  0.00    +0.000 C 
ATOM     15  C   UNL     1      -4.384   3.901  24.767  0.00  0.00    +0.000 C 
ENDBRANCH   7   6
ENDBRANCH   3   7
ENDBRANCH   5   3
BRANCH   5  12
ATOM     12  C   UNL     1      -1.162  -1.865  24.352  0.00  0.00    +0.085 C 
BRANCH  12  16
ATOM      2  O   UNL     1       0.050   1.516  23.966  0.00  0.00    -0.359 OA
ATOM      4  N   UNL     1      -0.115   0.211  23.521  0.00  0.00    -0.083 NA
ATOM     16  C   UNL     1      -0.794  -0.403  24.495  0.00  0.00    +0.086 A 
ATOM     17  C   UNL     1      -1.082   0.457  25.569  0.00  0.00    +0.071 A 
ATOM     19  C   UNL     1      -0.529   1.651  25.187  0.00  0.00    +0.143 A 
BRANCH  19  18
ATOM     18  C   UNL     1      -0.448   2.978  25.808  0.00  0.00    +0.023 C 
ATOM     20  C   UNL     1      -1.748   3.484  26.540  0.00  0.00    +0.019 C 
ATOM     21  C   UNL     1      -0.123   4.100  24.761  0.00  0.00    +0.019 C 
ATOM     22  C   UNL     1       0.673   3.047  26.905  0.00  0.00    +0.019 C 
ENDBRANCH  19  18
ENDBRANCH  12  16
ENDBRANCH   5  12
TORSDOF 6
ENDMDL
MODEL 7
REMARK VINA RESULT:      -4.7      1.714      4.751
REMARK  Name = 56775461
REMARK  9 active torsions:
REMARK  status: ('A' for Active; 'I' for Inactive)
REMARK    1  A    between atoms: N_3  and  C_5
REMARK    2  A    between atoms: N_3  and  C_7
REMARK    3  A    between atoms: C_5  and  C_12
REMARK    4  A    between atoms: C_6  and  C_7
REMARK    5  A    between atoms: C_12  and  C_16
REMARK    6  A    between atoms: C_18  and  C_19
REMARK    7  A    between atoms: C_18  and  C_20
REMARK    8  A    between atoms: C_18  and  C_21
REMARK    9  A    between atoms: C_18  and  C_22
REMARK                            x       y       z     vdW  Elec       q    Type
REMARK                         _______ _______ _______ _____ _____    ______ ____
ROOT
ATOM      1  O   UNL     1      -0.859  -2.478  25.017  0.00  0.00    -0.376 OA
ATOM      5  C   UNL     1      -1.010  -0.385  24.631  0.00  0.00    +0.072 C 
ATOM      8  C   UNL     1       0.041  -1.480  24.486  0.00  0.00    +0.184 C 
ATOM      9  C   UNL     1      -1.866  -1.472  25.270  0.00  0.00    +0.184 C 
ENDROOT
BRANCH   5   3
ATOM      3  N   UNL     1      -0.577   0.550  25.676  0.00  0.00    -0.306 NA
ATOM     23  H   UNL     1      -1.325   0.953  26.238  0.00  0.00    +0.123 HD
BRANCH   3   7
ATOM      7  C   UNL     1       0.224   1.608  25.080  0.00  0.00    +0.085 C 
BRANCH   7   6
ATOM      6  C   UNL     1      -0.291   2.983  25.497  0.00  0.00    +0.003 C 
ATOM     10  C   UNL     1      -0.306   3.943  24.300  0.00  0.00    +0.005 C 
ATOM     11  C   UNL     1      -1.688   2.871  26.123  0.00  0.00    +0.005 C 
ATOM     13  C   UNL     1      -0.868   5.310  24.680  0.00  0.00    +0.000 C 
ATOM     14  C   UNL     1      -2.249   4.240  26.501  0.00  0.00    +0.000 C 
ATOM     15  C   UNL     1      -2.253   5.194  25.311  0.00  0.00    +0.000 C 
ENDBRANCH   7   6
ENDBRANCH   3   7
ENDBRANCH   5   3
BRANCH   5  12
ATOM     12  C   UNL     1      -1.511   0.307  23.401  0.00  0.00    +0.085 C 
BRANCH  12  16
ATOM      2  O   UNL     1      -4.150   2.770  23.545  0.00  0.00    -0.359 OA
ATOM      4  N   UNL     1      -2.978   2.254  23.008  0.00  0.00    -0.083 NA
ATOM     16  C   UNL     1      -2.732   1.147  23.716  0.00  0.00    +0.086 A 
ATOM     17  C   UNL     1      -3.705   0.918  24.704  0.00  0.00    +0.071 A 
ATOM     19  C   UNL     1      -4.574   1.966  24.555  0.00  0.00    +0.143 A 
BRANCH  19  18
ATOM     18  C   UNL     1      -5.809   2.368  25.238  0.00  0.00    +0.023 C 
ATOM     20  C   UNL     1      -6.038   1.759  26.673  0.00  0.00    +0.019 C 
ATOM     21  C   UNL     1      -7.089   1.962  24.428  0.00  0.00    +0.019 C 
ATOM     22  C   UNL     1      -5.885   3.921  25.454  0.00  0.00    +0.019 C 
ENDBRANCH  19  18
ENDBRANCH  12  16
ENDBRANCH   5  12
TORSDOF 6
ENDMDL
MODEL 8
REMARK VINA RESULT:      -4.6      1.989      6.020
REMARK  Name = 56775461
REMARK  9 active torsions:
REMARK  status: ('A' for Active; 'I' for Inactive)
REMARK    1  A    between atoms: N_3  and  C_5
REMARK    2  A    between atoms: N_3  and  C_7
REMARK    3  A    between atoms: C_5  and  C_12
REMARK    4  A    between atoms: C_6  and  C_7
REMARK    5  A    between atoms: C_12  and  C_16
REMARK    6  A    between atoms: C_18  and  C_19
REMARK    7  A    between atoms: C_18  and  C_20
REMARK    8  A    between atoms: C_18  and  C_21
REMARK    9  A    between atoms: C_18  and  C_22
REMARK                            x       y       z     vdW  Elec       q    Type
REMARK                         _______ _______ _______ _____ _____    ______ ____
ROOT
ATOM      1  O   UNL     1       1.416  -0.335  21.648  0.00  0.00    -0.376 OA
ATOM      5  C   UNL     1       0.734   0.189  23.601  0.00  0.00    +0.072 C 
ATOM      8  C   UNL     1       2.032  -0.279  22.955  0.00  0.00    +0.184 C 
ATOM      9  C   UNL     1       0.131   0.015  22.212  0.00  0.00    +0.184 C 
ENDROOT
BRANCH   5   3
ATOM      3  N   UNL     1       0.228  -0.877  24.473  0.00  0.00    -0.306 NA
ATOM     23  H   UNL     1      -0.149  -1.692  23.992  0.00  0.00    +0.123 HD
BRANCH   3   7
ATOM      7  C   UNL     1      -0.769  -0.330  25.382  0.00  0.00    +0.085 C 
BRANCH   7   6
ATOM      6  C   UNL     1      -2.072  -1.121  25.302  0.00  0.00    +0.003 C 
ATOM     10  C   UNL     1      -3.170  -0.291  24.624  0.00  0.00    +0.005 C 
ATOM     11  C   UNL     1      -1.856  -2.447  24.561  0.00  0.00    +0.005 C 
ATOM     13  C   UNL     1      -4.469  -1.079  24.484  0.00  0.00    +0.000 C 
ATOM     14  C   UNL     1      -3.157  -3.234  24.421  0.00  0.00    +0.000 C 
ATOM     15  C   UNL     1      -4.249  -2.402  23.755  0.00  0.00    +0.000 C 
ENDBRANCH   7   6
ENDBRANCH   3   7
ENDBRANCH   5   3
BRANCH   5  12
ATOM     12  C   UNL     1       0.691   1.540  24.247  0.00  0.00    +0.085 C 
BRANCH  12  16
ATOM      2  O   UNL     1      -2.638   2.663  23.404  0.00  0.00    -0.359 OA
ATOM      4  N   UNL     1      -1.420   2.076  23.084  0.00  0.00    -0.083 NA
ATOM     16  C   UNL     1      -0.713   2.107  24.218  0.00  0.00    +0.086 A 
ATOM     17  C   UNL     1      -1.427   2.696  25.276  0.00  0.00    +0.071 A 
ATOM     19  C   UNL     1      -2.630   3.028  24.712  0.00  0.00    +0.143 A 
BRANCH  19  18
ATOM     18  C   UNL     1      -3.849   3.669  25.221  0.00  0.00    +0.023 C 
ATOM     20  C   UNL     1      -5.076   2.716  25.486  0.00  0.00    +0.019 C 
ATOM     21  C   UNL     1      -4.400   4.756  24.233  0.00  0.00    +0.019 C 
ATOM     22  C   UNL     1      -3.607   4.389  26.594  0.00  0.00    +0.019 C 
ENDBRANCH  19  18
ENDBRANCH  12  16
ENDBRANCH   5  12
TORSDOF 6
ENDMDL
MODEL 9
REMARK VINA RESULT:      -3.4      2.421      5.278
REMARK  Name = 56775461
REMARK  9 active torsions:
REMARK  status: ('A' for Active; 'I' for Inactive)
REMARK    1  A    between atoms: N_3  and  C_5
REMARK    2  A    between atoms: N_3  and  C_7
REMARK    3  A    between atoms: C_5  and  C_12
REMARK    4  A    between atoms: C_6  and  C_7
REMARK    5  A    between atoms: C_12  and  C_16
REMARK    6  A    between atoms: C_18  and  C_19
REMARK    7  A    between atoms: C_18  and  C_20
REMARK    8  A    between atoms: C_18  and  C_21
REMARK    9  A    between atoms: C_18  and  C_22
REMARK                            x       y       z     vdW  Elec       q    Type
REMARK                         _______ _______ _______ _____ _____    ______ ____
ROOT
ATOM      1  O   UNL     1       3.274   0.423  21.643  0.00  0.00    -0.376 OA
ATOM      5  C   UNL     1       1.635   0.143  22.981  0.00  0.00    +0.072 C 
ATOM      8  C   UNL     1       2.001  -0.257  21.557  0.00  0.00    +0.184 C 
ATOM      9  C   UNL     1       2.949   0.916  22.962  0.00  0.00    +0.184 C 
ENDROOT
BRANCH   5   3
ATOM      3  N   UNL     1       0.524   1.100  22.932  0.00  0.00    -0.306 NA
ATOM     23  H   UNL     1       0.440   1.627  22.065  0.00  0.00    +0.123 HD
BRANCH   3   7
ATOM      7  C   UNL     1       0.618   2.012  24.063  0.00  0.00    +0.085 C 
BRANCH   7   6
ATOM      6  C   UNL     1      -0.641   2.868  24.177  0.00  0.00    +0.003 C 
ATOM     10  C   UNL     1      -1.850   2.138  23.579  0.00  0.00    +0.005 C 
ATOM     11  C   UNL     1      -0.904   3.251  25.640  0.00  0.00    +0.005 C 
ATOM     13  C   UNL     1      -3.133   2.952  23.729  0.00  0.00    +0.000 C 
ATOM     14  C   UNL     1      -2.188   4.064  25.788  0.00  0.00    +0.000 C 
ATOM     15  C   UNL     1      -3.387   3.339  25.183  0.00  0.00    +0.000 C 
ENDBRANCH   7   6
ENDBRANCH   3   7
ENDBRANCH   5   3
BRANCH   5  12
ATOM     12  C   UNL     1       1.438  -0.929  24.008  0.00  0.00    +0.085 C 
BRANCH  12  16
ATOM      2  O   UNL     1      -1.639  -0.511  25.855  0.00  0.00    -0.359 OA
ATOM      4  N   UNL     1      -0.271  -0.334  25.688  0.00  0.00    -0.083 NA
ATOM     16  C   UNL     1       0.013  -0.926  24.523  0.00  0.00    +0.086 A 
ATOM     17  C   UNL     1      -1.124  -1.486  23.918  0.00  0.00    +0.071 A 
ATOM     19  C   UNL     1      -2.136  -1.198  24.795  0.00  0.00    +0.143 A 
BRANCH  19  18
ATOM     18  C   UNL     1      -3.577  -1.474  24.809  0.00  0.00    +0.023 C 
ATOM     20  C   UNL     1      -4.467  -0.572  23.872  0.00  0.00    +0.019 C 
ATOM     21  C   UNL     1      -4.198  -1.291  26.239  0.00  0.00    +0.019 C 
ATOM     22  C   UNL     1      -3.901  -2.944  24.362  0.00  0.00    +0.019 C 
ENDBRANCH  19  18
ENDBRANCH  12  16
ENDBRANCH   5  12
TORSDOF 6
ENDMDL
MODEL 10
REMARK VINA RESULT:      -3.2      2.141      5.022
REMARK  Name = 56775461
REMARK  9 active torsions:
REMARK  status: ('A' for Active; 'I' for Inactive)
REMARK    1  A    between atoms: N_3  and  C_5
REMARK    2  A    between atoms: N_3  and  C_7
REMARK    3  A    between atoms: C_5  and  C_12
REMARK    4  A    between atoms: C_6  and  C_7
REMARK    5  A    between atoms: C_12  and  C_16
REMARK    6  A    between atoms: C_18  and  C_19
REMARK    7  A    between atoms: C_18  and  C_20
REMARK    8  A    between atoms: C_18  and  C_21
REMARK    9  A    between atoms: C_18  and  C_22
REMARK                            x       y       z     vdW  Elec       q    Type
REMARK                         _______ _______ _______ _____ _____    ______ ____
ROOT
ATOM      1  O   UNL     1       1.666  -0.369  22.208  0.00  0.00    -0.376 OA
ATOM      5  C   UNL     1       0.052  -0.035  23.564  0.00  0.00    +0.072 C 
ATOM      8  C   UNL     1       0.237  -0.205  22.061  0.00  0.00    +0.184 C 
ATOM      9  C   UNL     1       1.573  -0.120  23.629  0.00  0.00    +0.184 C 
ENDROOT
BRANCH   5   3
ATOM      3  N   UNL     1      -0.356   1.348  23.836  0.00  0.00    -0.306 NA
ATOM     23  H   UNL     1      -0.164   2.015  23.089  0.00  0.00    +0.123 HD
BRANCH   3   7
ATOM      7  C   UNL     1       0.256   1.800  25.077  0.00  0.00    +0.085 C 
BRANCH   7   6
ATOM      6  C   UNL     1      -0.346   3.128  25.529  0.00  0.00    +0.003 C 
ATOM     10  C   UNL     1      -0.309   4.156  24.389  0.00  0.00    +0.005 C 
ATOM     11  C   UNL     1      -1.780   2.929  26.037  0.00  0.00    +0.005 C 
ATOM     13  C   UNL     1      -0.954   5.477  24.800  0.00  0.00    +0.000 C 
ATOM     14  C   UNL     1      -2.423   4.252  26.445  0.00  0.00    +0.000 C 
ATOM     15  C   UNL     1      -2.376   5.274  25.313  0.00  0.00    +0.000 C 
ENDBRANCH   7   6
ENDBRANCH   3   7
ENDBRANCH   5   3
BRANCH   5  12
ATOM     12  C   UNL     1      -0.765  -1.042  24.314  0.00  0.00    +0.085 C 
BRANCH  12  16
ATOM      2  O   UNL     1      -3.972  -0.259  25.782  0.00  0.00    -0.359 OA
ATOM      4  N   UNL     1      -2.815  -1.022  25.690  0.00  0.00    -0.083 NA
ATOM     16  C   UNL     1      -2.111  -0.464  24.700  0.00  0.00    +0.086 A 
ATOM     17  C   UNL     1      -2.767   0.644  24.138  0.00  0.00    +0.071 A 
ATOM     19  C   UNL     1      -3.932   0.731  24.853  0.00  0.00    +0.143 A 
BRANCH  19  18
ATOM     18  C   UNL     1      -5.085   1.638  24.812  0.00  0.00    +0.023 C 
ATOM     20  C   UNL     1      -6.436   1.022  24.285  0.00  0.00    +0.019 C 
ATOM     21  C   UNL     1      -4.827   2.876  23.883  0.00  0.00    +0.019 C 
ATOM     22  C   UNL     1      -5.439   2.205  26.232  0.00  0.00    +0.019 C 
ENDBRANCH  19  18
ENDBRANCH  12  16
ENDBRANCH   5  12
TORSDOF 6
ENDMDL
