MODEL 1
REMARK VINA RESULT:      -2.9      0.000      0.000
REMARK  Name = 56775821
REMARK  8 active torsions:
REMARK  status: ('A' for Active; 'I' for Inactive)
REMARK    1  A    between atoms: O_4  and  C_27
REMARK    2  A    between atoms: O_4  and  C_28
REMARK    3  A    between atoms: N_5  and  C_8
REMARK    4  A    between atoms: N_5  and  C_13
REMARK    5  A    between atoms: C_8  and  C_11
REMARK    6  A    between atoms: C_11  and  C_12
REMARK    7  A    between atoms: C_13  and  C_21
REMARK    8  A    between atoms: C_20  and  C_22
REMARK                            x       y       z     vdW  Elec       q    Type
REMARK                         _______ _______ _______ _____ _____    ______ ____
ROOT
ATOM      1  O   UNL     1      -5.789  -8.699   9.900  0.00  0.00    -0.376 OA
ATOM      8  C   UNL     1      -4.155  -9.594  10.942  0.00  0.00    +0.072 C 
ATOM      9  C   UNL     1      -5.137  -8.449  11.166  0.00  0.00    +0.184 C 
ATOM     10  C   UNL     1      -4.952  -9.854   9.669  0.00  0.00    +0.184 C 
ENDROOT
BRANCH   8   5
ATOM      5  N   UNL     1      -2.860  -9.036  10.578  0.00  0.00    -0.302 NA
ATOM     29  H   UNL     1      -2.764  -8.032  10.722  0.00  0.00    +0.123 HD
BRANCH   5  13
ATOM     13  C   UNL     1      -1.800  -9.740  11.297  0.00  0.00    +0.117 C 
BRANCH  13  21
ATOM     21  C   UNL     1      -0.577  -8.881  11.475  0.00  0.00    -0.033 A 
ATOM     23  C   UNL     1      -0.562  -7.880  12.446  0.00  0.00    +0.008 A 
ATOM     24  C   UNL     1       0.544  -9.088  10.671  0.00  0.00    +0.008 A 
ATOM     25  C   UNL     1       0.571  -7.085  12.612  0.00  0.00    +0.046 A 
ATOM     26  C   UNL     1       1.678  -8.293  10.837  0.00  0.00    +0.046 A 
ATOM     27  C   UNL     1       1.692  -7.291  11.807  0.00  0.00    +0.120 A 
BRANCH  27   4
ATOM      4  O   UNL     1       2.799  -6.516  11.969  0.00  0.00    -0.495 OA
ATOM     28  C   UNL     1       4.039  -7.192  12.177  0.00  0.00    +0.277 C 
ENDBRANCH  27   4
ENDBRANCH  13  21
ENDBRANCH   5  13
ENDBRANCH   8   5
BRANCH   8  11
ATOM     11  C   UNL     1      -4.053 -10.705  11.996  0.00  0.00    +0.085 C 
BRANCH  11  12
ATOM      2  O   UNL     1      -7.149 -10.608  13.774  0.00  0.00    -0.350 OA
ATOM      7  N   UNL     1      -6.404 -10.781  12.615  0.00  0.00    -0.082 NA
ATOM     12  C   UNL     1      -5.135 -10.596  12.988  0.00  0.00    +0.086 A 
ATOM     19  C   UNL     1      -5.020 -10.305  14.359  0.00  0.00    +0.081 A 
ATOM     20  C   UNL     1      -6.314 -10.325  14.806  0.00  0.00    +0.222 A 
BRANCH  20  22
ATOM      3  O   UNL     1      -6.123 -10.166  17.087  0.00  0.00    -0.267 OA
ATOM      6  N   UNL     1      -8.270  -9.853  16.217  0.00  0.00    -0.295 N 
ATOM     14  C   UNL     1      -9.141 -10.217  17.343  0.00  0.00    +0.108 C 
ATOM     15  C   UNL     1      -8.960  -9.224  15.090  0.00  0.00    +0.108 C 
ATOM     16  C   UNL     1      -9.897  -8.993  17.853  0.00  0.00    +0.019 C 
ATOM     17  C   UNL     1      -9.719  -7.981  15.549  0.00  0.00    +0.019 C 
ATOM     18  C   UNL     1     -10.652  -8.299  16.719  0.00  0.00    +0.003 C 
ATOM     22  C   UNL     1      -6.899 -10.103  16.134  0.00  0.00    +0.285 C 
ENDBRANCH  20  22
ENDBRANCH  11  12
ENDBRANCH   8  11
TORSDOF 7
ENDMDL
MODEL 2
REMARK VINA RESULT:      -1.4     14.084     16.955
REMARK  Name = 56775821
REMARK  8 active torsions:
REMARK  status: ('A' for Active; 'I' for Inactive)
REMARK    1  A    between atoms: O_4  and  C_27
REMARK    2  A    between atoms: O_4  and  C_28
REMARK    3  A    between atoms: N_5  and  C_8
REMARK    4  A    between atoms: N_5  and  C_13
REMARK    5  A    between atoms: C_8  and  C_11
REMARK    6  A    between atoms: C_11  and  C_12
REMARK    7  A    between atoms: C_13  and  C_21
REMARK    8  A    between atoms: C_20  and  C_22
REMARK                            x       y       z     vdW  Elec       q    Type
REMARK                         _______ _______ _______ _____ _____    ______ ____
ROOT
ATOM      1  O   UNL     1      -3.906  -3.267  24.691  0.00  0.00    -0.376 OA
ATOM      8  C   UNL     1      -3.806  -1.169  24.315  0.00  0.00    +0.072 C 
ATOM      9  C   UNL     1      -2.969  -2.222  25.033  0.00  0.00    +0.184 C 
ATOM     10  C   UNL     1      -4.697  -2.339  23.915  0.00  0.00    +0.184 C 
ENDROOT
BRANCH   8   5
ATOM      5  N   UNL     1      -4.504  -0.366  25.311  0.00  0.00    -0.302 NA
ATOM     29  H   UNL     1      -3.948  -0.102  26.121  0.00  0.00    +0.123 HD
BRANCH   5  13
ATOM     13  C   UNL     1      -5.057   0.830  24.680  0.00  0.00    +0.117 C 
BRANCH  13  21
ATOM     21  C   UNL     1      -4.156   2.023  24.852  0.00  0.00    -0.033 A 
ATOM     23  C   UNL     1      -3.189   2.028  25.857  0.00  0.00    +0.008 A 
ATOM     24  C   UNL     1      -4.287   3.124  24.006  0.00  0.00    +0.008 A 
ATOM     25  C   UNL     1      -2.353   3.133  26.016  0.00  0.00    +0.046 A 
ATOM     26  C   UNL     1      -3.452   4.230  24.164  0.00  0.00    +0.046 A 
ATOM     27  C   UNL     1      -2.485   4.234  25.170  0.00  0.00    +0.120 A 
BRANCH  27   4
ATOM      4  O   UNL     1      -1.669   5.313  25.324  0.00  0.00    -0.495 OA
ATOM     28  C   UNL     1      -0.478   5.343  24.538  0.00  0.00    +0.277 C 
ENDBRANCH  27   4
ENDBRANCH  13  21
ENDBRANCH   5  13
ENDBRANCH   8   5
BRANCH   8  11
ATOM     11  C   UNL     1      -3.153  -0.322  23.215  0.00  0.00    +0.085 C 
BRANCH  11  12
ATOM      2  O   UNL     1       0.308  -0.739  23.991  0.00  0.00    -0.350 OA
ATOM      7  N   UNL     1      -0.993  -1.215  23.883  0.00  0.00    -0.082 NA
ATOM     12  C   UNL     1      -1.706  -0.175  23.445  0.00  0.00    +0.086 A 
ATOM     19  C   UNL     1      -0.917   0.974  23.260  0.00  0.00    +0.081 A 
ATOM     20  C   UNL     1       0.341   0.565  23.617  0.00  0.00    +0.222 A 
BRANCH  20  22
ATOM      3  O   UNL     1       1.607   2.416  24.102  0.00  0.00    -0.267 OA
ATOM      6  N   UNL     1       2.759   0.600  23.183  0.00  0.00    -0.295 N 
ATOM     14  C   UNL     1       3.927   1.232  22.554  0.00  0.00    +0.108 C 
ATOM     15  C   UNL     1       2.815  -0.861  23.246  0.00  0.00    +0.108 C 
ATOM     16  C   UNL     1       5.209   0.822  23.273  0.00  0.00    +0.019 C 
ATOM     17  C   UNL     1       4.077  -1.320  23.974  0.00  0.00    +0.019 C 
ATOM     18  C   UNL     1       5.332  -0.700  23.357  0.00  0.00    +0.003 C 
ATOM     22  C   UNL     1       1.629   1.269  23.656  0.00  0.00    +0.285 C 
ENDBRANCH  20  22
ENDBRANCH  11  12
ENDBRANCH   8  11
TORSDOF 7
ENDMDL
MODEL 3
REMARK VINA RESULT:      -1.3     14.484     16.409
REMARK  Name = 56775821
REMARK  8 active torsions:
REMARK  status: ('A' for Active; 'I' for Inactive)
REMARK    1  A    between atoms: O_4  and  C_27
REMARK    2  A    between atoms: O_4  and  C_28
REMARK    3  A    between atoms: N_5  and  C_8
REMARK    4  A    between atoms: N_5  and  C_13
REMARK    5  A    between atoms: C_8  and  C_11
REMARK    6  A    between atoms: C_11  and  C_12
REMARK    7  A    between atoms: C_13  and  C_21
REMARK    8  A    between atoms: C_20  and  C_22
REMARK                            x       y       z     vdW  Elec       q    Type
REMARK                         _______ _______ _______ _____ _____    ______ ____
ROOT
ATOM      1  O   UNL     1       4.568   0.096  22.629  0.00  0.00    -0.376 OA
ATOM      8  C   UNL     1       2.470   0.233  22.995  0.00  0.00    +0.072 C 
ATOM      9  C   UNL     1       3.485   0.848  22.038  0.00  0.00    +0.184 C 
ATOM     10  C   UNL     1       3.646  -0.594  23.503  0.00  0.00    +0.184 C 
ENDROOT
BRANCH   8   5
ATOM      5  N   UNL     1       2.120   1.222  24.006  0.00  0.00    -0.302 NA
ATOM     29  H   UNL     1       2.910   1.644  24.491  0.00  0.00    +0.123 HD
BRANCH   5  13
ATOM     13  C   UNL     1       1.291   2.266  23.409  0.00  0.00    +0.117 C 
BRANCH  13  21
ATOM     21  C   UNL     1       0.266   2.790  24.378  0.00  0.00    -0.033 A 
ATOM     23  C   UNL     1      -0.460   3.942  24.071  0.00  0.00    +0.008 A 
ATOM     24  C   UNL     1       0.039   2.124  25.582  0.00  0.00    +0.008 A 
ATOM     25  C   UNL     1      -1.411   4.427  24.968  0.00  0.00    +0.046 A 
ATOM     26  C   UNL     1      -0.912   2.609  26.480  0.00  0.00    +0.046 A 
ATOM     27  C   UNL     1      -1.637   3.761  26.173  0.00  0.00    +0.120 A 
BRANCH  27   4
ATOM      4  O   UNL     1      -2.566   4.234  27.048  0.00  0.00    -0.495 OA
ATOM     28  C   UNL     1      -3.828   4.622  26.508  0.00  0.00    +0.277 C 
ENDBRANCH  27   4
ENDBRANCH  13  21
ENDBRANCH   5  13
ENDBRANCH   8   5
BRANCH   8  11
ATOM     11  C   UNL     1       1.246  -0.491  22.419  0.00  0.00    +0.085 C 
BRANCH  11  12
ATOM      2  O   UNL     1      -0.654  -1.406  25.302  0.00  0.00    -0.350 OA
ATOM      7  N   UNL     1       0.519  -1.392  24.557  0.00  0.00    -0.082 NA
ATOM     12  C   UNL     1       0.220  -0.705  23.453  0.00  0.00    +0.086 A 
ATOM     19  C   UNL     1      -1.116  -0.265  23.444  0.00  0.00    +0.081 A 
ATOM     20  C   UNL     1      -1.620  -0.732  24.629  0.00  0.00    +0.222 A 
BRANCH  20  22
ATOM      3  O   UNL     1      -3.135  -1.292  26.258  0.00  0.00    -0.267 OA
ATOM      6  N   UNL     1      -3.892   0.203  24.628  0.00  0.00    -0.295 N 
ATOM     14  C   UNL     1      -5.348   0.003  24.644  0.00  0.00    +0.108 C 
ATOM     15  C   UNL     1      -3.444   1.355  23.845  0.00  0.00    +0.108 C 
ATOM     16  C   UNL     1      -6.055   1.253  25.162  0.00  0.00    +0.019 C 
ATOM     17  C   UNL     1      -4.113   2.636  24.338  0.00  0.00    +0.019 C 
ATOM     18  C   UNL     1      -5.635   2.491  24.369  0.00  0.00    +0.003 C 
ATOM     22  C   UNL     1      -2.950  -0.624  25.241  0.00  0.00    +0.285 C 
ENDBRANCH  20  22
ENDBRANCH  11  12
ENDBRANCH   8  11
TORSDOF 7
ENDMDL
MODEL 4
REMARK VINA RESULT:      -0.9     14.502     17.200
REMARK  Name = 56775821
REMARK  8 active torsions:
REMARK  status: ('A' for Active; 'I' for Inactive)
REMARK    1  A    between atoms: O_4  and  C_27
REMARK    2  A    between atoms: O_4  and  C_28
REMARK    3  A    between atoms: N_5  and  C_8
REMARK    4  A    between atoms: N_5  and  C_13
REMARK    5  A    between atoms: C_8  and  C_11
REMARK    6  A    between atoms: C_11  and  C_12
REMARK    7  A    between atoms: C_13  and  C_21
REMARK    8  A    between atoms: C_20  and  C_22
REMARK                            x       y       z     vdW  Elec       q    Type
REMARK                         _______ _______ _______ _____ _____    ______ ____
ROOT
ATOM      1  O   UNL     1      -6.956   1.928  26.488  0.00  0.00    -0.376 OA
ATOM      8  C   UNL     1      -5.258   2.800  25.534  0.00  0.00    +0.072 C 
ATOM      9  C   UNL     1      -6.773   2.827  25.371  0.00  0.00    +0.184 C 
ATOM     10  C   UNL     1      -5.536   1.933  26.756  0.00  0.00    +0.184 C 
ENDROOT
BRANCH   8   5
ATOM      5  N   UNL     1      -4.688   1.965  24.485  0.00  0.00    -0.302 NA
ATOM     29  H   UNL     1      -3.671   1.966  24.435  0.00  0.00    +0.123 HD
BRANCH   5  13
ATOM     13  C   UNL     1      -5.174   0.594  24.628  0.00  0.00    +0.117 C 
BRANCH  13  21
ATOM     21  C   UNL     1      -4.044  -0.392  24.751  0.00  0.00    -0.033 A 
ATOM     23  C   UNL     1      -2.929  -0.083  25.530  0.00  0.00    +0.008 A 
ATOM     24  C   UNL     1      -4.112  -1.617  24.086  0.00  0.00    +0.008 A 
ATOM     25  C   UNL     1      -1.882  -0.997  25.644  0.00  0.00    +0.046 A 
ATOM     26  C   UNL     1      -3.065  -2.531  24.200  0.00  0.00    +0.046 A 
ATOM     27  C   UNL     1      -1.950  -2.221  24.978  0.00  0.00    +0.120 A 
BRANCH  27   4
ATOM      4  O   UNL     1      -0.929  -3.114  25.090  0.00  0.00    -0.495 OA
ATOM     28  C   UNL     1       0.349  -2.596  25.461  0.00  0.00    +0.277 C 
ENDBRANCH  27   4
ENDBRANCH  13  21
ENDBRANCH   5  13
ENDBRANCH   8   5
BRANCH   8  11
ATOM     11  C   UNL     1      -4.505   4.124  25.719  0.00  0.00    +0.085 C 
BRANCH  11  12
ATOM      2  O   UNL     1      -1.024   4.480  25.001  0.00  0.00    -0.350 OA
ATOM      7  N   UNL     1      -2.313   4.986  25.112  0.00  0.00    -0.082 NA
ATOM     12  C   UNL     1      -3.059   3.949  25.501  0.00  0.00    +0.086 A 
ATOM     19  C   UNL     1      -2.303   2.773  25.649  0.00  0.00    +0.081 A 
ATOM     20  C   UNL     1      -1.030   3.161  25.323  0.00  0.00    +0.222 A 
BRANCH  20  22
ATOM      3  O   UNL     1       0.905   2.418  26.305  0.00  0.00    -0.267 OA
ATOM      6  N   UNL     1       0.594   1.809  24.070  0.00  0.00    -0.295 N 
ATOM     14  C   UNL     1       1.966   1.595  23.589  0.00  0.00    +0.108 C 
ATOM     15  C   UNL     1      -0.452   1.366  23.146  0.00  0.00    +0.108 C 
ATOM     16  C   UNL     1       2.195   0.122  23.261  0.00  0.00    +0.019 C 
ATOM     17  C   UNL     1      -0.275  -0.110  22.800  0.00  0.00    +0.019 C 
ATOM     18  C   UNL     1       1.138  -0.395  22.285  0.00  0.00    +0.003 C 
ATOM     22  C   UNL     1       0.239   2.425  25.271  0.00  0.00    +0.285 C 
ENDBRANCH  20  22
ENDBRANCH  11  12
ENDBRANCH   8  11
TORSDOF 7
ENDMDL
MODEL 5
REMARK VINA RESULT:      -0.7     13.936     16.873
REMARK  Name = 56775821
REMARK  8 active torsions:
REMARK  status: ('A' for Active; 'I' for Inactive)
REMARK    1  A    between atoms: O_4  and  C_27
REMARK    2  A    between atoms: O_4  and  C_28
REMARK    3  A    between atoms: N_5  and  C_8
REMARK    4  A    between atoms: N_5  and  C_13
REMARK    5  A    between atoms: C_8  and  C_11
REMARK    6  A    between atoms: C_11  and  C_12
REMARK    7  A    between atoms: C_13  and  C_21
REMARK    8  A    between atoms: C_20  and  C_22
REMARK                            x       y       z     vdW  Elec       q    Type
REMARK                         _______ _______ _______ _____ _____    ______ ____
ROOT
ATOM      1  O   UNL     1      -5.897   4.451  25.780  0.00  0.00    -0.376 OA
ATOM      8  C   UNL     1      -4.239   3.313  25.067  0.00  0.00    +0.072 C 
ATOM      9  C   UNL     1      -4.931   4.626  24.719  0.00  0.00    +0.184 C 
ATOM     10  C   UNL     1      -5.232   3.246  26.221  0.00  0.00    +0.184 C 
ENDROOT
BRANCH   8   5
ATOM      5  N   UNL     1      -4.605   2.312  24.073  0.00  0.00    -0.302 NA
ATOM     29  H   UNL     1      -3.844   1.996  23.476  0.00  0.00    +0.123 HD
BRANCH   5  13
ATOM     13  C   UNL     1      -5.224   1.166  24.734  0.00  0.00    +0.117 C 
BRANCH  13  21
ATOM     21  C   UNL     1      -4.288  -0.010  24.811  0.00  0.00    -0.033 A 
ATOM     23  C   UNL     1      -4.041  -0.782  23.675  0.00  0.00    +0.008 A 
ATOM     24  C   UNL     1      -3.665  -0.328  26.018  0.00  0.00    +0.008 A 
ATOM     25  C   UNL     1      -3.173  -1.871  23.746  0.00  0.00    +0.046 A 
ATOM     26  C   UNL     1      -2.797  -1.418  26.089  0.00  0.00    +0.046 A 
ATOM     27  C   UNL     1      -2.551  -2.189  24.954  0.00  0.00    +0.120 A 
BRANCH  27   4
ATOM      4  O   UNL     1      -1.703  -3.251  25.024  0.00  0.00    -0.495 OA
ATOM     28  C   UNL     1      -0.345  -2.977  25.368  0.00  0.00    +0.277 C 
ENDBRANCH  27   4
ENDBRANCH  13  21
ENDBRANCH   5  13
ENDBRANCH   8   5
BRANCH   8  11
ATOM     11  C   UNL     1      -2.736   3.323  25.379  0.00  0.00    +0.085 C 
BRANCH  11  12
ATOM      2  O   UNL     1      -1.370   1.580  22.577  0.00  0.00    -0.350 OA
ATOM      7  N   UNL     1      -2.217   2.526  23.142  0.00  0.00    -0.082 NA
ATOM     12  C   UNL     1      -1.995   2.448  24.456  0.00  0.00    +0.086 A 
ATOM     19  C   UNL     1      -1.029   1.478  24.778  0.00  0.00    +0.081 A 
ATOM     20  C   UNL     1      -0.668   0.962  23.561  0.00  0.00    +0.222 A 
BRANCH  20  22
ATOM      3  O   UNL     1      -0.176  -1.072  22.622  0.00  0.00    -0.267 OA
ATOM      6  N   UNL     1       1.639   0.119  23.490  0.00  0.00    -0.295 N 
ATOM     14  C   UNL     1       2.615  -0.937  23.794  0.00  0.00    +0.108 C 
ATOM     15  C   UNL     1       2.164   1.482  23.585  0.00  0.00    +0.108 C 
ATOM     16  C   UNL     1       3.833  -0.817  22.882  0.00  0.00    +0.019 C 
ATOM     17  C   UNL     1       3.378   1.655  22.675  0.00  0.00    +0.019 C 
ATOM     18  C   UNL     1       4.437   0.586  22.950  0.00  0.00    +0.003 C 
ATOM     22  C   UNL     1       0.292  -0.082  23.182  0.00  0.00    +0.285 C 
ENDBRANCH  20  22
ENDBRANCH  11  12
ENDBRANCH   8  11
TORSDOF 7
ENDMDL
MODEL 6
REMARK VINA RESULT:      -0.0     14.713     17.194
REMARK  Name = 56775821
REMARK  8 active torsions:
REMARK  status: ('A' for Active; 'I' for Inactive)
REMARK    1  A    between atoms: O_4  and  C_27
REMARK    2  A    between atoms: O_4  and  C_28
REMARK    3  A    between atoms: N_5  and  C_8
REMARK    4  A    between atoms: N_5  and  C_13
REMARK    5  A    between atoms: C_8  and  C_11
REMARK    6  A    between atoms: C_11  and  C_12
REMARK    7  A    between atoms: C_13  and  C_21
REMARK    8  A    between atoms: C_20  and  C_22
REMARK                            x       y       z     vdW  Elec       q    Type
REMARK                         _______ _______ _______ _____ _____    ______ ____
ROOT
ATOM      1  O   UNL     1      -1.781   6.088  25.359  0.00  0.00    -0.376 OA
ATOM      8  C   UNL     1      -0.978   4.154  24.950  0.00  0.00    +0.072 C 
ATOM      9  C   UNL     1      -0.672   5.599  24.572  0.00  0.00    +0.184 C 
ATOM     10  C   UNL     1      -2.068   4.753  25.832  0.00  0.00    +0.184 C 
ENDROOT
BRANCH   8   5
ATOM      5  N   UNL     1      -1.604   3.494  23.813  0.00  0.00    -0.302 NA
ATOM     29  H   UNL     1      -1.711   2.485  23.901  0.00  0.00    +0.123 HD
BRANCH   5  13
ATOM     13  C   UNL     1      -2.902   4.106  23.540  0.00  0.00    +0.117 C 
BRANCH  13  21
ATOM     21  C   UNL     1      -4.012   3.428  24.296  0.00  0.00    -0.033 A 
ATOM     23  C   UNL     1      -4.884   4.181  25.083  0.00  0.00    +0.008 A 
ATOM     24  C   UNL     1      -4.171   2.045  24.209  0.00  0.00    +0.008 A 
ATOM     25  C   UNL     1      -5.913   3.552  25.783  0.00  0.00    +0.046 A 
ATOM     26  C   UNL     1      -5.201   1.415  24.909  0.00  0.00    +0.046 A 
ATOM     27  C   UNL     1      -6.071   2.169  25.697  0.00  0.00    +0.120 A 
BRANCH  27   4
ATOM      4  O   UNL     1      -7.076   1.555  26.379  0.00  0.00    -0.495 OA
ATOM     28  C   UNL     1      -6.816   1.198  27.736  0.00  0.00    +0.277 C 
ENDBRANCH  27   4
ENDBRANCH  13  21
ENDBRANCH   5  13
ENDBRANCH   8   5
BRANCH   8  11
ATOM     11  C   UNL     1       0.122   3.306  25.603  0.00  0.00    +0.085 C 
BRANCH  11  12
ATOM      2  O   UNL     1       0.403   0.141  23.970  0.00  0.00    -0.350 OA
ATOM      7  N   UNL     1       0.701   1.493  24.089  0.00  0.00    -0.082 NA
ATOM     12  C   UNL     1       0.036   1.900  25.172  0.00  0.00    +0.086 A 
ATOM     19  C   UNL     1      -0.695   0.860  25.772  0.00  0.00    +0.081 A 
ATOM     20  C   UNL     1      -0.429  -0.224  24.978  0.00  0.00    +0.222 A 
BRANCH  20  22
ATOM      3  O   UNL     1      -0.244  -2.358  25.801  0.00  0.00    -0.267 OA
ATOM      6  N   UNL     1      -1.951  -2.008  24.243  0.00  0.00    -0.295 N 
ATOM     14  C   UNL     1      -2.157  -3.345  23.670  0.00  0.00    +0.108 C 
ATOM     15  C   UNL     1      -2.965  -1.021  23.869  0.00  0.00    +0.108 C 
ATOM     16  C   UNL     1      -3.532  -3.886  24.054  0.00  0.00    +0.019 C 
ATOM     17  C   UNL     1      -4.360  -1.511  24.249  0.00  0.00    +0.019 C 
ATOM     18  C   UNL     1      -4.637  -2.901  23.672  0.00  0.00    +0.003 C 
ATOM     22  C   UNL     1      -0.873  -1.622  25.042  0.00  0.00    +0.285 C 
ENDBRANCH  20  22
ENDBRANCH  11  12
ENDBRANCH   8  11
TORSDOF 7
ENDMDL
MODEL 7
REMARK VINA RESULT:       0.3     14.687     17.114
REMARK  Name = 56775821
REMARK  8 active torsions:
REMARK  status: ('A' for Active; 'I' for Inactive)
REMARK    1  A    between atoms: O_4  and  C_27
REMARK    2  A    between atoms: O_4  and  C_28
REMARK    3  A    between atoms: N_5  and  C_8
REMARK    4  A    between atoms: N_5  and  C_13
REMARK    5  A    between atoms: C_8  and  C_11
REMARK    6  A    between atoms: C_11  and  C_12
REMARK    7  A    between atoms: C_13  and  C_21
REMARK    8  A    between atoms: C_20  and  C_22
REMARK                            x       y       z     vdW  Elec       q    Type
REMARK                         _______ _______ _______ _____ _____    ______ ____
ROOT
ATOM      1  O   UNL     1      -4.084  -3.931  24.556  0.00  0.00    -0.376 OA
ATOM      8  C   UNL     1      -2.586  -2.437  24.271  0.00  0.00    +0.072 C 
ATOM      9  C   UNL     1      -3.562  -2.853  25.366  0.00  0.00    +0.184 C 
ATOM     10  C   UNL     1      -3.120  -3.649  23.517  0.00  0.00    +0.184 C 
ENDROOT
BRANCH   8   5
ATOM      5  N   UNL     1      -3.086  -1.228  23.631  0.00  0.00    -0.302 NA
ATOM     29  H   UNL     1      -3.099  -1.250  22.613  0.00  0.00    +0.123 HD
BRANCH   5  13
ATOM     13  C   UNL     1      -4.423  -0.920  24.135  0.00  0.00    +0.117 C 
BRANCH  13  21
ATOM     21  C   UNL     1      -4.569   0.536  24.484  0.00  0.00    -0.033 A 
ATOM     23  C   UNL     1      -5.419   0.925  25.519  0.00  0.00    +0.008 A 
ATOM     24  C   UNL     1      -3.852   1.499  23.774  0.00  0.00    +0.008 A 
ATOM     25  C   UNL     1      -5.554   2.274  25.843  0.00  0.00    +0.046 A 
ATOM     26  C   UNL     1      -3.986   2.849  24.097  0.00  0.00    +0.046 A 
ATOM     27  C   UNL     1      -4.837   3.237  25.132  0.00  0.00    +0.120 A 
BRANCH  27   4
ATOM      4  O   UNL     1      -4.968   4.554  25.448  0.00  0.00    -0.495 OA
ATOM     28  C   UNL     1      -6.286   5.101  25.422  0.00  0.00    +0.277 C 
ENDBRANCH  27   4
ENDBRANCH  13  21
ENDBRANCH   5  13
ENDBRANCH   8   5
BRANCH   8  11
ATOM     11  C   UNL     1      -1.088  -2.366  24.597  0.00  0.00    +0.085 C 
BRANCH  11  12
ATOM      2  O   UNL     1       0.504   0.825  24.385  0.00  0.00    -0.350 OA
ATOM      7  N   UNL     1       0.341  -0.496  23.985  0.00  0.00    -0.082 NA
ATOM     12  C   UNL     1      -0.644  -0.970  24.751  0.00  0.00    +0.086 A 
ATOM     19  C   UNL     1      -1.136  -0.004  25.647  0.00  0.00    +0.081 A 
ATOM     20  C   UNL     1      -0.380   1.105  25.375  0.00  0.00    +0.222 A 
BRANCH  20  22
ATOM      3  O   UNL     1       0.085   2.565  27.083  0.00  0.00    -0.267 OA
ATOM      6  N   UNL     1      -0.902   3.499  25.181  0.00  0.00    -0.295 N 
ATOM     14  C   UNL     1      -1.565   4.701  25.706  0.00  0.00    +0.108 C 
ATOM     15  C   UNL     1      -0.863   3.412  23.720  0.00  0.00    +0.108 C 
ATOM     16  C   UNL     1      -0.899   5.961  25.159  0.00  0.00    +0.019 C 
ATOM     17  C   UNL     1      -0.189   4.647  23.126  0.00  0.00    +0.019 C 
ATOM     18  C   UNL     1      -0.842   5.935  23.631  0.00  0.00    +0.003 C 
ATOM     22  C   UNL     1      -0.378   2.457  25.948  0.00  0.00    +0.285 C 
ENDBRANCH  20  22
ENDBRANCH  11  12
ENDBRANCH   8  11
TORSDOF 7
ENDMDL
