MODEL 1
REMARK VINA RESULT:      -4.1      0.000      0.000
REMARK  Name = 75536768
REMARK  6 active torsions:
REMARK  status: ('A' for Active; 'I' for Inactive)
REMARK    1  A    between atoms: O_4  and  C_11
REMARK    2  A    between atoms: N_6  and  C_9
REMARK    3  A    between atoms: N_6  and  C_10
REMARK    4  A    between atoms: N_7  and  C_19
REMARK    5  A    between atoms: N_8  and  C_21
REMARK    6  A    between atoms: C_14  and  C_19
REMARK                            x       y       z     vdW  Elec       q    Type
REMARK                         _______ _______ _______ _____ _____    ______ ____
ROOT
ATOM      3  O   UNL     1      -3.249   3.918  23.717  0.00  0.00    -0.371 OA
ATOM     10  C   UNL     1      -4.789   2.588  24.942  0.00  0.00    +0.111 C 
ATOM     11  C   UNL     1      -3.739   3.131  25.893  0.00  0.00    +0.164 C 
ATOM     14  C   UNL     1      -3.208   4.316  25.097  0.00  0.00    +0.165 C 
ATOM     15  C   UNL     1      -4.099   2.764  23.599  0.00  0.00    +0.181 C 
ENDROOT
BRANCH  11   4
ATOM      4  O   UNL     1      -4.283   3.532  27.136  0.00  0.00    -0.388 OA
ATOM     28  H   UNL     1      -4.081   2.845  27.794  0.00  0.00    +0.210 HD
ENDBRANCH  11   4
BRANCH  10   6
ATOM      6  N   UNL     1      -5.162   1.209  25.210  0.00  0.00    -0.306 NA
ATOM     27  H   UNL     1      -6.083   1.010  24.821  0.00  0.00    +0.123 HD
BRANCH   6   9
ATOM      1  F   UNL     1      -1.901  -3.158  24.088  0.00  0.00    -0.206 F 
ATOM      2  F   UNL     1      -3.415  -3.012  25.641  0.00  0.00    -0.206 F 
ATOM      9  C   UNL     1      -4.175   0.288  24.651  0.00  0.00    +0.054 C 
ATOM     12  C   UNL     1      -3.139  -0.078  25.722  0.00  0.00    +0.024 C 
ATOM     13  C   UNL     1      -4.879  -0.964  24.110  0.00  0.00    +0.024 C 
ATOM     16  C   UNL     1      -2.131  -1.097  25.193  0.00  0.00    +0.077 C 
ATOM     17  C   UNL     1      -3.872  -1.983  23.581  0.00  0.00    +0.077 C 
ATOM     18  C   UNL     1      -2.825  -2.325  24.628  0.00  0.00    +0.249 C 
ENDBRANCH   6   9
ENDBRANCH  10   6
BRANCH  14  19
ATOM     19  C   UNL     1      -1.791   4.708  25.477  0.00  0.00    +0.140 C 
BRANCH  19   7
ATOM      5  O   UNL     1      -0.427   3.631  23.201  0.00  0.00    -0.253 OA
ATOM      7  N   UNL     1      -0.914   3.573  25.462  0.00  0.00    -0.297 N 
ATOM      8  N   UNL     1       0.511   1.986  24.589  0.00  0.00    -0.269 N 
ATOM     20  C   UNL     1      -0.280   3.102  24.300  0.00  0.00    +0.304 C 
ATOM     29  H   UNL     1      -0.756   3.078  26.333  0.00  0.00    +0.150 HD
ATOM     30  H   UNL     1       0.523   1.674  25.557  0.00  0.00    +0.156 HD
BRANCH   8  21
ATOM     21  C   UNL     1       1.304   1.230  23.695  0.00  0.00    +0.035 A 
ATOM     22  C   UNL     1       0.738   0.166  22.992  0.00  0.00    +0.023 A 
ATOM     23  C   UNL     1       2.649   1.548  23.515  0.00  0.00    +0.023 A 
ATOM     24  C   UNL     1       1.520  -0.581  22.109  0.00  0.00    +0.002 A 
ATOM     25  C   UNL     1       3.431   0.802  22.632  0.00  0.00    +0.002 A 
ATOM     26  C   UNL     1       2.865  -0.262  21.929  0.00  0.00    +0.000 A 
ENDBRANCH   8  21
ENDBRANCH  19   7
ENDBRANCH  14  19
TORSDOF 6
ENDMDL
MODEL 2
REMARK VINA RESULT:      -3.6      2.078      4.793
REMARK  Name = 75536768
REMARK  6 active torsions:
REMARK  status: ('A' for Active; 'I' for Inactive)
REMARK    1  A    between atoms: O_4  and  C_11
REMARK    2  A    between atoms: N_6  and  C_9
REMARK    3  A    between atoms: N_6  and  C_10
REMARK    4  A    between atoms: N_7  and  C_19
REMARK    5  A    between atoms: N_8  and  C_21
REMARK    6  A    between atoms: C_14  and  C_19
REMARK                            x       y       z     vdW  Elec       q    Type
REMARK                         _______ _______ _______ _____ _____    ______ ____
ROOT
ATOM      3  O   UNL     1      -4.214   4.174  26.902  0.00  0.00    -0.371 OA
ATOM     10  C   UNL     1      -2.504   4.707  25.343  0.00  0.00    +0.111 C 
ATOM     11  C   UNL     1      -3.689   4.123  24.597  0.00  0.00    +0.164 C 
ATOM     14  C   UNL     1      -4.808   4.346  25.605  0.00  0.00    +0.165 C 
ATOM     15  C   UNL     1      -2.784   4.244  26.763  0.00  0.00    +0.181 C 
ENDROOT
BRANCH  11   4
ATOM      4  O   UNL     1      -3.943   4.784  23.372  0.00  0.00    -0.388 OA
ATOM     28  H   UNL     1      -3.408   4.361  22.679  0.00  0.00    +0.210 HD
ENDBRANCH  11   4
BRANCH  10   6
ATOM      6  N   UNL     1      -1.218   4.250  24.842  0.00  0.00    -0.306 NA
ATOM     27  H   UNL     1      -0.473   4.525  25.482  0.00  0.00    +0.123 HD
BRANCH   6   9
ATOM      1  F   UNL     1       0.045  -1.019  23.575  0.00  0.00    -0.206 F 
ATOM      2  F   UNL     1       1.242   0.752  23.180  0.00  0.00    -0.206 F 
ATOM      9  C   UNL     1      -1.215   2.799  24.668  0.00  0.00    +0.054 C 
ATOM     12  C   UNL     1      -1.163   2.455  23.174  0.00  0.00    +0.024 C 
ATOM     13  C   UNL     1      -0.026   2.187  25.419  0.00  0.00    +0.024 C 
ATOM     16  C   UNL     1      -1.087   0.945  22.955  0.00  0.00    +0.077 C 
ATOM     17  C   UNL     1       0.051   0.677  25.202  0.00  0.00    +0.077 C 
ATOM     18  C   UNL     1       0.071   0.329  23.723  0.00  0.00    +0.249 C 
ENDBRANCH   6   9
ENDBRANCH  10   6
BRANCH  14  19
ATOM     19  C   UNL     1      -5.967   3.379  25.439  0.00  0.00    +0.140 C 
BRANCH  19   7
ATOM      5  O   UNL     1      -4.359   1.581  23.894  0.00  0.00    -0.253 OA
ATOM      7  N   UNL     1      -5.588   2.043  25.799  0.00  0.00    -0.297 N 
ATOM      8  N   UNL     1      -4.589  -0.023  25.593  0.00  0.00    -0.269 N 
ATOM     20  C   UNL     1      -4.794   1.219  24.985  0.00  0.00    +0.304 C 
ATOM     29  H   UNL     1      -5.922   1.672  26.683  0.00  0.00    +0.150 HD
ATOM     30  H   UNL     1      -5.021  -0.163  26.503  0.00  0.00    +0.156 HD
BRANCH   8  21
ATOM     21  C   UNL     1      -3.848  -1.121  25.095  0.00  0.00    +0.035 A 
ATOM     22  C   UNL     1      -4.365  -1.897  24.057  0.00  0.00    +0.023 A 
ATOM     23  C   UNL     1      -2.602  -1.427  25.641  0.00  0.00    +0.023 A 
ATOM     24  C   UNL     1      -3.635  -2.980  23.566  0.00  0.00    +0.002 A 
ATOM     25  C   UNL     1      -1.872  -2.510  25.150  0.00  0.00    +0.002 A 
ATOM     26  C   UNL     1      -2.389  -3.285  24.112  0.00  0.00    +0.000 A 
ENDBRANCH   8  21
ENDBRANCH  19   7
ENDBRANCH  14  19
TORSDOF 6
ENDMDL
MODEL 3
REMARK VINA RESULT:      -3.2      2.631      4.954
REMARK  Name = 75536768
REMARK  6 active torsions:
REMARK  status: ('A' for Active; 'I' for Inactive)
REMARK    1  A    between atoms: O_4  and  C_11
REMARK    2  A    between atoms: N_6  and  C_9
REMARK    3  A    between atoms: N_6  and  C_10
REMARK    4  A    between atoms: N_7  and  C_19
REMARK    5  A    between atoms: N_8  and  C_21
REMARK    6  A    between atoms: C_14  and  C_19
REMARK                            x       y       z     vdW  Elec       q    Type
REMARK                         _______ _______ _______ _____ _____    ______ ____
ROOT
ATOM      3  O   UNL     1      -0.225   3.863  23.551  0.00  0.00    -0.371 OA
ATOM     10  C   UNL     1      -1.088   3.994  25.760  0.00  0.00    +0.111 C 
ATOM     11  C   UNL     1      -0.195   2.772  25.650  0.00  0.00    +0.164 C 
ATOM     14  C   UNL     1       0.645   3.133  24.432  0.00  0.00    +0.165 C 
ATOM     15  C   UNL     1      -1.379   4.288  24.297  0.00  0.00    +0.181 C 
ENDROOT
BRANCH  11   4
ATOM      4  O   UNL     1       0.602   2.574  26.801  0.00  0.00    -0.388 OA
ATOM     28  H   UNL     1       0.263   1.797  27.278  0.00  0.00    +0.210 HD
ENDBRANCH  11   4
BRANCH  10   6
ATOM      6  N   UNL     1      -2.293   3.767  26.542  0.00  0.00    -0.306 NA
ATOM     27  H   UNL     1      -2.516   4.595  27.093  0.00  0.00    +0.123 HD
BRANCH   6   9
ATOM      1  F   UNL     1      -7.029   1.795  24.385  0.00  0.00    -0.206 F 
ATOM      2  F   UNL     1      -6.276   1.495  26.403  0.00  0.00    -0.206 F 
ATOM      9  C   UNL     1      -3.418   3.429  25.673  0.00  0.00    +0.054 C 
ATOM     12  C   UNL     1      -3.502   1.907  25.498  0.00  0.00    +0.024 C 
ATOM     13  C   UNL     1      -4.718   3.992  26.262  0.00  0.00    +0.024 C 
ATOM     16  C   UNL     1      -4.711   1.511  24.653  0.00  0.00    +0.077 C 
ATOM     17  C   UNL     1      -5.928   3.597  25.417  0.00  0.00    +0.077 C 
ATOM     18  C   UNL     1      -5.998   2.092  25.216  0.00  0.00    +0.249 C 
ENDBRANCH   6   9
ENDBRANCH  10   6
BRANCH  14  19
ATOM     19  C   UNL     1       1.207   1.921  23.711  0.00  0.00    +0.140 C 
BRANCH  19   7
ATOM      5  O   UNL     1      -1.393   0.929  23.030  0.00  0.00    -0.253 OA
ATOM      7  N   UNL     1       0.602   0.707  24.180  0.00  0.00    -0.297 N 
ATOM      8  N   UNL     1      -1.004  -0.928  24.414  0.00  0.00    -0.269 N 
ATOM     20  C   UNL     1      -0.683   0.287  23.800  0.00  0.00    +0.304 C 
ATOM     29  H   UNL     1       1.127   0.131  24.831  0.00  0.00    +0.150 HD
ATOM     30  H   UNL     1      -0.300  -1.330  25.026  0.00  0.00    +0.156 HD
BRANCH   8  21
ATOM     21  C   UNL     1      -2.199  -1.674  24.286  0.00  0.00    +0.035 A 
ATOM     22  C   UNL     1      -2.215  -3.027  24.629  0.00  0.00    +0.023 A 
ATOM     23  C   UNL     1      -3.360  -1.059  23.820  0.00  0.00    +0.023 A 
ATOM     24  C   UNL     1      -3.393  -3.764  24.503  0.00  0.00    +0.002 A 
ATOM     25  C   UNL     1      -4.538  -1.796  23.695  0.00  0.00    +0.002 A 
ATOM     26  C   UNL     1      -4.554  -3.148  24.037  0.00  0.00    +0.000 A 
ENDBRANCH   8  21
ENDBRANCH  19   7
ENDBRANCH  14  19
TORSDOF 6
ENDMDL
MODEL 4
REMARK VINA RESULT:      -2.7      1.585      2.316
REMARK  Name = 75536768
REMARK  6 active torsions:
REMARK  status: ('A' for Active; 'I' for Inactive)
REMARK    1  A    between atoms: O_4  and  C_11
REMARK    2  A    between atoms: N_6  and  C_9
REMARK    3  A    between atoms: N_6  and  C_10
REMARK    4  A    between atoms: N_7  and  C_19
REMARK    5  A    between atoms: N_8  and  C_21
REMARK    6  A    between atoms: C_14  and  C_19
REMARK                            x       y       z     vdW  Elec       q    Type
REMARK                         _______ _______ _______ _____ _____    ______ ____
ROOT
ATOM      3  O   UNL     1      -2.440   1.968  22.917  0.00  0.00    -0.371 OA
ATOM     10  C   UNL     1      -4.320   1.562  24.311  0.00  0.00    +0.111 C 
ATOM     11  C   UNL     1      -3.352   2.476  25.040  0.00  0.00    +0.164 C 
ATOM     14  C   UNL     1      -2.544   3.034  23.875  0.00  0.00    +0.165 C 
ATOM     15  C   UNL     1      -3.423   0.968  23.237  0.00  0.00    +0.181 C 
ENDROOT
BRANCH  11   4
ATOM      4  O   UNL     1      -4.008   3.499  25.765  0.00  0.00    -0.388 OA
ATOM     28  H   UNL     1      -4.113   4.269  25.181  0.00  0.00    +0.210 HD
ENDBRANCH  11   4
BRANCH  10   6
ATOM      6  N   UNL     1      -4.924   0.554  25.165  0.00  0.00    -0.306 NA
ATOM     27  H   UNL     1      -5.759   0.172  24.723  0.00  0.00    +0.123 HD
BRANCH   6   9
ATOM      1  F   UNL     1      -0.649  -3.009  25.117  0.00  0.00    -0.206 F 
ATOM      2  F   UNL     1      -1.015  -1.375  23.731  0.00  0.00    -0.206 F 
ATOM      9  C   UNL     1      -3.975  -0.521  25.450  0.00  0.00    +0.054 C 
ATOM     12  C   UNL     1      -3.912  -1.489  24.262  0.00  0.00    +0.024 C 
ATOM     13  C   UNL     1      -2.593   0.073  25.755  0.00  0.00    +0.024 C 
ATOM     16  C   UNL     1      -2.876  -2.587  24.495  0.00  0.00    +0.077 C 
ATOM     17  C   UNL     1      -1.556  -1.024  25.989  0.00  0.00    +0.077 C 
ATOM     18  C   UNL     1      -1.513  -2.003  24.827  0.00  0.00    +0.249 C 
ENDBRANCH   6   9
ENDBRANCH  10   6
BRANCH  14  19
ATOM     19  C   UNL     1      -1.156   3.500  24.278  0.00  0.00    +0.140 C 
BRANCH  19   7
ATOM      5  O   UNL     1       0.919   1.799  25.280  0.00  0.00    -0.253 OA
ATOM      7  N   UNL     1      -0.140   2.841  23.507  0.00  0.00    -0.297 N 
ATOM      8  N   UNL     1       1.696   1.517  23.083  0.00  0.00    -0.269 N 
ATOM     20  C   UNL     1       0.848   2.019  24.074  0.00  0.00    +0.304 C 
ATOM     29  H   UNL     1      -0.129   2.989  22.504  0.00  0.00    +0.150 HD
ATOM     30  H   UNL     1       1.498   1.798  22.127  0.00  0.00    +0.156 HD
BRANCH   8  21
ATOM     21  C   UNL     1       2.808   0.656  23.248  0.00  0.00    +0.035 A 
ATOM     22  C   UNL     1       4.103   1.160  23.126  0.00  0.00    +0.023 A 
ATOM     23  C   UNL     1       2.608  -0.694  23.533  0.00  0.00    +0.023 A 
ATOM     24  C   UNL     1       5.199   0.312  23.288  0.00  0.00    +0.002 A 
ATOM     25  C   UNL     1       3.705  -1.542  23.695  0.00  0.00    +0.002 A 
ATOM     26  C   UNL     1       4.999  -1.038  23.573  0.00  0.00    +0.000 A 
ENDBRANCH   8  21
ENDBRANCH  19   7
ENDBRANCH  14  19
TORSDOF 6
ENDMDL
MODEL 5
REMARK VINA RESULT:      -2.5      3.351      4.981
REMARK  Name = 75536768
REMARK  6 active torsions:
REMARK  status: ('A' for Active; 'I' for Inactive)
REMARK    1  A    between atoms: O_4  and  C_11
REMARK    2  A    between atoms: N_6  and  C_9
REMARK    3  A    between atoms: N_6  and  C_10
REMARK    4  A    between atoms: N_7  and  C_19
REMARK    5  A    between atoms: N_8  and  C_21
REMARK    6  A    between atoms: C_14  and  C_19
REMARK                            x       y       z     vdW  Elec       q    Type
REMARK                         _______ _______ _______ _____ _____    ______ ____
ROOT
ATOM      3  O   UNL     1      -3.890  -1.194  25.988  0.00  0.00    -0.371 OA
ATOM     10  C   UNL     1      -4.607   0.554  24.548  0.00  0.00    +0.111 C 
ATOM     11  C   UNL     1      -3.406  -0.136  23.929  0.00  0.00    +0.164 C 
ATOM     14  C   UNL     1      -3.429  -1.474  24.655  0.00  0.00    +0.165 C 
ATOM     15  C   UNL     1      -4.494   0.111  25.998  0.00  0.00    +0.181 C 
ENDROOT
BRANCH  11   4
ATOM      4  O   UNL     1      -3.529  -0.294  22.528  0.00  0.00    -0.388 OA
ATOM     28  H   UNL     1      -3.210  -1.181  22.291  0.00  0.00    +0.210 HD
ENDBRANCH  11   4
BRANCH  10   6
ATOM      6  N   UNL     1      -4.593   1.999  24.395  0.00  0.00    -0.306 NA
ATOM     27  H   UNL     1      -5.365   2.416  24.914  0.00  0.00    +0.123 HD
BRANCH   6   9
ATOM      1  F   UNL     1      -0.186   5.243  25.408  0.00  0.00    -0.206 F 
ATOM      2  F   UNL     1      -1.930   5.731  24.204  0.00  0.00    -0.206 F 
ATOM      9  C   UNL     1      -3.323   2.556  24.857  0.00  0.00    +0.054 C 
ATOM     12  C   UNL     1      -2.427   2.878  23.655  0.00  0.00    +0.024 C 
ATOM     13  C   UNL     1      -3.583   3.808  25.706  0.00  0.00    +0.024 C 
ATOM     16  C   UNL     1      -1.118   3.530  24.097  0.00  0.00    +0.077 C 
ATOM     17  C   UNL     1      -2.275   4.461  26.149  0.00  0.00    +0.077 C 
ATOM     18  C   UNL     1      -1.370   4.753  24.963  0.00  0.00    +0.249 C 
ENDBRANCH   6   9
ENDBRANCH  10   6
BRANCH  14  19
ATOM     19  C   UNL     1      -2.070  -2.149  24.713  0.00  0.00    +0.140 C 
BRANCH  19   7
ATOM      5  O   UNL     1       0.736  -1.929  25.242  0.00  0.00    -0.253 OA
ATOM      7  N   UNL     1      -1.102  -1.443  23.925  0.00  0.00    -0.297 N 
ATOM      8  N   UNL     1       0.960  -0.624  23.304  0.00  0.00    -0.269 N 
ATOM     20  C   UNL     1       0.263  -1.379  24.251  0.00  0.00    +0.304 C 
ATOM     29  H   UNL     1      -1.424  -0.953  23.096  0.00  0.00    +0.150 HD
ATOM     30  H   UNL     1       0.415  -0.236  22.538  0.00  0.00    +0.156 HD
BRANCH   8  21
ATOM     21  C   UNL     1       2.344  -0.329  23.277  0.00  0.00    +0.035 A 
ATOM     22  C   UNL     1       2.782   0.914  22.821  0.00  0.00    +0.023 A 
ATOM     23  C   UNL     1       3.268  -1.281  23.708  0.00  0.00    +0.023 A 
ATOM     24  C   UNL     1       4.147   1.205  22.795  0.00  0.00    +0.002 A 
ATOM     25  C   UNL     1       4.632  -0.989  23.681  0.00  0.00    +0.002 A 
ATOM     26  C   UNL     1       5.071   0.254  23.226  0.00  0.00    +0.000 A 
ENDBRANCH   8  21
ENDBRANCH  19   7
ENDBRANCH  14  19
TORSDOF 6
ENDMDL
MODEL 6
REMARK VINA RESULT:      -2.5      3.264      6.791
REMARK  Name = 75536768
REMARK  6 active torsions:
REMARK  status: ('A' for Active; 'I' for Inactive)
REMARK    1  A    between atoms: O_4  and  C_11
REMARK    2  A    between atoms: N_6  and  C_9
REMARK    3  A    between atoms: N_6  and  C_10
REMARK    4  A    between atoms: N_7  and  C_19
REMARK    5  A    between atoms: N_8  and  C_21
REMARK    6  A    between atoms: C_14  and  C_19
REMARK                            x       y       z     vdW  Elec       q    Type
REMARK                         _______ _______ _______ _____ _____    ______ ____
ROOT
ATOM      3  O   UNL     1      -0.951  -2.139  22.868  0.00  0.00    -0.371 OA
ATOM     10  C   UNL     1       0.509  -0.647  24.001  0.00  0.00    +0.111 C 
ATOM     11  C   UNL     1      -0.600  -1.068  24.947  0.00  0.00    +0.164 C 
ATOM     14  C   UNL     1      -1.080  -2.352  24.283  0.00  0.00    +0.165 C 
ATOM     15  C   UNL     1      -0.094  -1.003  22.652  0.00  0.00    +0.181 C 
ENDROOT
BRANCH  11   4
ATOM      4  O   UNL     1      -0.137  -1.296  26.264  0.00  0.00    -0.388 OA
ATOM     28  H   UNL     1       0.583  -1.949  26.227  0.00  0.00    +0.210 HD
ENDBRANCH  11   4
BRANCH  10   6
ATOM      6  N   UNL     1       0.864   0.758  24.108  0.00  0.00    -0.306 NA
ATOM     27  H   UNL     1       1.149   1.120  23.199  0.00  0.00    +0.123 HD
BRANCH   6   9
ATOM      1  F   UNL     1      -2.514   4.807  25.886  0.00  0.00    -0.206 F 
ATOM      2  F   UNL     1      -0.477   5.019  25.157  0.00  0.00    -0.206 F 
ATOM      9  C   UNL     1      -0.258   1.539  24.626  0.00  0.00    +0.054 C 
ATOM     12  C   UNL     1       0.154   2.244  25.924  0.00  0.00    +0.024 C 
ATOM     13  C   UNL     1      -0.720   2.550  23.568  0.00  0.00    +0.024 C 
ATOM     16  C   UNL     1      -0.973   3.128  26.457  0.00  0.00    +0.077 C 
ATOM     17  C   UNL     1      -1.848   3.433  24.099  0.00  0.00    +0.077 C 
ATOM     18  C   UNL     1      -1.455   4.110  25.403  0.00  0.00    +0.249 C 
ENDBRANCH   6   9
ENDBRANCH  10   6
BRANCH  14  19
ATOM     19  C   UNL     1      -2.519  -2.700  24.621  0.00  0.00    +0.140 C 
BRANCH  19   7
ATOM      5  O   UNL     1      -3.049  -0.280  26.058  0.00  0.00    -0.253 OA
ATOM      7  N   UNL     1      -3.416  -1.651  24.231  0.00  0.00    -0.297 N 
ATOM      8  N   UNL     1      -4.549   0.350  24.366  0.00  0.00    -0.269 N 
ATOM     20  C   UNL     1      -3.624  -0.489  24.993  0.00  0.00    +0.304 C 
ATOM     29  H   UNL     1      -3.936  -1.762  23.367  0.00  0.00    +0.150 HD
ATOM     30  H   UNL     1      -4.933   0.027  23.482  0.00  0.00    +0.156 HD
BRANCH   8  21
ATOM     21  C   UNL     1      -5.021   1.607  24.813  0.00  0.00    +0.035 A 
ATOM     22  C   UNL     1      -4.625   2.773  24.157  0.00  0.00    +0.023 A 
ATOM     23  C   UNL     1      -5.882   1.680  25.907  0.00  0.00    +0.023 A 
ATOM     24  C   UNL     1      -5.090   4.013  24.597  0.00  0.00    +0.002 A 
ATOM     25  C   UNL     1      -6.348   2.920  26.346  0.00  0.00    +0.002 A 
ATOM     26  C   UNL     1      -5.952   4.086  25.691  0.00  0.00    +0.000 A 
ENDBRANCH   8  21
ENDBRANCH  19   7
ENDBRANCH  14  19
TORSDOF 6
ENDMDL
MODEL 7
REMARK VINA RESULT:      -1.9      2.739      4.274
REMARK  Name = 75536768
REMARK  6 active torsions:
REMARK  status: ('A' for Active; 'I' for Inactive)
REMARK    1  A    between atoms: O_4  and  C_11
REMARK    2  A    between atoms: N_6  and  C_9
REMARK    3  A    between atoms: N_6  and  C_10
REMARK    4  A    between atoms: N_7  and  C_19
REMARK    5  A    between atoms: N_8  and  C_21
REMARK    6  A    between atoms: C_14  and  C_19
REMARK                            x       y       z     vdW  Elec       q    Type
REMARK                         _______ _______ _______ _____ _____    ______ ____
ROOT
ATOM      3  O   UNL     1      -4.338   0.236  25.060  0.00  0.00    -0.371 OA
ATOM     10  C   UNL     1      -4.294   2.315  23.912  0.00  0.00    +0.111 C 
ATOM     11  C   UNL     1      -3.110   1.478  23.466  0.00  0.00    +0.164 C 
ATOM     14  C   UNL     1      -3.576   0.081  23.852  0.00  0.00    +0.165 C 
ATOM     15  C   UNL     1      -4.677   1.626  25.212  0.00  0.00    +0.181 C 
ENDROOT
BRANCH  11   4
ATOM      4  O   UNL     1      -2.857   1.586  22.078  0.00  0.00    -0.388 OA
ATOM     28  H   UNL     1      -2.997   0.714  21.673  0.00  0.00    +0.210 HD
ENDBRANCH  11   4
BRANCH  10   6
ATOM      6  N   UNL     1      -3.980   3.723  24.090  0.00  0.00    -0.306 NA
ATOM     27  H   UNL     1      -4.713   4.183  24.628  0.00  0.00    +0.123 HD
BRANCH   6   9
ATOM      1  F   UNL     1       0.835   2.937  26.767  0.00  0.00    -0.206 F 
ATOM      2  F   UNL     1      -0.605   1.419  26.177  0.00  0.00    -0.206 F 
ATOM      9  C   UNL     1      -2.692   3.886  24.762  0.00  0.00    +0.054 C 
ATOM     12  C   UNL     1      -2.795   3.391  26.210  0.00  0.00    +0.024 C 
ATOM     13  C   UNL     1      -1.604   3.126  23.992  0.00  0.00    +0.024 C 
ATOM     16  C   UNL     1      -1.446   3.480  26.923  0.00  0.00    +0.077 C 
ATOM     17  C   UNL     1      -0.255   3.214  24.704  0.00  0.00    +0.077 C 
ATOM     18  C   UNL     1      -0.359   2.754  26.149  0.00  0.00    +0.249 C 
ENDBRANCH   6   9
ENDBRANCH  10   6
BRANCH  14  19
ATOM     19  C   UNL     1      -2.432  -0.890  24.087  0.00  0.00    +0.140 C 
BRANCH  19   7
ATOM      5  O   UNL     1       0.268  -1.251  24.972  0.00  0.00    -0.253 OA
ATOM      7  N   UNL     1      -1.243  -0.471  23.403  0.00  0.00    -0.297 N 
ATOM      8  N   UNL     1       1.009  -0.170  23.024  0.00  0.00    -0.269 N 
ATOM     20  C   UNL     1       0.052  -0.684  23.903  0.00  0.00    +0.304 C 
ATOM     29  H   UNL     1      -1.345   0.016  22.518  0.00  0.00    +0.150 HD
ATOM     30  H   UNL     1       0.661   0.271  22.177  0.00  0.00    +0.156 HD
BRANCH   8  21
ATOM     21  C   UNL     1       2.417  -0.188  23.167  0.00  0.00    +0.035 A 
ATOM     22  C   UNL     1       3.164   0.947  22.849  0.00  0.00    +0.023 A 
ATOM     23  C   UNL     1       3.057  -1.338  23.628  0.00  0.00    +0.023 A 
ATOM     24  C   UNL     1       4.552   0.930  22.990  0.00  0.00    +0.002 A 
ATOM     25  C   UNL     1       4.445  -1.354  23.770  0.00  0.00    +0.002 A 
ATOM     26  C   UNL     1       5.192  -0.220  23.451  0.00  0.00    +0.000 A 
ENDBRANCH   8  21
ENDBRANCH  19   7
ENDBRANCH  14  19
TORSDOF 6
ENDMDL
MODEL 8
REMARK VINA RESULT:      -1.8      2.994      4.568
REMARK  Name = 75536768
REMARK  6 active torsions:
REMARK  status: ('A' for Active; 'I' for Inactive)
REMARK    1  A    between atoms: O_4  and  C_11
REMARK    2  A    between atoms: N_6  and  C_9
REMARK    3  A    between atoms: N_6  and  C_10
REMARK    4  A    between atoms: N_7  and  C_19
REMARK    5  A    between atoms: N_8  and  C_21
REMARK    6  A    between atoms: C_14  and  C_19
REMARK                            x       y       z     vdW  Elec       q    Type
REMARK                         _______ _______ _______ _____ _____    ______ ____
ROOT
ATOM      3  O   UNL     1       0.176   3.559  24.019  0.00  0.00    -0.371 OA
ATOM     10  C   UNL     1      -2.022   4.427  24.262  0.00  0.00    +0.111 C 
ATOM     11  C   UNL     1      -1.614   3.744  25.554  0.00  0.00    +0.164 C 
ATOM     14  C   UNL     1      -0.097   3.741  25.418  0.00  0.00    +0.165 C 
ATOM     15  C   UNL     1      -1.028   3.831  23.279  0.00  0.00    +0.181 C 
ENDROOT
BRANCH  11   4
ATOM      4  O   UNL     1      -2.040   4.450  26.704  0.00  0.00    -0.388 OA
ATOM     28  H   UNL     1      -2.890   4.079  26.993  0.00  0.00    +0.210 HD
ENDBRANCH  11   4
BRANCH  10   6
ATOM      6  N   UNL     1      -3.405   4.185  23.886  0.00  0.00    -0.306 NA
ATOM     27  H   UNL     1      -3.448   3.752  22.964  0.00  0.00    +0.123 HD
BRANCH   6   9
ATOM      1  F   UNL     1      -6.935   0.881  26.641  0.00  0.00    -0.206 F 
ATOM      2  F   UNL     1      -7.203   1.729  24.657  0.00  0.00    -0.206 F 
ATOM      9  C   UNL     1      -4.068   3.331  24.870  0.00  0.00    +0.054 C 
ATOM     12  C   UNL     1      -5.396   3.967  25.300  0.00  0.00    +0.024 C 
ATOM     13  C   UNL     1      -4.288   1.932  24.280  0.00  0.00    +0.024 C 
ATOM     16  C   UNL     1      -6.151   3.066  26.275  0.00  0.00    +0.077 C 
ATOM     17  C   UNL     1      -5.043   1.030  25.255  0.00  0.00    +0.077 C 
ATOM     18  C   UNL     1      -6.345   1.670  25.708  0.00  0.00    +0.249 C 
ENDBRANCH   6   9
ENDBRANCH  10   6
BRANCH  14  19
ATOM     19  C   UNL     1       0.575   2.641  26.220  0.00  0.00    +0.140 C 
BRANCH  19   7
ATOM      5  O   UNL     1      -0.338   0.752  24.270  0.00  0.00    -0.253 OA
ATOM      7  N   UNL     1      -0.316   1.540  26.445  0.00  0.00    -0.297 N 
ATOM      8  N   UNL     1      -1.587  -0.316  25.946  0.00  0.00    -0.269 N 
ATOM     20  C   UNL     1      -0.720   0.653  25.434  0.00  0.00    +0.304 C 
ATOM     29  H   UNL     1      -0.683   1.404  27.382  0.00  0.00    +0.150 HD
ATOM     30  H   UNL     1      -1.803  -0.256  26.938  0.00  0.00    +0.156 HD
BRANCH   8  21
ATOM     21  C   UNL     1      -2.207  -1.380  25.250  0.00  0.00    +0.035 A 
ATOM     22  C   UNL     1      -3.589  -1.552  25.329  0.00  0.00    +0.023 A 
ATOM     23  C   UNL     1      -1.438  -2.256  24.485  0.00  0.00    +0.023 A 
ATOM     24  C   UNL     1      -4.202  -2.602  24.643  0.00  0.00    +0.002 A 
ATOM     25  C   UNL     1      -2.050  -3.305  23.799  0.00  0.00    +0.002 A 
ATOM     26  C   UNL     1      -3.432  -3.477  23.878  0.00  0.00    +0.000 A 
ENDBRANCH   8  21
ENDBRANCH  19   7
ENDBRANCH  14  19
TORSDOF 6
ENDMDL
MODEL 9
REMARK VINA RESULT:      -0.4      3.019      5.391
REMARK  Name = 75536768
REMARK  6 active torsions:
REMARK  status: ('A' for Active; 'I' for Inactive)
REMARK    1  A    between atoms: O_4  and  C_11
REMARK    2  A    between atoms: N_6  and  C_9
REMARK    3  A    between atoms: N_6  and  C_10
REMARK    4  A    between atoms: N_7  and  C_19
REMARK    5  A    between atoms: N_8  and  C_21
REMARK    6  A    between atoms: C_14  and  C_19
REMARK                            x       y       z     vdW  Elec       q    Type
REMARK                         _______ _______ _______ _____ _____    ______ ____
ROOT
ATOM      3  O   UNL     1      -1.072  -1.411  26.306  0.00  0.00    -0.371 OA
ATOM     10  C   UNL     1      -3.214  -1.934  25.423  0.00  0.00    +0.111 C 
ATOM     11  C   UNL     1      -2.226  -1.803  24.279  0.00  0.00    +0.164 C 
ATOM     14  C   UNL     1      -0.905  -2.006  25.008  0.00  0.00    +0.165 C 
ATOM     15  C   UNL     1      -2.477  -1.214  26.541  0.00  0.00    +0.181 C 
ENDROOT
BRANCH  11   4
ATOM      4  O   UNL     1      -2.427  -2.775  23.270  0.00  0.00    -0.388 OA
ATOM     28  H   UNL     1      -2.382  -3.655  23.680  0.00  0.00    +0.210 HD
ENDBRANCH  11   4
BRANCH  10   6
ATOM      6  N   UNL     1      -4.516  -1.354  25.139  0.00  0.00    -0.306 NA
ATOM     27  H   UNL     1      -5.229  -1.781  25.729  0.00  0.00    +0.123 HD
BRANCH   6   9
ATOM      1  F   UNL     1      -5.695   4.083  25.293  0.00  0.00    -0.206 F 
ATOM      2  F   UNL     1      -6.917   2.495  24.449  0.00  0.00    -0.206 F 
ATOM      9  C   UNL     1      -4.496   0.092  25.349  0.00  0.00    +0.054 C 
ATOM     12  C   UNL     1      -4.537   0.816  23.997  0.00  0.00    +0.024 C 
ATOM     13  C   UNL     1      -5.679   0.505  26.235  0.00  0.00    +0.024 C 
ATOM     16  C   UNL     1      -4.590   2.332  24.181  0.00  0.00    +0.077 C 
ATOM     17  C   UNL     1      -5.732   2.021  26.420  0.00  0.00    +0.077 C 
ATOM     18  C   UNL     1      -5.742   2.743  25.083  0.00  0.00    +0.249 C 
ENDBRANCH   6   9
ENDBRANCH  10   6
BRANCH  14  19
ATOM     19  C   UNL     1       0.276  -1.367  24.299  0.00  0.00    +0.140 C 
BRANCH  19   7
ATOM      5  O   UNL     1      -1.547   0.821  23.999  0.00  0.00    -0.253 OA
ATOM      7  N   UNL     1       0.479  -0.016  24.736  0.00  0.00    -0.297 N 
ATOM      8  N   UNL     1       0.006   2.212  25.077  0.00  0.00    -0.269 N 
ATOM     20  C   UNL     1      -0.466   1.006  24.551  0.00  0.00    +0.304 C 
ATOM     29  H   UNL     1       1.358   0.213  25.189  0.00  0.00    +0.150 HD
ATOM     30  H   UNL     1       0.928   2.195  25.505  0.00  0.00    +0.156 HD
BRANCH   8  21
ATOM     21  C   UNL     1      -0.647   3.468  25.089  0.00  0.00    +0.035 A 
ATOM     22  C   UNL     1      -0.104   4.542  24.386  0.00  0.00    +0.023 A 
ATOM     23  C   UNL     1      -1.834   3.630  25.804  0.00  0.00    +0.023 A 
ATOM     24  C   UNL     1      -0.747   5.781  24.398  0.00  0.00    +0.002 A 
ATOM     25  C   UNL     1      -2.477   4.868  25.815  0.00  0.00    +0.002 A 
ATOM     26  C   UNL     1      -1.934   5.943  25.112  0.00  0.00    +0.000 A 
ENDBRANCH   8  21
ENDBRANCH  19   7
ENDBRANCH  14  19
TORSDOF 6
ENDMDL
MODEL 10
REMARK VINA RESULT:      -0.2      3.311      7.131
REMARK  Name = 75536768
REMARK  6 active torsions:
REMARK  status: ('A' for Active; 'I' for Inactive)
REMARK    1  A    between atoms: O_4  and  C_11
REMARK    2  A    between atoms: N_6  and  C_9
REMARK    3  A    between atoms: N_6  and  C_10
REMARK    4  A    between atoms: N_7  and  C_19
REMARK    5  A    between atoms: N_8  and  C_21
REMARK    6  A    between atoms: C_14  and  C_19
REMARK                            x       y       z     vdW  Elec       q    Type
REMARK                         _______ _______ _______ _____ _____    ______ ____
ROOT
ATOM      3  O   UNL     1      -1.517  -2.824  23.475  0.00  0.00    -0.371 OA
ATOM     10  C   UNL     1       0.117  -1.229  24.129  0.00  0.00    +0.111 C 
ATOM     11  C   UNL     1      -1.093  -1.096  25.035  0.00  0.00    +0.164 C 
ATOM     14  C   UNL     1      -1.751  -2.457  24.845  0.00  0.00    +0.165 C 
ATOM     15  C   UNL     1      -0.470  -1.989  22.951  0.00  0.00    +0.181 C 
ENDROOT
BRANCH  11   4
ATOM      4  O   UNL     1      -0.742  -0.864  26.385  0.00  0.00    -0.388 OA
ATOM     28  H   UNL     1      -0.028  -1.478  26.626  0.00  0.00    +0.210 HD
ENDBRANCH  11   4
BRANCH  10   6
ATOM      6  N   UNL     1       0.701   0.046  23.746  0.00  0.00    -0.306 NA
ATOM     27  H   UNL     1       0.762   0.663  24.555  0.00  0.00    +0.123 HD
BRANCH   6   9
ATOM      1  F   UNL     1       6.177  -0.184  22.783  0.00  0.00    -0.206 F 
ATOM      2  F   UNL     1       5.188   0.501  24.593  0.00  0.00    -0.206 F 
ATOM      9  C   UNL     1       2.028  -0.147  23.164  0.00  0.00    +0.054 C 
ATOM     12  C   UNL     1       2.758   1.199  23.077  0.00  0.00    +0.024 C 
ATOM     13  C   UNL     1       2.823  -1.155  24.004  0.00  0.00    +0.024 C 
ATOM     16  C   UNL     1       4.178   1.027  22.540  0.00  0.00    +0.077 C 
ATOM     17  C   UNL     1       4.242  -1.330  23.467  0.00  0.00    +0.077 C 
ATOM     18  C   UNL     1       4.959   0.006  23.349  0.00  0.00    +0.249 C 
ENDBRANCH   6   9
ENDBRANCH  10   6
BRANCH  14  19
ATOM     19  C   UNL     1      -3.243  -2.446  25.126  0.00  0.00    +0.140 C 
BRANCH  19   7
ATOM      5  O   UNL     1      -3.631   0.016  23.716  0.00  0.00    -0.253 OA
ATOM      7  N   UNL     1      -3.660  -1.193  25.688  0.00  0.00    -0.297 N 
ATOM      8  N   UNL     1      -4.238   1.036  25.742  0.00  0.00    -0.269 N 
ATOM     20  C   UNL     1      -3.828  -0.024  24.928  0.00  0.00    +0.304 C 
ATOM     29  H   UNL     1      -3.828  -1.149  26.687  0.00  0.00    +0.150 HD
ATOM     30  H   UNL     1      -4.356   0.833  26.730  0.00  0.00    +0.156 HD
BRANCH   8  21
ATOM     21  C   UNL     1      -4.513   2.369  25.356  0.00  0.00    +0.035 A 
ATOM     22  C   UNL     1      -3.653   3.033  24.482  0.00  0.00    +0.023 A 
ATOM     23  C   UNL     1      -5.645   3.018  25.848  0.00  0.00    +0.023 A 
ATOM     24  C   UNL     1      -3.923   4.348  24.101  0.00  0.00    +0.002 A 
ATOM     25  C   UNL     1      -5.916   4.333  25.467  0.00  0.00    +0.002 A 
ATOM     26  C   UNL     1      -5.055   4.997  24.593  0.00  0.00    +0.000 A 
ENDBRANCH   8  21
ENDBRANCH  19   7
ENDBRANCH  14  19
TORSDOF 6
ENDMDL
