MODEL 1
REMARK VINA RESULT:       2.6      0.000      0.000
REMARK  Name = 11885190
REMARK  3 active torsions:
REMARK  status: ('A' for Active; 'I' for Inactive)
REMARK    1  A    between atoms: S_1  and  N_7
REMARK    2  A    between atoms: S_1  and  C_20
REMARK    3  A    between atoms: C_18  and  C_21
REMARK                            x       y       z     vdW  Elec       q    Type
REMARK                         _______ _______ _______ _____ _____    ______ ____
ROOT
ATOM      6  O   UNL     1       0.492   2.082  25.876  0.00  0.00    -0.267 OA
ATOM      7  N   UNL     1      -4.443   2.511  25.322  0.00  0.00    -0.176 NA
ATOM      8  N   UNL     1      -1.368   3.094  24.898  0.00  0.00    -0.311 N 
ATOM      9  C   UNL     1      -3.102   4.398  26.258  0.00  0.00    +0.025 C 
ATOM     10  C   UNL     1      -3.370   4.183  23.827  0.00  0.00    +0.052 C 
ATOM     11  C   UNL     1      -3.309   5.188  24.973  0.00  0.00    +0.017 C 
ATOM     12  C   UNL     1      -4.270   3.424  26.488  0.00  0.00    +0.114 C 
ATOM     13  C   UNL     1      -4.575   3.245  24.027  0.00  0.00    +0.119 C 
ATOM     14  C   UNL     1      -1.748   3.682  26.191  0.00  0.00    +0.130 C 
ATOM     15  C   UNL     1      -2.086   3.380  23.735  0.00  0.00    +0.026 A 
ATOM     16  C   UNL     1      -1.652   2.928  22.548  0.00  0.00    +0.022 A 
ATOM     17  C   UNL     1      -0.188   2.324  24.877  0.00  0.00    +0.260 A 
ATOM     18  C   UNL     1       0.253   1.801  23.536  0.00  0.00    +0.053 A 
ATOM     19  C   UNL     1      -0.469   2.121  22.453  0.00  0.00    +0.016 A 
ENDROOT
BRANCH  18  21
ATOM      2  S   UNL     1       1.287  -0.759  23.544  0.00  0.00    -0.096 S 
ATOM     21  C   UNL     1       1.445   0.945  23.405  0.00  0.00    +0.024 A 
ATOM     24  C   UNL     1       2.757   1.316  23.174  0.00  0.00    +0.016 A 
ATOM     28  C   UNL     1       3.633   0.194  23.111  0.00  0.00    +0.008 A 
ATOM     29  C   UNL     1       2.965  -0.996  23.295  0.00  0.00    +0.046 A 
ENDBRANCH  18  21
BRANCH   7   1
ATOM      1  S   UNL     1      -5.538   1.216  25.552  0.00  0.00    +0.061 S 
ATOM      4  O   UNL     1      -6.585   1.316  24.556  0.00  0.00    -0.153 OA
ATOM      5  O   UNL     1      -5.833   1.088  26.964  0.00  0.00    -0.153 OA
BRANCH   1  20
ATOM      3  F   UNL     1      -2.692  -3.754  24.242  0.00  0.00    -0.205 F 
ATOM     20  C   UNL     1      -4.672  -0.298  25.154  0.00  0.00    +0.106 A 
ATOM     22  C   UNL     1      -4.898  -0.877  23.928  0.00  0.00    +0.031 A 
ATOM     23  C   UNL     1      -3.813  -0.824  26.086  0.00  0.00    +0.031 A 
ATOM     25  C   UNL     1      -4.223  -2.057  23.618  0.00  0.00    +0.040 A 
ATOM     26  C   UNL     1      -3.137  -2.005  25.776  0.00  0.00    +0.040 A 
ATOM     27  C   UNL     1      -3.342  -2.621  24.541  0.00  0.00    +0.124 A 
ENDBRANCH   1  20
ENDBRANCH   7   1
TORSDOF 3
ENDMDL
MODEL 2
REMARK VINA RESULT:       3.4      2.589      4.908
REMARK  Name = 11885190
REMARK  3 active torsions:
REMARK  status: ('A' for Active; 'I' for Inactive)
REMARK    1  A    between atoms: S_1  and  N_7
REMARK    2  A    between atoms: S_1  and  C_20
REMARK    3  A    between atoms: C_18  and  C_21
REMARK                            x       y       z     vdW  Elec       q    Type
REMARK                         _______ _______ _______ _____ _____    ______ ____
ROOT
ATOM      6  O   UNL     1      -0.327  -0.718  22.000  0.00  0.00    -0.267 OA
ATOM      7  N   UNL     1      -4.208   0.221  24.983  0.00  0.00    -0.176 NA
ATOM      8  N   UNL     1      -1.645  -1.238  23.853  0.00  0.00    -0.311 N 
ATOM      9  C   UNL     1      -4.113  -1.888  23.651  0.00  0.00    +0.025 C 
ATOM     10  C   UNL     1      -3.054  -1.798  25.864  0.00  0.00    +0.052 C 
ATOM     11  C   UNL     1      -3.863  -2.686  24.922  0.00  0.00    +0.017 C 
ATOM     12  C   UNL     1      -4.909  -0.609  23.963  0.00  0.00    +0.114 C 
ATOM     13  C   UNL     1      -3.875  -0.546  26.222  0.00  0.00    +0.119 C 
ATOM     14  C   UNL     1      -2.769  -1.591  22.975  0.00  0.00    +0.130 C 
ATOM     15  C   UNL     1      -1.731  -1.400  25.238  0.00  0.00    +0.026 A 
ATOM     16  C   UNL     1      -0.653  -1.184  26.009  0.00  0.00    +0.022 A 
ATOM     17  C   UNL     1      -0.451  -0.837  23.221  0.00  0.00    +0.260 A 
ATOM     18  C   UNL     1       0.729  -0.567  24.115  0.00  0.00    +0.053 A 
ATOM     19  C   UNL     1       0.590  -0.754  25.436  0.00  0.00    +0.016 A 
ENDROOT
BRANCH  18  21
ATOM      2  S   UNL     1       3.370  -1.146  23.560  0.00  0.00    -0.096 S 
ATOM     21  C   UNL     1       2.012  -0.096  23.565  0.00  0.00    +0.024 A 
ATOM     24  C   UNL     1       2.321   1.135  23.016  0.00  0.00    +0.016 A 
ATOM     28  C   UNL     1       3.679   1.214  22.592  0.00  0.00    +0.008 A 
ATOM     29  C   UNL     1       4.363   0.042  22.828  0.00  0.00    +0.046 A 
ENDBRANCH  18  21
BRANCH   7   1
ATOM      1  S   UNL     1      -4.853   1.786  25.234  0.00  0.00    +0.061 S 
ATOM      4  O   UNL     1      -5.355   1.866  26.591  0.00  0.00    -0.153 OA
ATOM      5  O   UNL     1      -5.665   2.154  24.093  0.00  0.00    -0.153 OA
BRANCH   1  20
ATOM      3  F   UNL     1      -0.376   5.588  25.063  0.00  0.00    -0.205 F 
ATOM     20  C   UNL     1      -3.490   2.944  25.183  0.00  0.00    +0.106 A 
ATOM     22  C   UNL     1      -2.285   2.514  24.681  0.00  0.00    +0.031 A 
ATOM     23  C   UNL     1      -3.698   4.220  25.646  0.00  0.00    +0.031 A 
ATOM     25  C   UNL     1      -1.222   3.416  24.641  0.00  0.00    +0.040 A 
ATOM     26  C   UNL     1      -2.634   5.123  25.606  0.00  0.00    +0.040 A 
ATOM     27  C   UNL     1      -1.397   4.721  25.103  0.00  0.00    +0.124 A 
ENDBRANCH   1  20
ENDBRANCH   7   1
TORSDOF 3
ENDMDL
MODEL 3
REMARK VINA RESULT:       3.4     16.903     20.791
REMARK  Name = 11885190
REMARK  3 active torsions:
REMARK  status: ('A' for Active; 'I' for Inactive)
REMARK    1  A    between atoms: S_1  and  N_7
REMARK    2  A    between atoms: S_1  and  C_20
REMARK    3  A    between atoms: C_18  and  C_21
REMARK                            x       y       z     vdW  Elec       q    Type
REMARK                         _______ _______ _______ _____ _____    ______ ____
ROOT
ATOM      6  O   UNL     1      11.167  -7.159  31.158  0.00  0.00    -0.267 OA
ATOM      7  N   UNL     1      15.533  -9.250  29.969  0.00  0.00    -0.176 NA
ATOM      8  N   UNL     1      13.162  -8.200  31.773  0.00  0.00    -0.311 N 
ATOM      9  C   UNL     1      15.457  -7.156  31.326  0.00  0.00    +0.025 C 
ATOM     10  C   UNL     1      15.307  -9.337  32.443  0.00  0.00    +0.052 C 
ATOM     11  C   UNL     1      15.895  -7.934  32.559  0.00  0.00    +0.017 C 
ATOM     12  C   UNL     1      15.981  -7.830  30.048  0.00  0.00    +0.114 C 
ATOM     13  C   UNL     1      15.878 -10.033  31.194  0.00  0.00    +0.119 C 
ATOM     14  C   UNL     1      13.929  -7.025  31.336  0.00  0.00    +0.130 C 
ATOM     15  C   UNL     1      13.792  -9.291  32.376  0.00  0.00    +0.026 A 
ATOM     16  C   UNL     1      13.060 -10.300  32.873  0.00  0.00    +0.022 A 
ATOM     17  C   UNL     1      11.761  -8.121  31.651  0.00  0.00    +0.260 A 
ATOM     18  C   UNL     1      10.969  -9.284  32.186  0.00  0.00    +0.053 A 
ATOM     19  C   UNL     1      11.629 -10.296  32.768  0.00  0.00    +0.016 A 
ENDROOT
BRANCH  18  21
ATOM      2  S   UNL     1       8.550  -8.141  32.866  0.00  0.00    -0.096 S 
ATOM     21  C   UNL     1       9.501  -9.327  32.068  0.00  0.00    +0.024 A 
ATOM     24  C   UNL     1       8.713 -10.227  31.375  0.00  0.00    +0.016 A 
ATOM     28  C   UNL     1       7.323  -9.939  31.502  0.00  0.00    +0.008 A 
ATOM     29  C   UNL     1       7.093  -8.830  32.285  0.00  0.00    +0.046 A 
ENDBRANCH  18  21
BRANCH   7   1
ATOM      1  S   UNL     1      15.831 -10.038  28.479  0.00  0.00    +0.061 S 
ATOM      4  O   UNL     1      14.600 -10.655  28.030  0.00  0.00    -0.153 OA
ATOM      5  O   UNL     1      17.070 -10.781  28.575  0.00  0.00    -0.153 OA
BRANCH   1  20
ATOM      3  F   UNL     1      16.973  -5.891  24.478  0.00  0.00    -0.205 F 
ATOM     20  C   UNL     1      16.179  -8.775  27.262  0.00  0.00    +0.106 A 
ATOM     22  C   UNL     1      17.134  -9.032  26.307  0.00  0.00    +0.031 A 
ATOM     23  C   UNL     1      15.479  -7.595  27.325  0.00  0.00    +0.031 A 
ATOM     25  C   UNL     1      17.405  -8.047  25.358  0.00  0.00    +0.040 A 
ATOM     26  C   UNL     1      15.750  -6.610  26.375  0.00  0.00    +0.040 A 
ATOM     27  C   UNL     1      16.713  -6.836  25.391  0.00  0.00    +0.124 A 
ENDBRANCH   1  20
ENDBRANCH   7   1
TORSDOF 3
ENDMDL
MODEL 4
REMARK VINA RESULT:       4.1     17.673     20.027
REMARK  Name = 11885190
REMARK  3 active torsions:
REMARK  status: ('A' for Active; 'I' for Inactive)
REMARK    1  A    between atoms: S_1  and  N_7
REMARK    2  A    between atoms: S_1  and  C_20
REMARK    3  A    between atoms: C_18  and  C_21
REMARK                            x       y       z     vdW  Elec       q    Type
REMARK                         _______ _______ _______ _____ _____    ______ ____
ROOT
ATOM      6  O   UNL     1      12.473  -4.506  30.923  0.00  0.00    -0.267 OA
ATOM      7  N   UNL     1      16.365  -4.860  27.828  0.00  0.00    -0.176 NA
ATOM      8  N   UNL     1      14.732  -4.936  30.531  0.00  0.00    -0.311 N 
ATOM      9  C   UNL     1      16.343  -3.152  29.649  0.00  0.00    +0.025 C 
ATOM     10  C   UNL     1      17.169  -5.417  30.114  0.00  0.00    +0.052 C 
ATOM     11  C   UNL     1      17.405  -3.937  30.405  0.00  0.00    +0.017 C 
ATOM     12  C   UNL     1      16.458  -3.404  28.136  0.00  0.00    +0.114 C 
ATOM     13  C   UNL     1      17.342  -5.679  28.606  0.00  0.00    +0.119 C 
ATOM     14  C   UNL     1      14.961  -3.522  30.201  0.00  0.00    +0.130 C 
ATOM     15  C   UNL     1      15.788  -5.850  30.570  0.00  0.00    +0.026 A 
ATOM     16  C   UNL     1      15.575  -7.107  30.987  0.00  0.00    +0.022 A 
ATOM     17  C   UNL     1      13.423  -5.293  30.909  0.00  0.00    +0.260 A 
ATOM     18  C   UNL     1      13.208  -6.719  31.338  0.00  0.00    +0.053 A 
ATOM     19  C   UNL     1      14.263  -7.546  31.369  0.00  0.00    +0.016 A 
ENDROOT
BRANCH  18  21
ATOM      2  S   UNL     1      11.265  -8.648  30.987  0.00  0.00    -0.096 S 
ATOM     21  C   UNL     1      11.870  -7.212  31.708  0.00  0.00    +0.024 A 
ATOM     24  C   UNL     1      10.962  -6.671  32.600  0.00  0.00    +0.016 A 
ATOM     28  C   UNL     1       9.766  -7.440  32.689  0.00  0.00    +0.008 A 
ATOM     29  C   UNL     1       9.797  -8.543  31.865  0.00  0.00    +0.046 A 
ENDBRANCH  18  21
BRANCH   7   1
ATOM      1  S   UNL     1      16.223  -5.257  26.169  0.00  0.00    +0.061 S 
ATOM      4  O   UNL     1      14.834  -5.553  25.884  0.00  0.00    -0.153 OA
ATOM      5  O   UNL     1      17.291  -6.165  25.805  0.00  0.00    -0.153 OA
BRANCH   1  20
ATOM      3  F   UNL     1      17.389  -0.394  23.086  0.00  0.00    -0.205 F 
ATOM     20  C   UNL     1      16.577  -3.777  25.230  0.00  0.00    +0.106 A 
ATOM     22  C   UNL     1      16.309  -2.557  25.804  0.00  0.00    +0.031 A 
ATOM     23  C   UNL     1      17.106  -3.912  23.970  0.00  0.00    +0.031 A 
ATOM     25  C   UNL     1      16.585  -1.403  25.072  0.00  0.00    +0.040 A 
ATOM     26  C   UNL     1      17.382  -2.757  23.237  0.00  0.00    +0.040 A 
ATOM     27  C   UNL     1      17.122  -1.503  23.789  0.00  0.00    +0.124 A 
ENDBRANCH   1  20
ENDBRANCH   7   1
TORSDOF 3
ENDMDL
MODEL 5
REMARK VINA RESULT:       5.9      2.785      3.555
REMARK  Name = 11885190
REMARK  3 active torsions:
REMARK  status: ('A' for Active; 'I' for Inactive)
REMARK    1  A    between atoms: S_1  and  N_7
REMARK    2  A    between atoms: S_1  and  C_20
REMARK    3  A    between atoms: C_18  and  C_21
REMARK                            x       y       z     vdW  Elec       q    Type
REMARK                         _______ _______ _______ _____ _____    ______ ____
ROOT
ATOM      6  O   UNL     1      -1.705   3.377  28.018  0.00  0.00    -0.267 OA
ATOM      7  N   UNL     1      -3.803   1.166  24.074  0.00  0.00    -0.176 NA
ATOM      8  N   UNL     1      -2.105   3.258  25.723  0.00  0.00    -0.311 N 
ATOM      9  C   UNL     1      -4.449   3.490  24.718  0.00  0.00    +0.025 C 
ATOM     10  C   UNL     1      -2.520   3.127  23.243  0.00  0.00    +0.052 C 
ATOM     11  C   UNL     1      -3.720   4.036  23.499  0.00  0.00    +0.017 C 
ATOM     12  C   UNL     1      -4.936   2.054  24.458  0.00  0.00    +0.114 C 
ATOM     13  C   UNL     1      -3.012   1.703  22.925  0.00  0.00    +0.119 C 
ATOM     14  C   UNL     1      -3.523   3.582  25.937  0.00  0.00    +0.130 C 
ATOM     15  C   UNL     1      -1.584   3.109  24.436  0.00  0.00    +0.026 A 
ATOM     16  C   UNL     1      -0.265   2.929  24.261  0.00  0.00    +0.022 A 
ATOM     17  C   UNL     1      -1.288   3.213  26.869  0.00  0.00    +0.260 A 
ATOM     18  C   UNL     1       0.181   2.975  26.643  0.00  0.00    +0.053 A 
ATOM     19  C   UNL     1       0.625   2.855  25.383  0.00  0.00    +0.016 A 
ENDROOT
BRANCH  18  21
ATOM      2  S   UNL     1       0.639   2.034  29.198  0.00  0.00    -0.096 S 
ATOM     21  C   UNL     1       1.120   2.863  27.773  0.00  0.00    +0.024 A 
ATOM     24  C   UNL     1       2.410   3.350  27.881  0.00  0.00    +0.016 A 
ATOM     28  C   UNL     1       3.002   3.039  29.139  0.00  0.00    +0.008 A 
ATOM     29  C   UNL     1       2.149   2.326  29.951  0.00  0.00    +0.046 A 
ENDBRANCH  18  21
BRANCH   7   1
ATOM      1  S   UNL     1      -4.163  -0.506  24.005  0.00  0.00    +0.061 S 
ATOM      4  O   UNL     1      -4.335  -0.883  22.617  0.00  0.00    -0.153 OA
ATOM      5  O   UNL     1      -5.152  -0.821  25.014  0.00  0.00    -0.153 OA
BRANCH   1  20
ATOM      3  F   UNL     1       0.626  -3.417  25.770  0.00  0.00    -0.205 F 
ATOM     20  C   UNL     1      -2.704  -1.392  24.541  0.00  0.00    +0.106 A 
ATOM     22  C   UNL     1      -1.729  -0.699  25.217  0.00  0.00    +0.031 A 
ATOM     23  C   UNL     1      -2.613  -2.733  24.259  0.00  0.00    +0.031 A 
ATOM     25  C   UNL     1      -0.592  -1.390  25.635  0.00  0.00    +0.040 A 
ATOM     26  C   UNL     1      -1.476  -3.425  24.678  0.00  0.00    +0.040 A 
ATOM     27  C   UNL     1      -0.465  -2.753  25.367  0.00  0.00    +0.124 A 
ENDBRANCH   1  20
ENDBRANCH   7   1
TORSDOF 3
ENDMDL
