MODEL 1
REMARK VINA RESULT:      -4.4      0.000      0.000
REMARK  Name = 45784262
REMARK  3 active torsions:
REMARK  status: ('A' for Active; 'I' for Inactive)
REMARK    1  A    between atoms: N_4  and  C_7
REMARK    2  A    between atoms: C_8  and  C_17
REMARK    3  A    between atoms: C_22  and  C_24
REMARK                            x       y       z     vdW  Elec       q    Type
REMARK                         _______ _______ _______ _____ _____    ______ ____
ROOT
ATOM      5  N   UNL     1      16.809  -5.795  25.831  0.00  0.00    -0.342 N 
ATOM      6  N   UNL     1      17.321  -4.589  27.626  0.00  0.00    -0.232 NA
ATOM     17  C   UNL     1      17.064  -5.797  27.174  0.00  0.00    +0.113 A 
ATOM     18  C   UNL     1      16.908  -4.502  25.386  0.00  0.00    +0.067 A 
ATOM     19  C   UNL     1      17.228  -3.769  26.525  0.00  0.00    +0.089 A 
ATOM     20  C   UNL     1      16.750  -3.927  24.124  0.00  0.00    +0.040 A 
ATOM     21  C   UNL     1      17.405  -2.378  26.418  0.00  0.00    +0.030 A 
ATOM     22  C   UNL     1      16.930  -2.543  24.036  0.00  0.00    +0.057 A 
ATOM     23  C   UNL     1      17.251  -1.781  25.161  0.00  0.00    +0.014 A 
ATOM     25  H   UNL     1      16.587  -6.602  25.262  0.00  0.00    +0.167 HD
ENDROOT
BRANCH  17   8
ATOM      4  N   UNL     1      15.619  -8.455  29.238  0.00  0.00    -0.299 NA
ATOM      8  C   UNL     1      17.035  -7.076  27.978  0.00  0.00    +0.070 C 
ATOM      9  C   UNL     1      15.668  -7.771  27.945  0.00  0.00    +0.096 C 
ATOM     10  C   UNL     1      16.140  -7.484  30.199  0.00  0.00    +0.085 C 
ATOM     11  C   UNL     1      17.350  -6.906  29.474  0.00  0.00    +0.028 C 
BRANCH   4   7
ATOM      7  C   UNL     1      14.271  -8.907  29.581  0.00  0.00    +0.057 C 
ATOM     12  C   UNL     1      13.612  -7.905  30.536  0.00  0.00    +0.019 C 
ATOM     13  C   UNL     1      14.334 -10.306  30.205  0.00  0.00    +0.019 C 
ATOM     14  C   UNL     1      12.230  -8.384  30.976  0.00  0.00    +0.002 C 
ATOM     15  C   UNL     1      12.951 -10.781  30.646  0.00  0.00    +0.002 C 
ATOM     16  C   UNL     1      12.286  -9.781  31.587  0.00  0.00    +0.000 C 
ENDBRANCH   4   7
ENDBRANCH  17   8
BRANCH  22  24
ATOM      1  F   UNL     1      17.305  -0.614  22.699  0.00  0.00    -0.166 F 
ATOM      2  F   UNL     1      17.379  -2.536  21.686  0.00  0.00    -0.166 F 
ATOM      3  F   UNL     1      15.473  -1.723  22.325  0.00  0.00    -0.166 F 
ATOM     24  C   UNL     1      16.773  -1.870  22.712  0.00  0.00    +0.417 C 
ENDBRANCH  22  24
TORSDOF 3
ENDMDL
MODEL 2
REMARK VINA RESULT:      -1.1     17.816     19.379
REMARK  Name = 45784262
REMARK  3 active torsions:
REMARK  status: ('A' for Active; 'I' for Inactive)
REMARK    1  A    between atoms: N_4  and  C_7
REMARK    2  A    between atoms: C_8  and  C_17
REMARK    3  A    between atoms: C_22  and  C_24
REMARK                            x       y       z     vdW  Elec       q    Type
REMARK                         _______ _______ _______ _____ _____    ______ ____
ROOT
ATOM      5  N   UNL     1      -2.276   0.164  23.892  0.00  0.00    -0.342 N 
ATOM      6  N   UNL     1      -0.639   1.622  24.254  0.00  0.00    -0.232 NA
ATOM     17  C   UNL     1      -0.938   0.428  23.794  0.00  0.00    +0.113 A 
ATOM     18  C   UNL     1      -2.881   1.260  24.451  0.00  0.00    +0.067 A 
ATOM     19  C   UNL     1      -1.838   2.156  24.669  0.00  0.00    +0.089 A 
ATOM     20  C   UNL     1      -4.209   1.537  24.777  0.00  0.00    +0.040 A 
ATOM     21  C   UNL     1      -2.118   3.408  25.243  0.00  0.00    +0.030 A 
ATOM     22  C   UNL     1      -4.470   2.787  25.348  0.00  0.00    +0.057 A 
ATOM     23  C   UNL     1      -3.445   3.707  25.578  0.00  0.00    +0.014 A 
ATOM     25  H   UNL     1      -2.741  -0.686  23.604  0.00  0.00    +0.167 HD
ENDROOT
BRANCH  17   8
ATOM      4  N   UNL     1       2.274  -0.908  22.645  0.00  0.00    -0.299 NA
ATOM      8  C   UNL     1       0.022  -0.585  23.215  0.00  0.00    +0.070 C 
ATOM      9  C   UNL     1       1.449  -0.435  23.759  0.00  0.00    +0.096 C 
ATOM     10  C   UNL     1       1.671  -0.317  21.451  0.00  0.00    +0.085 C 
ATOM     11  C   UNL     1       0.180  -0.524  21.685  0.00  0.00    +0.028 C 
BRANCH   4   7
ATOM      7  C   UNL     1       3.681  -0.543  22.798  0.00  0.00    +0.057 C 
ATOM     12  C   UNL     1       4.317  -1.374  23.918  0.00  0.00    +0.019 C 
ATOM     13  C   UNL     1       3.800   0.957  23.087  0.00  0.00    +0.019 C 
ATOM     14  C   UNL     1       5.769  -0.965  24.158  0.00  0.00    +0.002 C 
ATOM     15  C   UNL     1       5.253   1.363  23.328  0.00  0.00    +0.002 C 
ATOM     16  C   UNL     1       5.894   0.530  24.434  0.00  0.00    +0.000 C 
ENDBRANCH   4   7
ENDBRANCH  17   8
BRANCH  22  24
ATOM      1  F   UNL     1      -6.793   2.565  24.894  0.00  0.00    -0.166 F 
ATOM      2  F   UNL     1      -6.218   2.755  26.981  0.00  0.00    -0.166 F 
ATOM      3  F   UNL     1      -6.126   4.482  25.672  0.00  0.00    -0.166 F 
ATOM     24  C   UNL     1      -5.873   3.142  25.719  0.00  0.00    +0.417 C 
ENDBRANCH  22  24
TORSDOF 3
ENDMDL
MODEL 3
REMARK VINA RESULT:      -1.1     16.666     17.924
REMARK  Name = 45784262
REMARK  3 active torsions:
REMARK  status: ('A' for Active; 'I' for Inactive)
REMARK    1  A    between atoms: N_4  and  C_7
REMARK    2  A    between atoms: C_8  and  C_17
REMARK    3  A    between atoms: C_22  and  C_24
REMARK                            x       y       z     vdW  Elec       q    Type
REMARK                         _______ _______ _______ _____ _____    ______ ____
ROOT
ATOM      5  N   UNL     1       1.090  -1.118  23.796  0.00  0.00    -0.342 N 
ATOM      6  N   UNL     1       0.659   0.931  23.055  0.00  0.00    -0.232 NA
ATOM     17  C   UNL     1       0.133  -0.192  23.488  0.00  0.00    +0.113 A 
ATOM     18  C   UNL     1       2.316  -0.555  23.546  0.00  0.00    +0.067 A 
ATOM     19  C   UNL     1       2.019   0.724  23.084  0.00  0.00    +0.089 A 
ATOM     20  C   UNL     1       3.617  -1.039  23.679  0.00  0.00    +0.040 A 
ATOM     21  C   UNL     1       3.071   1.586  22.730  0.00  0.00    +0.030 A 
ATOM     22  C   UNL     1       4.652  -0.169  23.322  0.00  0.00    +0.057 A 
ATOM     23  C   UNL     1       4.387   1.120  22.856  0.00  0.00    +0.014 A 
ATOM     25  H   UNL     1       0.929  -2.053  24.147  0.00  0.00    +0.167 HD
ENDROOT
BRANCH  17   8
ATOM      4  N   UNL     1      -3.280   0.212  24.756  0.00  0.00    -0.299 NA
ATOM      8  C   UNL     1      -1.338  -0.499  23.652  0.00  0.00    +0.070 C 
ATOM      9  C   UNL     1      -2.178   0.749  23.956  0.00  0.00    +0.096 C 
ATOM     10  C   UNL     1      -2.651  -0.728  25.683  0.00  0.00    +0.085 C 
ATOM     11  C   UNL     1      -1.671  -1.479  24.790  0.00  0.00    +0.028 C 
BRANCH   4   7
ATOM      7  C   UNL     1      -4.028   1.259  25.449  0.00  0.00    +0.057 C 
ATOM     12  C   UNL     1      -5.477   1.284  24.948  0.00  0.00    +0.019 C 
ATOM     13  C   UNL     1      -3.347   2.615  25.234  0.00  0.00    +0.019 C 
ATOM     14  C   UNL     1      -6.271   2.417  25.596  0.00  0.00    +0.002 C 
ATOM     15  C   UNL     1      -4.143   3.747  25.881  0.00  0.00    +0.002 C 
ATOM     16  C   UNL     1      -5.589   3.768  25.395  0.00  0.00    +0.000 C 
ENDBRANCH   4   7
ENDBRANCH  17   8
BRANCH  22  24
ATOM      1  F   UNL     1       6.164  -1.902  23.926  0.00  0.00    -0.166 F 
ATOM      2  F   UNL     1       6.742  -0.637  22.256  0.00  0.00    -0.166 F 
ATOM      3  F   UNL     1       6.822   0.140  24.280  0.00  0.00    -0.166 F 
ATOM     24  C   UNL     1       6.068  -0.630  23.442  0.00  0.00    +0.417 C 
ENDBRANCH  22  24
TORSDOF 3
ENDMDL
