MODEL 1
REMARK VINA RESULT:       8.1      0.000      0.000
REMARK  Name = 7113909
REMARK  7 active torsions:
REMARK  status: ('A' for Active; 'I' for Inactive)
REMARK    1  A    between atoms: S_1  and  N_12
REMARK    2  A    between atoms: S_1  and  C_28
REMARK    3  A    between atoms: O_9  and  C_31
REMARK    4  A    between atoms: O_9  and  C_38
REMARK    5  A    between atoms: N_12  and  C_23
REMARK    6  A    between atoms: C_22  and  C_25
REMARK    7  A    between atoms: C_34  and  C_37
REMARK                            x       y       z     vdW  Elec       q    Type
REMARK                         _______ _______ _______ _____ _____    ______ ____
ROOT
ATOM      5  O   UNL     1      -4.079   2.443  25.818  0.00  0.00    -0.266 OA
ATOM      6  O   UNL     1      -0.515  -1.230  26.620  0.00  0.00    -0.270 OA
ATOM     10  N   UNL     1      -1.942  -1.986  24.927  0.00  0.00    -0.297 N 
ATOM     11  N   UNL     1      -3.883   0.492  24.535  0.00  0.00    -0.310 N 
ATOM     13  C   UNL     1      -4.369  -1.844  25.462  0.00  0.00    +0.027 C 
ATOM     14  C   UNL     1      -3.612  -1.585  23.133  0.00  0.00    +0.054 C 
ATOM     15  C   UNL     1      -4.700  -2.195  24.016  0.00  0.00    +0.018 C 
ATOM     16  C   UNL     1      -2.992  -2.413  25.851  0.00  0.00    +0.113 C 
ATOM     17  C   UNL     1      -4.432  -0.320  25.628  0.00  0.00    +0.130 C 
ATOM     18  C   UNL     1      -2.246  -2.196  23.503  0.00  0.00    +0.117 C 
ATOM     19  C   UNL     1      -3.558  -0.077  23.295  0.00  0.00    +0.027 A 
ATOM     20  C   UNL     1      -3.164   0.700  22.270  0.00  0.00    +0.024 A 
ATOM     21  C   UNL     1      -3.794   1.883  24.761  0.00  0.00    +0.274 A 
ATOM     22  C   UNL     1      -0.774  -1.409  25.432  0.00  0.00    +0.247 C 
ATOM     23  C   UNL     1      -3.330   2.683  23.599  0.00  0.00    +0.112 A 
ATOM     24  C   UNL     1      -3.044   2.124  22.423  0.00  0.00    +0.031 A 
ENDROOT
BRANCH  22  25
ATOM     25  C   UNL     1       0.237  -0.952  24.472  0.00  0.00    +0.037 A 
ATOM     26  C   UNL     1      -0.117  -0.052  23.470  0.00  0.00    +0.016 A 
ATOM     27  C   UNL     1       1.545  -1.419  24.567  0.00  0.00    +0.016 A 
ATOM     29  C   UNL     1       0.844   0.383  22.557  0.00  0.00    +0.046 A 
ATOM     30  C   UNL     1       2.506  -0.983  23.656  0.00  0.00    +0.046 A 
ATOM     31  C   UNL     1       2.155  -0.082  22.649  0.00  0.00    +0.120 A 
BRANCH  31   9
ATOM      9  O   UNL     1       3.093   0.344  21.761  0.00  0.00    -0.495 OA
ATOM     38  C   UNL     1       4.363   0.726  22.289  0.00  0.00    +0.277 C 
ENDBRANCH  31   9
ENDBRANCH  22  25
BRANCH  23  12
ATOM     12  N   UNL     1      -3.191   4.078  23.712  0.00  0.00    -0.211 N 
ATOM     39  H   UNL     1      -2.720   4.498  22.898  0.00  0.00    +0.174 HD
BRANCH  12   1
ATOM      1  S   UNL     1      -2.683   4.682  25.210  0.00  0.00    +0.073 S 
ATOM      7  O   UNL     1      -2.272   6.065  25.065  0.00  0.00    -0.150 OA
ATOM      8  O   UNL     1      -3.639   4.308  26.236  0.00  0.00    -0.150 OA
BRANCH   1  28
ATOM     28  C   UNL     1      -1.221   3.722  25.475  0.00  0.00    +0.109 A 
ATOM     32  C   UNL     1      -0.850   3.401  26.768  0.00  0.00    +0.041 A 
ATOM     33  C   UNL     1      -0.479   3.310  24.382  0.00  0.00    +0.029 A 
ATOM     34  C   UNL     1       0.303   2.644  26.976  0.00  0.00    +0.057 A 
ATOM     35  C   UNL     1       0.674   2.553  24.591  0.00  0.00    +0.002 A 
ATOM     36  C   UNL     1       1.065   2.221  25.887  0.00  0.00    +0.012 A 
BRANCH  34  37
ATOM      2  F   UNL     1       0.023   2.953  29.331  0.00  0.00    -0.166 F 
ATOM      3  F   UNL     1       0.566   0.964  28.658  0.00  0.00    -0.166 F 
ATOM      4  F   UNL     1       2.036   2.566  28.602  0.00  0.00    -0.166 F 
ATOM     37  C   UNL     1       0.721   2.288  28.362  0.00  0.00    +0.417 C 
ENDBRANCH  34  37
ENDBRANCH   1  28
ENDBRANCH  12   1
ENDBRANCH  23  12
TORSDOF 6
ENDMDL
MODEL 2
REMARK VINA RESULT:       8.9      2.935      5.841
REMARK  Name = 7113909
REMARK  7 active torsions:
REMARK  status: ('A' for Active; 'I' for Inactive)
REMARK    1  A    between atoms: S_1  and  N_12
REMARK    2  A    between atoms: S_1  and  C_28
REMARK    3  A    between atoms: O_9  and  C_31
REMARK    4  A    between atoms: O_9  and  C_38
REMARK    5  A    between atoms: N_12  and  C_23
REMARK    6  A    between atoms: C_22  and  C_25
REMARK    7  A    between atoms: C_34  and  C_37
REMARK                            x       y       z     vdW  Elec       q    Type
REMARK                         _______ _______ _______ _____ _____    ______ ____
ROOT
ATOM      5  O   UNL     1      -3.253   0.637  22.196  0.00  0.00    -0.266 OA
ATOM      6  O   UNL     1      -0.566   4.604  24.167  0.00  0.00    -0.270 OA
ATOM     10  N   UNL     1      -2.658   4.575  25.214  0.00  0.00    -0.297 N 
ATOM     11  N   UNL     1      -3.998   1.989  23.959  0.00  0.00    -0.310 N 
ATOM     13  C   UNL     1      -4.603   4.459  23.665  0.00  0.00    +0.027 C 
ATOM     14  C   UNL     1      -4.749   3.420  25.892  0.00  0.00    +0.054 C 
ATOM     15  C   UNL     1      -5.527   4.228  24.855  0.00  0.00    +0.018 C 
ATOM     16  C   UNL     1      -3.346   5.232  24.103  0.00  0.00    +0.113 C 
ATOM     17  C   UNL     1      -4.257   3.103  23.037  0.00  0.00    +0.130 C 
ATOM     18  C   UNL     1      -3.518   4.225  26.356  0.00  0.00    +0.117 C 
ATOM     19  C   UNL     1      -4.303   2.086  25.324  0.00  0.00    +0.027 A 
ATOM     20  C   UNL     1      -4.165   1.018  26.131  0.00  0.00    +0.024 A 
ATOM     21  C   UNL     1      -3.523   0.790  23.386  0.00  0.00    +0.274 A 
ATOM     22  C   UNL     1      -1.289   4.313  25.118  0.00  0.00    +0.247 C 
ATOM     23  C   UNL     1      -3.369  -0.345  24.332  0.00  0.00    +0.112 A 
ATOM     24  C   UNL     1      -3.683  -0.237  25.623  0.00  0.00    +0.031 A 
ENDROOT
BRANCH  22  25
ATOM     25  C   UNL     1      -0.644   3.612  26.234  0.00  0.00    +0.037 A 
ATOM     26  C   UNL     1       0.742   3.480  26.260  0.00  0.00    +0.016 A 
ATOM     27  C   UNL     1      -1.421   3.083  27.261  0.00  0.00    +0.016 A 
ATOM     29  C   UNL     1       1.355   2.814  27.321  0.00  0.00    +0.046 A 
ATOM     30  C   UNL     1      -0.807   2.418  28.323  0.00  0.00    +0.046 A 
ATOM     31  C   UNL     1       0.581   2.282  28.352  0.00  0.00    +0.120 A 
BRANCH  31   9
ATOM      9  O   UNL     1       1.179   1.635  29.389  0.00  0.00    -0.495 OA
ATOM     38  C   UNL     1       2.323   2.259  29.971  0.00  0.00    +0.277 C 
ENDBRANCH  31   9
ENDBRANCH  22  25
BRANCH  23  12
ATOM     12  N   UNL     1      -2.890  -1.585  23.876  0.00  0.00    -0.211 N 
ATOM     39  H   UNL     1      -3.620  -2.311  23.855  0.00  0.00    +0.174 HD
BRANCH  12   1
ATOM      1  S   UNL     1      -1.398  -2.105  24.484  0.00  0.00    +0.073 S 
ATOM      7  O   UNL     1      -1.472  -2.227  25.927  0.00  0.00    -0.150 OA
ATOM      8  O   UNL     1      -0.902  -3.209  23.682  0.00  0.00    -0.150 OA
BRANCH   1  28
ATOM     28  C   UNL     1      -0.388  -0.698  24.124  0.00  0.00    +0.109 A 
ATOM     32  C   UNL     1       0.811  -0.880  23.458  0.00  0.00    +0.041 A 
ATOM     33  C   UNL     1      -0.818   0.558  24.516  0.00  0.00    +0.029 A 
ATOM     34  C   UNL     1       1.607   0.230  23.175  0.00  0.00    +0.057 A 
ATOM     35  C   UNL     1      -0.021   1.667  24.233  0.00  0.00    +0.002 A 
ATOM     36  C   UNL     1       1.191   1.503  23.563  0.00  0.00    +0.012 A 
BRANCH  34  37
ATOM      2  F   UNL     1       3.755   1.112  22.602  0.00  0.00    -0.166 F 
ATOM      3  F   UNL     1       3.614  -1.035  22.874  0.00  0.00    -0.166 F 
ATOM      4  F   UNL     1       2.741  -0.105  21.112  0.00  0.00    -0.166 F 
ATOM     37  C   UNL     1       2.903   0.054  22.458  0.00  0.00    +0.417 C 
ENDBRANCH  34  37
ENDBRANCH   1  28
ENDBRANCH  12   1
ENDBRANCH  23  12
TORSDOF 6
ENDMDL
MODEL 3
REMARK VINA RESULT:      11.3      1.792      2.720
REMARK  Name = 7113909
REMARK  7 active torsions:
REMARK  status: ('A' for Active; 'I' for Inactive)
REMARK    1  A    between atoms: S_1  and  N_12
REMARK    2  A    between atoms: S_1  and  C_28
REMARK    3  A    between atoms: O_9  and  C_31
REMARK    4  A    between atoms: O_9  and  C_38
REMARK    5  A    between atoms: N_12  and  C_23
REMARK    6  A    between atoms: C_22  and  C_25
REMARK    7  A    between atoms: C_34  and  C_37
REMARK                            x       y       z     vdW  Elec       q    Type
REMARK                         _______ _______ _______ _____ _____    ______ ____
ROOT
ATOM      5  O   UNL     1      -3.484   4.395  27.058  0.00  0.00    -0.266 OA
ATOM      6  O   UNL     1      -2.771  -0.736  27.000  0.00  0.00    -0.270 OA
ATOM     10  N   UNL     1      -4.357  -0.223  25.359  0.00  0.00    -0.297 N 
ATOM     11  N   UNL     1      -4.464   2.944  25.501  0.00  0.00    -0.310 N 
ATOM     13  C   UNL     1      -6.239   1.211  26.132  0.00  0.00    +0.027 C 
ATOM     14  C   UNL     1      -5.458   1.369  23.803  0.00  0.00    +0.054 C 
ATOM     15  C   UNL     1      -6.702   1.367  24.689  0.00  0.00    +0.018 C 
ATOM     16  C   UNL     1      -5.464  -0.108  26.308  0.00  0.00    +0.113 C 
ATOM     17  C   UNL     1      -5.394   2.432  26.516  0.00  0.00    +0.130 C 
ATOM     18  C   UNL     1      -4.716   0.026  23.953  0.00  0.00    +0.117 C 
ATOM     19  C   UNL     1      -4.527   2.510  24.169  0.00  0.00    +0.027 A 
ATOM     20  C   UNL     1      -3.744   3.073  23.230  0.00  0.00    +0.024 A 
ATOM     21  C   UNL     1      -3.576   3.961  25.911  0.00  0.00    +0.274 A 
ATOM     22  C   UNL     1      -3.077  -0.528  25.828  0.00  0.00    +0.247 C 
ATOM     23  C   UNL     1      -2.721   4.525  24.835  0.00  0.00    +0.112 A 
ATOM     24  C   UNL     1      -2.810   4.111  23.571  0.00  0.00    +0.031 A 
ENDROOT
BRANCH  22  25
ATOM     25  C   UNL     1      -1.984  -0.589  24.851  0.00  0.00    +0.037 A 
ATOM     26  C   UNL     1      -1.840   0.424  23.908  0.00  0.00    +0.016 A 
ATOM     27  C   UNL     1      -1.094  -1.661  24.873  0.00  0.00    +0.016 A 
ATOM     29  C   UNL     1      -0.800   0.366  22.979  0.00  0.00    +0.046 A 
ATOM     30  C   UNL     1      -0.055  -1.719  23.946  0.00  0.00    +0.046 A 
ATOM     31  C   UNL     1       0.092  -0.706  22.997  0.00  0.00    +0.120 A 
BRANCH  31   9
ATOM      9  O   UNL     1       1.108  -0.761  22.094  0.00  0.00    -0.495 OA
ATOM     38  C   UNL     1       2.279   0.001  22.385  0.00  0.00    +0.277 C 
ENDBRANCH  31   9
ENDBRANCH  22  25
BRANCH  23  12
ATOM     12  N   UNL     1      -1.788   5.534  25.129  0.00  0.00    -0.211 N 
ATOM     39  H   UNL     1      -2.098   6.466  24.820  0.00  0.00    +0.174 HD
BRANCH  12   1
ATOM      1  S   UNL     1      -0.159   5.193  24.815  0.00  0.00    +0.073 S 
ATOM      7  O   UNL     1      -0.016   4.699  23.459  0.00  0.00    -0.150 OA
ATOM      8  O   UNL     1       0.668   6.290  25.284  0.00  0.00    -0.150 OA
BRANCH   1  28
ATOM     28  C   UNL     1       0.108   3.827  25.907  0.00  0.00    +0.109 A 
ATOM     32  C   UNL     1       1.099   3.915  26.867  0.00  0.00    +0.041 A 
ATOM     33  C   UNL     1      -0.682   2.698  25.778  0.00  0.00    +0.029 A 
ATOM     34  C   UNL     1       1.309   2.837  27.727  0.00  0.00    +0.057 A 
ATOM     35  C   UNL     1      -0.471   1.621  26.638  0.00  0.00    +0.002 A 
ATOM     36  C   UNL     1       0.524   1.690  27.612  0.00  0.00    +0.012 A 
BRANCH  34  37
ATOM      2  F   UNL     1       3.514   2.236  28.436  0.00  0.00    -0.166 F 
ATOM      3  F   UNL     1       2.783   4.185  29.042  0.00  0.00    -0.166 F 
ATOM      4  F   UNL     1       1.975   2.389  29.966  0.00  0.00    -0.166 F 
ATOM     37  C   UNL     1       2.374   2.911  28.769  0.00  0.00    +0.417 C 
ENDBRANCH  34  37
ENDBRANCH   1  28
ENDBRANCH  12   1
ENDBRANCH  23  12
TORSDOF 6
ENDMDL
MODEL 4
REMARK VINA RESULT:      11.5      3.253      5.795
REMARK  Name = 7113909
REMARK  7 active torsions:
REMARK  status: ('A' for Active; 'I' for Inactive)
REMARK    1  A    between atoms: S_1  and  N_12
REMARK    2  A    between atoms: S_1  and  C_28
REMARK    3  A    between atoms: O_9  and  C_31
REMARK    4  A    between atoms: O_9  and  C_38
REMARK    5  A    between atoms: N_12  and  C_23
REMARK    6  A    between atoms: C_22  and  C_25
REMARK    7  A    between atoms: C_34  and  C_37
REMARK                            x       y       z     vdW  Elec       q    Type
REMARK                         _______ _______ _______ _____ _____    ______ ____
ROOT
ATOM      5  O   UNL     1      -4.772  -0.966  22.902  0.00  0.00    -0.266 OA
ATOM      6  O   UNL     1      -3.278   3.957  23.511  0.00  0.00    -0.270 OA
ATOM     10  N   UNL     1      -4.515   3.353  25.403  0.00  0.00    -0.297 N 
ATOM     11  N   UNL     1      -5.141   0.294  24.842  0.00  0.00    -0.310 N 
ATOM     13  C   UNL     1      -6.722   2.306  24.921  0.00  0.00    +0.027 C 
ATOM     14  C   UNL     1      -5.473   1.652  26.939  0.00  0.00    +0.054 C 
ATOM     15  C   UNL     1      -6.868   1.955  26.397  0.00  0.00    +0.018 C 
ATOM     16  C   UNL     1      -5.811   3.536  24.749  0.00  0.00    +0.113 C 
ATOM     17  C   UNL     1      -6.184   1.081  24.171  0.00  0.00    +0.130 C 
ATOM     18  C   UNL     1      -4.584   2.905  26.803  0.00  0.00    +0.117 C 
ATOM     19  C   UNL     1      -4.836   0.492  26.197  0.00  0.00    +0.027 A 
ATOM     20  C   UNL     1      -3.960  -0.313  26.824  0.00  0.00    +0.024 A 
ATOM     21  C   UNL     1      -4.536  -0.733  24.086  0.00  0.00    +0.274 A 
ATOM     22  C   UNL     1      -3.342   3.583  24.681  0.00  0.00    +0.247 C 
ATOM     23  C   UNL     1      -3.560  -1.571  24.827  0.00  0.00    +0.112 A 
ATOM     24  C   UNL     1      -3.298  -1.378  26.120  0.00  0.00    +0.031 A 
ENDROOT
BRANCH  22  25
ATOM     25  C   UNL     1      -2.061   3.345  25.357  0.00  0.00    +0.037 A 
ATOM     26  C   UNL     1      -1.870   2.174  26.085  0.00  0.00    +0.016 A 
ATOM     27  C   UNL     1      -1.043   4.291  25.267  0.00  0.00    +0.016 A 
ATOM     29  C   UNL     1      -0.652   1.947  26.727  0.00  0.00    +0.046 A 
ATOM     30  C   UNL     1       0.174   4.064  25.908  0.00  0.00    +0.046 A 
ATOM     31  C   UNL     1       0.369   2.892  26.640  0.00  0.00    +0.120 A 
BRANCH  31   9
ATOM      9  O   UNL     1       1.557   2.670  27.264  0.00  0.00    -0.495 OA
ATOM     38  C   UNL     1       1.548   2.649  28.691  0.00  0.00    +0.277 C 
ENDBRANCH  31   9
ENDBRANCH  22  25
BRANCH  23  12
ATOM     12  N   UNL     1      -2.884  -2.616  24.172  0.00  0.00    -0.211 N 
ATOM     39  H   UNL     1      -3.347  -3.528  24.293  0.00  0.00    +0.174 HD
BRANCH  12   1
ATOM      1  S   UNL     1      -1.198  -2.656  24.321  0.00  0.00    +0.073 S 
ATOM      7  O   UNL     1      -0.834  -2.796  25.718  0.00  0.00    -0.150 OA
ATOM      8  O   UNL     1      -0.642  -3.555  23.327  0.00  0.00    -0.150 OA
BRANCH   1  28
ATOM     28  C   UNL     1      -0.785  -1.007  23.830  0.00  0.00    +0.109 A 
ATOM     32  C   UNL     1      -1.684  -0.286  23.065  0.00  0.00    +0.041 A 
ATOM     33  C   UNL     1       0.429  -0.472  24.224  0.00  0.00    +0.029 A 
ATOM     34  C   UNL     1      -1.356   1.014  22.678  0.00  0.00    +0.057 A 
ATOM     35  C   UNL     1       0.755   0.828  23.837  0.00  0.00    +0.002 A 
ATOM     36  C   UNL     1      -0.137   1.570  23.064  0.00  0.00    +0.012 A 
BRANCH  34  37
ATOM      2  F   UNL     1      -1.945   3.115  21.697  0.00  0.00    -0.166 F 
ATOM      3  F   UNL     1      -2.465   1.329  20.582  0.00  0.00    -0.166 F 
ATOM      4  F   UNL     1      -3.566   1.840  22.386  0.00  0.00    -0.166 F 
ATOM     37  C   UNL     1      -2.311   1.808  21.852  0.00  0.00    +0.417 C 
ENDBRANCH  34  37
ENDBRANCH   1  28
ENDBRANCH  12   1
ENDBRANCH  23  12
TORSDOF 6
ENDMDL
MODEL 5
REMARK VINA RESULT:      11.7      3.263      5.900
REMARK  Name = 7113909
REMARK  7 active torsions:
REMARK  status: ('A' for Active; 'I' for Inactive)
REMARK    1  A    between atoms: S_1  and  N_12
REMARK    2  A    between atoms: S_1  and  C_28
REMARK    3  A    between atoms: O_9  and  C_31
REMARK    4  A    between atoms: O_9  and  C_38
REMARK    5  A    between atoms: N_12  and  C_23
REMARK    6  A    between atoms: C_22  and  C_25
REMARK    7  A    between atoms: C_34  and  C_37
REMARK                            x       y       z     vdW  Elec       q    Type
REMARK                         _______ _______ _______ _____ _____    ______ ____
ROOT
ATOM      5  O   UNL     1       0.395   0.167  22.421  0.00  0.00    -0.266 OA
ATOM      6  O   UNL     1      -4.595  -1.167  22.817  0.00  0.00    -0.270 OA
ATOM     10  N   UNL     1      -3.513  -1.883  24.764  0.00  0.00    -0.297 N 
ATOM     11  N   UNL     1      -0.565  -0.799  24.327  0.00  0.00    -0.310 N 
ATOM     13  C   UNL     1      -1.439  -3.205  24.384  0.00  0.00    +0.027 C 
ATOM     14  C   UNL     1      -1.635  -1.784  26.385  0.00  0.00    +0.054 C 
ATOM     15  C   UNL     1      -1.129  -3.132  25.875  0.00  0.00    +0.018 C 
ATOM     16  C   UNL     1      -2.955  -3.084  24.144  0.00  0.00    +0.113 C 
ATOM     17  C   UNL     1      -0.650  -2.105  23.661  0.00  0.00    +0.130 C 
ATOM     18  C   UNL     1      -3.161  -1.695  26.180  0.00  0.00    +0.117 C 
ATOM     19  C   UNL     1      -0.955  -0.635  25.664  0.00  0.00    +0.027 A 
ATOM     20  C   UNL     1      -0.764   0.539  26.292  0.00  0.00    +0.024 A 
ATOM     21  C   UNL     1       0.019   0.252  23.589  0.00  0.00    +0.274 A 
ATOM     22  C   UNL     1      -4.297  -1.015  24.000  0.00  0.00    +0.247 C 
ATOM     23  C   UNL     1       0.181   1.530  24.328  0.00  0.00    +0.112 A 
ATOM     24  C   UNL     1      -0.179   1.659  25.605  0.00  0.00    +0.031 A 
ENDROOT
BRANCH  22  25
ATOM     25  C   UNL     1      -4.802   0.202  24.645  0.00  0.00    +0.037 A 
ATOM     26  C   UNL     1      -3.926   1.033  25.337  0.00  0.00    +0.016 A 
ATOM     27  C   UNL     1      -6.156   0.520  24.562  0.00  0.00    +0.016 A 
ATOM     29  C   UNL     1      -4.407   2.191  25.950  0.00  0.00    +0.046 A 
ATOM     30  C   UNL     1      -6.635   1.678  25.173  0.00  0.00    +0.046 A 
ATOM     31  C   UNL     1      -5.761   2.513  25.869  0.00  0.00    +0.120 A 
BRANCH  31   9
ATOM      9  O   UNL     1      -6.229   3.644  26.464  0.00  0.00    -0.495 OA
ATOM     38  C   UNL     1      -6.431   4.782  25.628  0.00  0.00    +0.277 C 
ENDBRANCH  31   9
ENDBRANCH  22  25
BRANCH  23  12
ATOM     12  N   UNL     1       0.738   2.651  23.689  0.00  0.00    -0.211 N 
ATOM     39  H   UNL     1       1.690   2.477  23.337  0.00  0.00    +0.174 HD
BRANCH  12   1
ATOM      1  S   UNL     1       0.529   4.152  24.444  0.00  0.00    +0.073 S 
ATOM      7  O   UNL     1       0.880   4.046  25.847  0.00  0.00    -0.150 OA
ATOM      8  O   UNL     1       1.111   5.197  23.622  0.00  0.00    -0.150 OA
BRANCH   1  28
ATOM     28  C   UNL     1      -1.229   4.325  24.351  0.00  0.00    +0.109 A 
ATOM     32  C   UNL     1      -1.927   3.614  23.391  0.00  0.00    +0.041 A 
ATOM     33  C   UNL     1      -1.870   5.168  25.242  0.00  0.00    +0.029 A 
ATOM     34  C   UNL     1      -3.313   3.752  23.319  0.00  0.00    +0.057 A 
ATOM     35  C   UNL     1      -3.256   5.305  25.168  0.00  0.00    +0.002 A 
ATOM     36  C   UNL     1      -3.977   4.597  24.207  0.00  0.00    +0.012 A 
BRANCH  34  37
ATOM      2  F   UNL     1      -5.364   2.706  22.670  0.00  0.00    -0.166 F 
ATOM      3  F   UNL     1      -4.206   3.656  21.102  0.00  0.00    -0.166 F 
ATOM      4  F   UNL     1      -3.512   1.793  21.985  0.00  0.00    -0.166 F 
ATOM     37  C   UNL     1      -4.084   2.995  22.291  0.00  0.00    +0.417 C 
ENDBRANCH  34  37
ENDBRANCH   1  28
ENDBRANCH  12   1
ENDBRANCH  23  12
TORSDOF 6
ENDMDL
