MODEL 1
REMARK VINA RESULT:      -0.5      0.000      0.000
REMARK  Name = 38026875
REMARK  11 active torsions:
REMARK  status: ('A' for Active; 'I' for Inactive)
REMARK    1  A    between atoms: N_5  and  C_16
REMARK    2  A    between atoms: N_7  and  C_28
REMARK    3  A    between atoms: C_8  and  C_12
REMARK    4  A    between atoms: C_9  and  C_16
REMARK    5  A    between atoms: C_11  and  C_15
REMARK    6  A    between atoms: C_12  and  C_17
REMARK    7  A    between atoms: C_12  and  C_18
REMARK    8  A    between atoms: C_13  and  C_19
REMARK    9  A    between atoms: C_15  and  C_20
REMARK   10  A    between atoms: C_26  and  C_27
REMARK   11  A    between atoms: C_28  and  C_29
REMARK                            x       y       z     vdW  Elec       q    Type
REMARK                         _______ _______ _______ _____ _____    ______ ____
ROOT
ATOM      8  C   UNL     1      -1.371   1.110  25.041  0.00  0.00    +0.000 C 
ATOM      9  C   UNL     1      -0.053   0.431  24.591  0.00  0.00    +0.032 C 
ATOM     10  C   UNL     1      -2.153   0.187  25.988  0.00  0.00    +0.012 C 
ATOM     11  C   UNL     1      -2.499  -1.163  25.332  0.00  0.00    +0.023 C 
ATOM     13  C   UNL     1      -1.301  -1.772  24.631  0.00  0.00    -0.073 C 
ATOM     14  C   UNL     1      -0.211  -1.046  24.319  0.00  0.00    -0.022 C 
ATOM     19  C   UNL     1      -1.366  -3.244  24.335  0.00  0.00    +0.039 C 
ENDROOT
BRANCH   8  12
ATOM     12  C   UNL     1      -1.113   2.457  25.724  0.00  0.00    -0.013 C 
ATOM     17  C   UNL     1       0.132   2.379  26.602  0.00  0.00    +0.007 C 
ATOM     18  C   UNL     1      -0.973   3.563  24.683  0.00  0.00    +0.007 C 
ENDBRANCH   8  12
BRANCH  11  15
ATOM     15  C   UNL     1      -3.685  -1.023  24.371  0.00  0.00    +0.103 C 
BRANCH  15  20
ATOM      1  O   UNL     1      -2.735   0.317  22.663  0.00  0.00    -0.276 OA
ATOM      3  O   UNL     1      -6.930   4.648  26.500  0.00  0.00    -0.276 OA
ATOM      4  N   UNL     1      -4.393   1.305  23.954  0.00  0.00    -0.298 N 
ATOM      6  N   UNL     1      -5.227   3.682  25.252  0.00  0.00    -0.299 N 
ATOM     20  C   UNL     1      -3.556   0.255  23.581  0.00  0.00    +0.216 C 
ATOM     21  C   UNL     1      -4.328   2.583  23.239  0.00  0.00    +0.126 C 
ATOM     22  C   UNL     1      -5.431   1.239  24.991  0.00  0.00    +0.126 C 
ATOM     23  C   UNL     1      -4.189   3.747  24.215  0.00  0.00    +0.126 C 
ATOM     24  C   UNL     1      -5.292   2.405  25.968  0.00  0.00    +0.126 C 
ATOM     26  C   UNL     1      -6.065   4.731  25.625  0.00  0.00    +0.213 C 
ATOM     27  C   UNL     1      -5.882   6.035  24.889  0.00  0.00    +0.109 C 
ENDBRANCH  15  20
ENDBRANCH  11  15
BRANCH   9  16
ATOM     16  C   UNL     1       0.528   1.118  23.350  0.00  0.00    +0.113 C 
BRANCH  16   5
ATOM      2  O   UNL     1       2.694  -0.626  22.581  0.00  0.00    -0.253 OA
ATOM      5  N   UNL     1       1.927   1.360  23.511  0.00  0.00    -0.299 N 
ATOM      7  N   UNL     1       4.199   0.946  23.385  0.00  0.00    -0.300 N 
ATOM     25  C   UNL     1       2.923   0.460  23.111  0.00  0.00    +0.300 C 
ATOM     30  H   UNL     1       2.224   2.260  23.875  0.00  0.00    +0.150 HD
ATOM     31  H   UNL     1       4.290   1.850  23.839  0.00  0.00    +0.150 HD
BRANCH   7  28
ATOM     28  C   UNL     1       5.401   0.210  23.070  0.00  0.00    +0.102 C 
ATOM     29  C   UNL     1       5.788  -0.726  24.195  0.00  0.00    +0.024 C 
ENDBRANCH   7  28
ENDBRANCH  16   5
ENDBRANCH   9  16
TORSDOF 6
ENDMDL
MODEL 2
REMARK VINA RESULT:      -0.5      1.921      4.903
REMARK  Name = 38026875
REMARK  11 active torsions:
REMARK  status: ('A' for Active; 'I' for Inactive)
REMARK    1  A    between atoms: N_5  and  C_16
REMARK    2  A    between atoms: N_7  and  C_28
REMARK    3  A    between atoms: C_8  and  C_12
REMARK    4  A    between atoms: C_9  and  C_16
REMARK    5  A    between atoms: C_11  and  C_15
REMARK    6  A    between atoms: C_12  and  C_17
REMARK    7  A    between atoms: C_12  and  C_18
REMARK    8  A    between atoms: C_13  and  C_19
REMARK    9  A    between atoms: C_15  and  C_20
REMARK   10  A    between atoms: C_26  and  C_27
REMARK   11  A    between atoms: C_28  and  C_29
REMARK                            x       y       z     vdW  Elec       q    Type
REMARK                         _______ _______ _______ _____ _____    ______ ____
ROOT
ATOM      8  C   UNL     1      -2.559   2.517  23.964  0.00  0.00    +0.000 C 
ATOM      9  C   UNL     1      -1.340   3.010  24.783  0.00  0.00    +0.032 C 
ATOM     10  C   UNL     1      -3.711   3.530  24.055  0.00  0.00    +0.012 C 
ATOM     11  C   UNL     1      -4.164   3.769  25.508  0.00  0.00    +0.023 C 
ATOM     13  C   UNL     1      -2.986   3.999  26.434  0.00  0.00    -0.073 C 
ATOM     14  C   UNL     1      -1.729   3.665  26.087  0.00  0.00    -0.022 C 
ATOM     19  C   UNL     1      -3.279   4.663  27.750  0.00  0.00    +0.039 C 
ENDROOT
BRANCH   8  12
ATOM     12  C   UNL     1      -2.198   2.272  22.496  0.00  0.00    -0.013 C 
ATOM     17  C   UNL     1      -1.871   0.800  22.266  0.00  0.00    +0.007 C 
ATOM     18  C   UNL     1      -3.337   2.723  21.587  0.00  0.00    +0.007 C 
ENDBRANCH   8  12
BRANCH  11  15
ATOM     15  C   UNL     1      -5.040   2.617  26.011  0.00  0.00    +0.103 C 
BRANCH  15  20
ATOM      1  O   UNL     1      -6.352   1.800  24.215  0.00  0.00    -0.276 OA
ATOM      3  O   UNL     1      -1.167  -3.010  25.254  0.00  0.00    -0.276 OA
ATOM      4  N   UNL     1      -4.385   0.651  24.669  0.00  0.00    -0.298 N 
ATOM      6  N   UNL     1      -3.166  -1.901  24.842  0.00  0.00    -0.299 N 
ATOM     20  C   UNL     1      -5.324   1.658  24.883  0.00  0.00    +0.216 C 
ATOM     21  C   UNL     1      -4.589  -0.324  23.594  0.00  0.00    +0.126 C 
ATOM     22  C   UNL     1      -3.118   0.501  25.397  0.00  0.00    +0.126 C 
ATOM     23  C   UNL     1      -4.433  -1.750  24.114  0.00  0.00    +0.126 C 
ATOM     24  C   UNL     1      -2.962  -0.926  25.917  0.00  0.00    +0.126 C 
ATOM     26  C   UNL     1      -2.225  -2.907  24.627  0.00  0.00    +0.213 C 
ATOM     27  C   UNL     1      -2.548  -3.914  23.552  0.00  0.00    +0.109 C 
ENDBRANCH  15  20
ENDBRANCH  11  15
BRANCH   9  16
ATOM     16  C   UNL     1      -0.360   1.864  25.061  0.00  0.00    +0.113 C 
BRANCH  16   5
ATOM      2  O   UNL     1       1.180  -0.114  23.631  0.00  0.00    -0.253 OA
ATOM      5  N   UNL     1       0.871   2.069  24.365  0.00  0.00    -0.299 N 
ATOM      7  N   UNL     1       2.730   1.528  23.101  0.00  0.00    -0.300 N 
ATOM     25  C   UNL     1       1.562   1.053  23.692  0.00  0.00    +0.300 C 
ATOM     30  H   UNL     1       1.237   3.014  24.295  0.00  0.00    +0.150 HD
ATOM     31  H   UNL     1       2.973   2.507  23.216  0.00  0.00    +0.150 HD
BRANCH   7  28
ATOM     28  C   UNL     1       3.625   0.681  22.346  0.00  0.00    +0.102 C 
ATOM     29  C   UNL     1       4.873   0.350  23.137  0.00  0.00    +0.024 C 
ENDBRANCH   7  28
ENDBRANCH  16   5
ENDBRANCH   9  16
TORSDOF 6
ENDMDL
MODEL 3
REMARK VINA RESULT:      -0.1      1.767      2.372
REMARK  Name = 38026875
REMARK  11 active torsions:
REMARK  status: ('A' for Active; 'I' for Inactive)
REMARK    1  A    between atoms: N_5  and  C_16
REMARK    2  A    between atoms: N_7  and  C_28
REMARK    3  A    between atoms: C_8  and  C_12
REMARK    4  A    between atoms: C_9  and  C_16
REMARK    5  A    between atoms: C_11  and  C_15
REMARK    6  A    between atoms: C_12  and  C_17
REMARK    7  A    between atoms: C_12  and  C_18
REMARK    8  A    between atoms: C_13  and  C_19
REMARK    9  A    between atoms: C_15  and  C_20
REMARK   10  A    between atoms: C_26  and  C_27
REMARK   11  A    between atoms: C_28  and  C_29
REMARK                            x       y       z     vdW  Elec       q    Type
REMARK                         _______ _______ _______ _____ _____    ______ ____
ROOT
ATOM      8  C   UNL     1      -1.558  -0.472  25.255  0.00  0.00    +0.000 C 
ATOM      9  C   UNL     1      -0.991  -1.601  24.358  0.00  0.00    +0.032 C 
ATOM     10  C   UNL     1      -2.676  -1.015  26.159  0.00  0.00    +0.012 C 
ATOM     11  C   UNL     1      -3.836  -1.624  25.348  0.00  0.00    +0.023 C 
ATOM     13  C   UNL     1      -3.336  -2.551  24.259  0.00  0.00    -0.073 C 
ATOM     14  C   UNL     1      -2.058  -2.536  23.838  0.00  0.00    -0.022 C 
ATOM     19  C   UNL     1      -4.328  -3.529  23.694  0.00  0.00    +0.039 C 
ENDROOT
BRANCH   8  12
ATOM     12  C   UNL     1      -0.467   0.176  26.113  0.00  0.00    -0.013 C 
ATOM     17  C   UNL     1      -0.526   1.695  25.991  0.00  0.00    +0.007 C 
ATOM     18  C   UNL     1      -0.608  -0.257  27.568  0.00  0.00    +0.007 C 
ENDBRANCH   8  12
BRANCH  11  15
ATOM     15  C   UNL     1      -4.738  -0.530  24.766  0.00  0.00    +0.103 C 
BRANCH  15  20
ATOM      1  O   UNL     1      -3.605  -0.287  22.700  0.00  0.00    -0.276 OA
ATOM      3  O   UNL     1      -2.553   5.807  26.284  0.00  0.00    -0.276 OA
ATOM      4  N   UNL     1      -3.740   1.608  24.037  0.00  0.00    -0.298 N 
ATOM      6  N   UNL     1      -2.361   3.897  24.977  0.00  0.00    -0.299 N 
ATOM     20  C   UNL     1      -3.978   0.267  23.737  0.00  0.00    +0.216 C 
ATOM     21  C   UNL     1      -3.005   2.450  23.090  0.00  0.00    +0.126 C 
ATOM     22  C   UNL     1      -4.234   2.314  25.226  0.00  0.00    +0.126 C 
ATOM     23  C   UNL     1      -1.867   3.190  23.788  0.00  0.00    +0.126 C 
ATOM     24  C   UNL     1      -3.096   3.054  25.925  0.00  0.00    +0.126 C 
ATOM     26  C   UNL     1      -2.125   5.238  25.277  0.00  0.00    +0.213 C 
ATOM     27  C   UNL     1      -1.296   6.014  24.286  0.00  0.00    +0.109 C 
ENDBRANCH  15  20
ENDBRANCH  11  15
BRANCH   9  16
ATOM     16  C   UNL     1      -0.198  -1.026  23.179  0.00  0.00    +0.113 C 
BRANCH  16   5
ATOM      2  O   UNL     1       2.043  -0.231  21.544  0.00  0.00    -0.253 OA
ATOM      5  N   UNL     1       1.035  -0.458  23.625  0.00  0.00    -0.299 N 
ATOM      7  N   UNL     1       3.163   0.432  23.464  0.00  0.00    -0.300 N 
ATOM     25  C   UNL     1       2.080  -0.097  22.766  0.00  0.00    +0.300 C 
ATOM     30  H   UNL     1       1.139  -0.241  24.612  0.00  0.00    +0.150 HD
ATOM     31  H   UNL     1       3.109   0.492  24.477  0.00  0.00    +0.150 HD
BRANCH   7  28
ATOM     28  C   UNL     1       4.371   0.882  22.812  0.00  0.00    +0.102 C 
ATOM     29  C   UNL     1       5.592   0.172  23.356  0.00  0.00    +0.024 C 
ENDBRANCH   7  28
ENDBRANCH  16   5
ENDBRANCH   9  16
TORSDOF 6
ENDMDL
MODEL 4
REMARK VINA RESULT:       1.4      2.333      4.625
REMARK  Name = 38026875
REMARK  11 active torsions:
REMARK  status: ('A' for Active; 'I' for Inactive)
REMARK    1  A    between atoms: N_5  and  C_16
REMARK    2  A    between atoms: N_7  and  C_28
REMARK    3  A    between atoms: C_8  and  C_12
REMARK    4  A    between atoms: C_9  and  C_16
REMARK    5  A    between atoms: C_11  and  C_15
REMARK    6  A    between atoms: C_12  and  C_17
REMARK    7  A    between atoms: C_12  and  C_18
REMARK    8  A    between atoms: C_13  and  C_19
REMARK    9  A    between atoms: C_15  and  C_20
REMARK   10  A    between atoms: C_26  and  C_27
REMARK   11  A    between atoms: C_28  and  C_29
REMARK                            x       y       z     vdW  Elec       q    Type
REMARK                         _______ _______ _______ _____ _____    ______ ____
ROOT
ATOM      8  C   UNL     1      -3.282  -0.100  24.977  0.00  0.00    +0.000 C 
ATOM      9  C   UNL     1      -2.060  -0.213  24.031  0.00  0.00    +0.032 C 
ATOM     10  C   UNL     1      -4.518   0.377  24.199  0.00  0.00    +0.012 C 
ATOM     11  C   UNL     1      -4.293   1.745  23.527  0.00  0.00    +0.023 C 
ATOM     13  C   UNL     1      -2.969   1.799  22.792  0.00  0.00    -0.073 C 
ATOM     14  C   UNL     1      -1.987   0.908  23.021  0.00  0.00    -0.022 C 
ATOM     19  C   UNL     1      -2.814   2.875  21.754  0.00  0.00    +0.039 C 
ENDROOT
BRANCH   8  12
ATOM     12  C   UNL     1      -3.588  -1.429  25.674  0.00  0.00    -0.013 C 
ATOM     17  C   UNL     1      -3.333  -2.597  24.728  0.00  0.00    +0.007 C 
ATOM     18  C   UNL     1      -2.755  -1.567  26.944  0.00  0.00    +0.007 C 
ENDBRANCH   8  12
BRANCH  11  15
ATOM     15  C   UNL     1      -4.402   2.886  24.545  0.00  0.00    +0.103 C 
BRANCH  15  20
ATOM      1  O   UNL     1      -3.087   4.550  23.490  0.00  0.00    -0.276 OA
ATOM      3  O   UNL     1       0.888   1.950  28.831  0.00  0.00    -0.276 OA
ATOM      4  N   UNL     1      -2.248   3.665  25.466  0.00  0.00    -0.298 N 
ATOM      6  N   UNL     1       0.081   2.789  26.821  0.00  0.00    -0.299 N 
ATOM     20  C   UNL     1      -3.191   3.778  24.446  0.00  0.00    +0.216 C 
ATOM     21  C   UNL     1      -1.040   4.494  25.442  0.00  0.00    +0.126 C 
ATOM     22  C   UNL     1      -2.378   2.811  26.654  0.00  0.00    +0.126 C 
ATOM     23  C   UNL     1       0.211   3.642  25.633  0.00  0.00    +0.126 C 
ATOM     24  C   UNL     1      -1.126   1.958  26.845  0.00  0.00    +0.126 C 
ATOM     26  C   UNL     1       1.023   2.675  27.842  0.00  0.00    +0.213 C 
ATOM     27  C   UNL     1       2.272   3.508  27.703  0.00  0.00    +0.109 C 
ENDBRANCH  15  20
ENDBRANCH  11  15
BRANCH   9  16
ATOM     16  C   UNL     1      -0.750  -0.269  24.825  0.00  0.00    +0.113 C 
BRANCH  16   5
ATOM      2  O   UNL     1       1.341   1.528  23.974  0.00  0.00    -0.253 OA
ATOM      5  N   UNL     1       0.352  -0.574  23.967  0.00  0.00    -0.299 N 
ATOM      7  N   UNL     1       2.286  -0.205  22.756  0.00  0.00    -0.300 N 
ATOM     25  C   UNL     1       1.330   0.358  23.598  0.00  0.00    +0.300 C 
ATOM     30  H   UNL     1       0.473  -1.533  23.657  0.00  0.00    +0.150 HD
ATOM     31  H   UNL     1       2.187  -1.179  22.486  0.00  0.00    +0.150 HD
BRANCH   7  28
ATOM     28  C   UNL     1       3.405   0.544  22.231  0.00  0.00    +0.102 C 
ATOM     29  C   UNL     1       4.606   0.462  23.148  0.00  0.00    +0.024 C 
ENDBRANCH   7  28
ENDBRANCH  16   5
ENDBRANCH   9  16
TORSDOF 6
ENDMDL
MODEL 5
REMARK VINA RESULT:       2.2      1.993      3.842
REMARK  Name = 38026875
REMARK  11 active torsions:
REMARK  status: ('A' for Active; 'I' for Inactive)
REMARK    1  A    between atoms: N_5  and  C_16
REMARK    2  A    between atoms: N_7  and  C_28
REMARK    3  A    between atoms: C_8  and  C_12
REMARK    4  A    between atoms: C_9  and  C_16
REMARK    5  A    between atoms: C_11  and  C_15
REMARK    6  A    between atoms: C_12  and  C_17
REMARK    7  A    between atoms: C_12  and  C_18
REMARK    8  A    between atoms: C_13  and  C_19
REMARK    9  A    between atoms: C_15  and  C_20
REMARK   10  A    between atoms: C_26  and  C_27
REMARK   11  A    between atoms: C_28  and  C_29
REMARK                            x       y       z     vdW  Elec       q    Type
REMARK                         _______ _______ _______ _____ _____    ______ ____
ROOT
ATOM      8  C   UNL     1      -2.682  -1.434  24.825  0.00  0.00    +0.000 C 
ATOM      9  C   UNL     1      -1.756  -0.596  23.908  0.00  0.00    +0.032 C 
ATOM     10  C   UNL     1      -4.108  -1.473  24.254  0.00  0.00    +0.012 C 
ATOM     11  C   UNL     1      -4.714  -0.064  24.105  0.00  0.00    +0.023 C 
ATOM     13  C   UNL     1      -3.747   0.898  23.445  0.00  0.00    -0.073 C 
ATOM     14  C   UNL     1      -2.430   0.637  23.355  0.00  0.00    -0.022 C 
ATOM     19  C   UNL     1      -4.334   2.147  22.850  0.00  0.00    +0.039 C 
ENDROOT
BRANCH   8  12
ATOM     12  C   UNL     1      -2.159  -2.862  25.010  0.00  0.00    -0.013 C 
ATOM     17  C   UNL     1      -3.319  -3.831  25.217  0.00  0.00    +0.007 C 
ATOM     18  C   UNL     1      -1.313  -3.278  23.811  0.00  0.00    +0.007 C 
ENDBRANCH   8  12
BRANCH  11  15
ATOM     15  C   UNL     1      -5.191   0.479  25.457  0.00  0.00    +0.103 C 
BRANCH  15  20
ATOM      1  O   UNL     1      -6.675   2.286  25.078  0.00  0.00    -0.276 OA
ATOM      3  O   UNL     1      -0.114   5.111  25.355  0.00  0.00    -0.276 OA
ATOM      4  N   UNL     1      -4.461   2.837  25.519  0.00  0.00    -0.298 N 
ATOM      6  N   UNL     1      -2.313   4.558  24.849  0.00  0.00    -0.299 N 
ATOM     20  C   UNL     1      -5.517   1.946  25.334  0.00  0.00    +0.216 C 
ATOM     21  C   UNL     1      -4.695   4.280  25.412  0.00  0.00    +0.126 C 
ATOM     22  C   UNL     1      -3.092   2.467  25.897  0.00  0.00    +0.126 C 
ATOM     23  C   UNL     1      -3.683   4.928  24.471  0.00  0.00    +0.126 C 
ATOM     24  C   UNL     1      -2.079   3.115  24.956  0.00  0.00    +0.126 C 
ATOM     26  C   UNL     1      -1.257   5.449  25.036  0.00  0.00    +0.213 C 
ATOM     27  C   UNL     1      -1.565   6.911  24.833  0.00  0.00    +0.109 C 
ENDBRANCH  15  20
ENDBRANCH  11  15
BRANCH   9  16
ATOM     16  C   UNL     1      -0.472  -0.190  24.642  0.00  0.00    +0.113 C 
BRANCH  16   5
ATOM      2  O   UNL     1       1.628   1.645  23.902  0.00  0.00    -0.253 OA
ATOM      5  N   UNL     1       0.680  -0.475  23.846  0.00  0.00    -0.299 N 
ATOM      7  N   UNL     1       2.671  -0.071  22.741  0.00  0.00    -0.300 N 
ATOM     25  C   UNL     1       1.660   0.474  23.529  0.00  0.00    +0.300 C 
ATOM     30  H   UNL     1       0.836  -1.433  23.545  0.00  0.00    +0.150 HD
ATOM     31  H   UNL     1       2.604  -1.048  22.468  0.00  0.00    +0.150 HD
BRANCH   7  28
ATOM     28  C   UNL     1       3.802   0.697  22.276  0.00  0.00    +0.102 C 
ATOM     29  C   UNL     1       5.005   0.512  23.177  0.00  0.00    +0.024 C 
ENDBRANCH   7  28
ENDBRANCH  16   5
ENDBRANCH   9  16
TORSDOF 6
ENDMDL
MODEL 6
REMARK VINA RESULT:       2.7      1.982      6.923
REMARK  Name = 38026875
REMARK  11 active torsions:
REMARK  status: ('A' for Active; 'I' for Inactive)
REMARK    1  A    between atoms: N_5  and  C_16
REMARK    2  A    between atoms: N_7  and  C_28
REMARK    3  A    between atoms: C_8  and  C_12
REMARK    4  A    between atoms: C_9  and  C_16
REMARK    5  A    between atoms: C_11  and  C_15
REMARK    6  A    between atoms: C_12  and  C_17
REMARK    7  A    between atoms: C_12  and  C_18
REMARK    8  A    between atoms: C_13  and  C_19
REMARK    9  A    between atoms: C_15  and  C_20
REMARK   10  A    between atoms: C_26  and  C_27
REMARK   11  A    between atoms: C_28  and  C_29
REMARK                            x       y       z     vdW  Elec       q    Type
REMARK                         _______ _______ _______ _____ _____    ______ ____
ROOT
ATOM      8  C   UNL     1      -4.032   3.268  25.727  0.00  0.00    +0.000 C 
ATOM      9  C   UNL     1      -4.050   3.680  24.233  0.00  0.00    +0.032 C 
ATOM     10  C   UNL     1      -3.139   4.221  26.535  0.00  0.00    +0.012 C 
ATOM     11  C   UNL     1      -1.688   4.240  26.017  0.00  0.00    +0.023 C 
ATOM     13  C   UNL     1      -1.631   4.376  24.508  0.00  0.00    -0.073 C 
ATOM     14  C   UNL     1      -2.701   4.134  23.729  0.00  0.00    -0.022 C 
ATOM     19  C   UNL     1      -0.329   4.839  23.919  0.00  0.00    +0.039 C 
ENDROOT
BRANCH   8  12
ATOM     12  C   UNL     1      -5.441   3.243  26.328  0.00  0.00    -0.013 C 
ATOM     17  C   UNL     1      -6.317   4.308  25.676  0.00  0.00    +0.007 C 
ATOM     18  C   UNL     1      -6.062   1.859  26.169  0.00  0.00    +0.007 C 
ENDBRANCH   8  12
BRANCH  11  15
ATOM     15  C   UNL     1      -0.917   3.002  26.486  0.00  0.00    +0.103 C 
BRANCH  15  20
ATOM      1  O   UNL     1      -2.275   1.161  25.869  0.00  0.00    -0.276 OA
ATOM      3  O   UNL     1       3.587   0.773  21.797  0.00  0.00    -0.276 OA
ATOM      4  N   UNL     1      -0.396   1.549  24.559  0.00  0.00    -0.298 N 
ATOM      6  N   UNL     1       1.745   0.346  23.146  0.00  0.00    -0.299 N 
ATOM     20  C   UNL     1      -1.264   1.821  25.615  0.00  0.00    +0.216 C 
ATOM     21  C   UNL     1      -0.662   0.416  23.668  0.00  0.00    +0.126 C 
ATOM     22  C   UNL     1       0.771   2.358  24.186  0.00  0.00    +0.126 C 
ATOM     23  C   UNL     1       0.577  -0.463  23.519  0.00  0.00    +0.126 C 
ATOM     24  C   UNL     1       2.011   1.479  24.038  0.00  0.00    +0.126 C 
ATOM     26  C   UNL     1       2.612   0.075  22.089  0.00  0.00    +0.213 C 
ATOM     27  C   UNL     1       2.310  -1.152  21.267  0.00  0.00    +0.109 C 
ENDBRANCH  15  20
ENDBRANCH  11  15
BRANCH   9  16
ATOM     16  C   UNL     1      -4.568   2.538  23.351  0.00  0.00    +0.113 C 
BRANCH  16   5
ATOM      2  O   UNL     1      -5.371  -0.085  24.245  0.00  0.00    -0.253 OA
ATOM      5  N   UNL     1      -3.739   1.381  23.480  0.00  0.00    -0.299 N 
ATOM      7  N   UNL     1      -3.188  -0.814  23.954  0.00  0.00    -0.300 N 
ATOM     25  C   UNL     1      -4.205   0.137  23.924  0.00  0.00    +0.300 C 
ATOM     30  H   UNL     1      -2.773   1.440  23.173  0.00  0.00    +0.150 HD
ATOM     31  H   UNL     1      -2.250  -0.535  23.684  0.00  0.00    +0.150 HD
BRANCH   7  28
ATOM     28  C   UNL     1      -3.406  -2.179  24.375  0.00  0.00    +0.102 C 
ATOM     29  C   UNL     1      -2.096  -2.896  24.627  0.00  0.00    +0.024 C 
ENDBRANCH   7  28
ENDBRANCH  16   5
ENDBRANCH   9  16
TORSDOF 6
ENDMDL
MODEL 7
REMARK VINA RESULT:       2.7      1.903      4.811
REMARK  Name = 38026875
REMARK  11 active torsions:
REMARK  status: ('A' for Active; 'I' for Inactive)
REMARK    1  A    between atoms: N_5  and  C_16
REMARK    2  A    between atoms: N_7  and  C_28
REMARK    3  A    between atoms: C_8  and  C_12
REMARK    4  A    between atoms: C_9  and  C_16
REMARK    5  A    between atoms: C_11  and  C_15
REMARK    6  A    between atoms: C_12  and  C_17
REMARK    7  A    between atoms: C_12  and  C_18
REMARK    8  A    between atoms: C_13  and  C_19
REMARK    9  A    between atoms: C_15  and  C_20
REMARK   10  A    between atoms: C_26  and  C_27
REMARK   11  A    between atoms: C_28  and  C_29
REMARK                            x       y       z     vdW  Elec       q    Type
REMARK                         _______ _______ _______ _____ _____    ______ ____
ROOT
ATOM      8  C   UNL     1      -2.315   2.186  23.255  0.00  0.00    +0.000 C 
ATOM      9  C   UNL     1      -0.906   2.757  23.551  0.00  0.00    +0.032 C 
ATOM     10  C   UNL     1      -3.299   3.324  22.941  0.00  0.00    +0.012 C 
ATOM     11  C   UNL     1      -3.414   4.332  24.100  0.00  0.00    +0.023 C 
ATOM     13  C   UNL     1      -2.053   4.741  24.628  0.00  0.00    -0.073 C 
ATOM     14  C   UNL     1      -0.942   4.031  24.361  0.00  0.00    -0.022 C 
ATOM     19  C   UNL     1      -1.992   6.009  25.432  0.00  0.00    +0.039 C 
ENDROOT
BRANCH   8  12
ATOM     12  C   UNL     1      -2.293   1.185  22.096  0.00  0.00    -0.013 C 
ATOM     17  C   UNL     1      -2.290   1.918  20.759  0.00  0.00    +0.007 C 
ATOM     18  C   UNL     1      -1.082   0.265  22.213  0.00  0.00    +0.007 C 
ENDBRANCH   8  12
BRANCH  11  15
ATOM     15  C   UNL     1      -4.297   3.782  25.226  0.00  0.00    +0.103 C 
BRANCH  15  20
ATOM      1  O   UNL     1      -2.701   3.045  26.814  0.00  0.00    -0.276 OA
ATOM      3  O   UNL     1      -4.954  -2.806  23.382  0.00  0.00    -0.276 OA
ATOM      4  N   UNL     1      -3.883   1.392  25.689  0.00  0.00    -0.298 N 
ATOM      6  N   UNL     1      -3.726  -1.155  24.459  0.00  0.00    -0.299 N 
ATOM     20  C   UNL     1      -3.552   2.714  25.985  0.00  0.00    +0.216 C 
ATOM     21  C   UNL     1      -3.202   0.295  26.381  0.00  0.00    +0.126 C 
ATOM     22  C   UNL     1      -4.942   0.968  24.764  0.00  0.00    +0.126 C 
ATOM     23  C   UNL     1      -2.667  -0.730  25.384  0.00  0.00    +0.126 C 
ATOM     24  C   UNL     1      -4.407  -0.057  23.766  0.00  0.00    +0.126 C 
ATOM     26  C   UNL     1      -4.058  -2.476  24.163  0.00  0.00    +0.213 C 
ATOM     27  C   UNL     1      -3.258  -3.546  24.863  0.00  0.00    +0.109 C 
ENDBRANCH  15  20
ENDBRANCH  11  15
BRANCH   9  16
ATOM     16  C   UNL     1      -0.029   1.722  24.267  0.00  0.00    +0.113 C 
BRANCH  16   5
ATOM      2  O   UNL     1       1.726  -0.271  23.137  0.00  0.00    -0.253 OA
ATOM      5  N   UNL     1       1.344   1.887  23.910  0.00  0.00    -0.299 N 
ATOM      7  N   UNL     1       3.433   1.299  23.111  0.00  0.00    -0.300 N 
ATOM     25  C   UNL     1       2.134   0.867  23.364  0.00  0.00    +0.300 C 
ATOM     30  H   UNL     1       1.759   2.810  23.993  0.00  0.00    +0.150 HD
ATOM     31  H   UNL     1       3.685   2.255  23.345  0.00  0.00    +0.150 HD
BRANCH   7  28
ATOM     28  C   UNL     1       4.448   0.439  22.547  0.00  0.00    +0.102 C 
ATOM     29  C   UNL     1       5.468   0.030  23.589  0.00  0.00    +0.024 C 
ENDBRANCH   7  28
ENDBRANCH  16   5
ENDBRANCH   9  16
TORSDOF 6
ENDMDL
MODEL 8
REMARK VINA RESULT:       3.2      2.392      6.626
REMARK  Name = 38026875
REMARK  11 active torsions:
REMARK  status: ('A' for Active; 'I' for Inactive)
REMARK    1  A    between atoms: N_5  and  C_16
REMARK    2  A    between atoms: N_7  and  C_28
REMARK    3  A    between atoms: C_8  and  C_12
REMARK    4  A    between atoms: C_9  and  C_16
REMARK    5  A    between atoms: C_11  and  C_15
REMARK    6  A    between atoms: C_12  and  C_17
REMARK    7  A    between atoms: C_12  and  C_18
REMARK    8  A    between atoms: C_13  and  C_19
REMARK    9  A    between atoms: C_15  and  C_20
REMARK   10  A    between atoms: C_26  and  C_27
REMARK   11  A    between atoms: C_28  and  C_29
REMARK                            x       y       z     vdW  Elec       q    Type
REMARK                         _______ _______ _______ _____ _____    ______ ____
ROOT
ATOM      8  C   UNL     1      -4.696   2.391  25.274  0.00  0.00    +0.000 C 
ATOM      9  C   UNL     1      -4.611   2.576  23.738  0.00  0.00    +0.032 C 
ATOM     10  C   UNL     1      -4.947   3.741  25.964  0.00  0.00    +0.012 C 
ATOM     11  C   UNL     1      -3.840   4.767  25.657  0.00  0.00    +0.023 C 
ATOM     13  C   UNL     1      -3.510   4.813  24.178  0.00  0.00    -0.073 C 
ATOM     14  C   UNL     1      -3.874   3.831  23.334  0.00  0.00    -0.022 C 
ATOM     19  C   UNL     1      -2.790   6.036  23.683  0.00  0.00    +0.039 C 
ENDROOT
BRANCH   8  12
ATOM     12  C   UNL     1      -5.792   1.396  25.668  0.00  0.00    -0.013 C 
ATOM     17  C   UNL     1      -6.355   1.741  27.042  0.00  0.00    +0.007 C 
ATOM     18  C   UNL     1      -6.898   1.380  24.617  0.00  0.00    +0.007 C 
ENDBRANCH   8  12
BRANCH  11  15
ATOM     15  C   UNL     1      -2.584   4.491  26.491  0.00  0.00    +0.103 C 
BRANCH  15  20
ATOM      1  O   UNL     1      -0.981   5.549  25.102  0.00  0.00    -0.276 OA
ATOM      3  O   UNL     1       0.152  -1.480  24.468  0.00  0.00    -0.276 OA
ATOM      4  N   UNL     1      -0.750   3.256  25.392  0.00  0.00    -0.298 N 
ATOM      6  N   UNL     1      -0.117   0.801  24.126  0.00  0.00    -0.299 N 
ATOM     20  C   UNL     1      -1.367   4.488  25.600  0.00  0.00    +0.216 C 
ATOM     21  C   UNL     1       0.436   3.167  24.536  0.00  0.00    +0.126 C 
ATOM     22  C   UNL     1      -1.140   1.991  26.028  0.00  0.00    +0.126 C 
ATOM     23  C   UNL     1       0.272   2.067  23.491  0.00  0.00    +0.126 C 
ATOM     24  C   UNL     1      -1.304   0.890  24.982  0.00  0.00    +0.126 C 
ATOM     26  C   UNL     1       0.501  -0.431  23.920  0.00  0.00    +0.213 C 
ATOM     27  C   UNL     1       1.667  -0.449  22.965  0.00  0.00    +0.109 C 
ENDBRANCH  15  20
ENDBRANCH  11  15
BRANCH   9  16
ATOM     16  C   UNL     1      -3.955   1.362  23.070  0.00  0.00    +0.113 C 
BRANCH  16   5
ATOM      2  O   UNL     1      -4.429  -1.482  23.175  0.00  0.00    -0.253 OA
ATOM      5  N   UNL     1      -3.470   0.444  24.051  0.00  0.00    -0.299 N 
ATOM      7  N   UNL     1      -3.147  -1.589  25.106  0.00  0.00    -0.300 N 
ATOM     25  C   UNL     1      -3.744  -0.930  24.034  0.00  0.00    +0.300 C 
ATOM     30  H   UNL     1      -2.836   0.788  24.766  0.00  0.00    +0.150 HD
ATOM     31  H   UNL     1      -2.610  -1.046  25.776  0.00  0.00    +0.150 HD
BRANCH   7  28
ATOM     28  C   UNL     1      -3.276  -3.012  25.319  0.00  0.00    +0.102 C 
ATOM     29  C   UNL     1      -2.843  -3.797  24.099  0.00  0.00    +0.024 C 
ENDBRANCH   7  28
ENDBRANCH  16   5
ENDBRANCH   9  16
TORSDOF 6
ENDMDL
