MODEL 1
REMARK VINA RESULT:      -3.9      0.000      0.000
REMARK  Name = 11886313
REMARK  9 active torsions:
REMARK  status: ('A' for Active; 'I' for Inactive)
REMARK    1  A    between atoms: S_1  and  C_23
REMARK    2  A    between atoms: S_1  and  C_27
REMARK    3  A    between atoms: O_4  and  C_21
REMARK    4  A    between atoms: O_4  and  C_24
REMARK    5  A    between atoms: O_8  and  C_32
REMARK    6  A    between atoms: N_10  and  C_17
REMARK    7  A    between atoms: N_11  and  C_18
REMARK    8  A    between atoms: C_22  and  C_23
REMARK    9  A    between atoms: C_27  and  C_32
REMARK                            x       y       z     vdW  Elec       q    Type
REMARK                         _______ _______ _______ _____ _____    ______ ____
ROOT
ATOM      2  O   UNL     1      -1.638   3.467  26.471  0.00  0.00    -0.370 OA
ATOM      3  O   UNL     1      -1.916   3.514  23.338  0.00  0.00    -0.370 OA
ATOM     15  C   UNL     1      -2.565   2.771  24.386  0.00  0.00    +0.176 C 
ATOM     16  C   UNL     1      -1.514   2.474  25.439  0.00  0.00    +0.171 C 
ATOM     17  C   UNL     1      -3.579   3.651  25.091  0.00  0.00    +0.171 C 
ATOM     18  C   UNL     1      -0.199   2.636  24.712  0.00  0.00    +0.130 C 
ATOM     19  C   UNL     1      -2.751   4.324  26.180  0.00  0.00    +0.190 C 
ATOM     20  C   UNL     1      -0.532   3.688  23.671  0.00  0.00    +0.185 C 
ENDROOT
BRANCH  17  10
ATOM     10  N   UNL     1      -4.741   2.897  25.570  0.00  0.00    -0.187 N 
ATOM     12  N   UNL     1      -5.469   3.330  26.608  0.00  0.00    -0.041 NA
ATOM     13  N   UNL     1      -6.299   1.412  25.831  0.00  0.00    -0.071 NA
ATOM     14  N   UNL     1      -6.421   2.419  26.763  0.00  0.00    -0.020 NA
ATOM     21  C   UNL     1      -5.253   1.729  25.103  0.00  0.00    +0.342 A 
BRANCH  21   4
ATOM      4  O   UNL     1      -4.763   1.043  24.087  0.00  0.00    -0.423 OA
BRANCH   4  24
ATOM      6  O   UNL     1      -0.667  -1.188  25.397  0.00  0.00    -0.452 OA
ATOM      7  O   UNL     1      -1.553  -3.353  24.815  0.00  0.00    -0.453 OA
ATOM     24  C   UNL     1      -3.976  -0.087  24.259  0.00  0.00    +0.136 A 
ATOM     25  C   UNL     1      -2.682   0.038  24.768  0.00  0.00    +0.096 A 
ATOM     26  C   UNL     1      -4.494  -1.350  23.919  0.00  0.00    +0.050 A 
ATOM     28  C   UNL     1      -1.940  -1.115  24.921  0.00  0.00    +0.170 A 
ATOM     29  C   UNL     1      -2.445  -2.351  24.589  0.00  0.00    +0.166 A 
ATOM     30  C   UNL     1      -3.722  -2.502  24.084  0.00  0.00    +0.053 A 
ATOM     31  C   UNL     1      -0.429  -2.609  25.328  0.00  0.00    +0.466 C 
ENDBRANCH   4  24
ENDBRANCH  21   4
ENDBRANCH  17  10
BRANCH  18  11
ATOM      5  O   UNL     1       2.388   2.021  23.567  0.00  0.00    -0.275 OA
ATOM     11  N   UNL     1       0.210   1.398  24.092  0.00  0.00    -0.307 N 
ATOM     22  C   UNL     1       1.478   1.193  23.568  0.00  0.00    +0.223 C 
ATOM     33  H   UNL     1      -0.449   0.626  24.094  0.00  0.00    +0.149 HD
BRANCH  22  23
ATOM     23  C   UNL     1       1.651  -0.179  22.958  0.00  0.00    +0.165 C 
BRANCH  23   1
ATOM      1  S   UNL     1       3.249  -0.249  22.114  0.00  0.00    -0.140 S 
BRANCH   1  27
ATOM     27  C   UNL     1       4.214  -1.030  23.429  0.00  0.00    +0.189 C 
BRANCH  27  32
ATOM      9  O   UNL     1       6.486  -0.259  23.194  0.00  0.00    -0.250 OA
ATOM     32  C   UNL     1       5.401  -0.170  23.755  0.00  0.00    +0.315 C 
BRANCH  32   8
ATOM      8  O   UNL     1       5.142   0.734  24.734  0.00  0.00    -0.480 OA
ATOM     34  H   UNL     1       4.213   1.046  24.706  0.00  0.00    +0.295 HD
ENDBRANCH  32   8
ENDBRANCH  27  32
ENDBRANCH   1  27
ENDBRANCH  23   1
ENDBRANCH  22  23
ENDBRANCH  18  11
TORSDOF 9
ENDMDL
MODEL 2
REMARK VINA RESULT:      -1.6      1.451      1.956
REMARK  Name = 11886313
REMARK  9 active torsions:
REMARK  status: ('A' for Active; 'I' for Inactive)
REMARK    1  A    between atoms: S_1  and  C_23
REMARK    2  A    between atoms: S_1  and  C_27
REMARK    3  A    between atoms: O_4  and  C_21
REMARK    4  A    between atoms: O_4  and  C_24
REMARK    5  A    between atoms: O_8  and  C_32
REMARK    6  A    between atoms: N_10  and  C_17
REMARK    7  A    between atoms: N_11  and  C_18
REMARK    8  A    between atoms: C_22  and  C_23
REMARK    9  A    between atoms: C_27  and  C_32
REMARK                            x       y       z     vdW  Elec       q    Type
REMARK                         _______ _______ _______ _____ _____    ______ ____
ROOT
ATOM      2  O   UNL     1      -1.700   3.833  26.808  0.00  0.00    -0.370 OA
ATOM      3  O   UNL     1      -1.210   3.734  23.703  0.00  0.00    -0.370 OA
ATOM     15  C   UNL     1      -2.196   3.155  24.576  0.00  0.00    +0.176 C 
ATOM     16  C   UNL     1      -1.487   2.773  25.862  0.00  0.00    +0.171 C 
ATOM     17  C   UNL     1      -3.203   4.211  24.991  0.00  0.00    +0.171 C 
ATOM     18  C   UNL     1      -0.027   2.702  25.476  0.00  0.00    +0.130 C 
ATOM     19  C   UNL     1      -2.566   4.822  26.234  0.00  0.00    +0.190 C 
ATOM     20  C   UNL     1       0.064   3.727  24.361  0.00  0.00    +0.185 C 
ENDROOT
BRANCH  17  10
ATOM     10  N   UNL     1      -4.547   3.661  25.187  0.00  0.00    -0.187 N 
ATOM     12  N   UNL     1      -5.457   4.303  25.932  0.00  0.00    -0.041 NA
ATOM     13  N   UNL     1      -6.316   2.408  25.129  0.00  0.00    -0.071 NA
ATOM     14  N   UNL     1      -6.537   3.533  25.893  0.00  0.00    -0.020 NA
ATOM     21  C   UNL     1      -5.078   2.509  24.702  0.00  0.00    +0.342 A 
BRANCH  21   4
ATOM      4  O   UNL     1      -4.437   1.648  23.933  0.00  0.00    -0.423 OA
BRANCH   4  24
ATOM      6  O   UNL     1      -4.146  -3.144  23.283  0.00  0.00    -0.452 OA
ATOM      7  O   UNL     1      -3.208  -3.476  25.478  0.00  0.00    -0.453 OA
ATOM     24  C   UNL     1      -4.116   0.365  24.353  0.00  0.00    +0.136 A 
ATOM     25  C   UNL     1      -4.337  -0.720  23.502  0.00  0.00    +0.096 A 
ATOM     26  C   UNL     1      -3.569   0.172  25.634  0.00  0.00    +0.050 A 
ATOM     28  C   UNL     1      -4.002  -1.976  23.966  0.00  0.00    +0.170 A 
ATOM     29  C   UNL     1      -3.466  -2.166  25.219  0.00  0.00    +0.166 A 
ATOM     30  C   UNL     1      -3.237  -1.110  26.079  0.00  0.00    +0.053 A 
ATOM     31  C   UNL     1      -3.641  -4.090  24.246  0.00  0.00    +0.466 C 
ENDBRANCH   4  24
ENDBRANCH  21   4
ENDBRANCH  17  10
BRANCH  18  11
ATOM      5  O   UNL     1      -1.193   1.270  23.245  0.00  0.00    -0.275 OA
ATOM     11  N   UNL     1       0.324   1.384  25.004  0.00  0.00    -0.307 N 
ATOM     22  C   UNL     1      -0.292   0.774  23.921  0.00  0.00    +0.223 C 
ATOM     33  H   UNL     1       1.100   0.909  25.456  0.00  0.00    +0.149 HD
BRANCH  22  23
ATOM     23  C   UNL     1       0.242  -0.611  23.639  0.00  0.00    +0.165 C 
BRANCH  23   1
ATOM      1  S   UNL     1       1.594  -0.485  22.444  0.00  0.00    -0.140 S 
BRANCH   1  27
ATOM     27  C   UNL     1       2.524   0.853  23.227  0.00  0.00    +0.189 C 
BRANCH  27  32
ATOM      9  O   UNL     1       4.915   0.798  23.522  0.00  0.00    -0.250 OA
ATOM     32  C   UNL     1       3.952   0.806  22.766  0.00  0.00    +0.315 C 
BRANCH  32   8
ATOM      8  O   UNL     1       4.065   0.759  21.414  0.00  0.00    -0.480 OA
ATOM     34  H   UNL     1       4.986   0.923  21.119  0.00  0.00    +0.295 HD
ENDBRANCH  32   8
ENDBRANCH  27  32
ENDBRANCH   1  27
ENDBRANCH  23   1
ENDBRANCH  22  23
ENDBRANCH  18  11
TORSDOF 9
ENDMDL
MODEL 3
REMARK VINA RESULT:      -1.4      2.444      5.291
REMARK  Name = 11886313
REMARK  9 active torsions:
REMARK  status: ('A' for Active; 'I' for Inactive)
REMARK    1  A    between atoms: S_1  and  C_23
REMARK    2  A    between atoms: S_1  and  C_27
REMARK    3  A    between atoms: O_4  and  C_21
REMARK    4  A    between atoms: O_4  and  C_24
REMARK    5  A    between atoms: O_8  and  C_32
REMARK    6  A    between atoms: N_10  and  C_17
REMARK    7  A    between atoms: N_11  and  C_18
REMARK    8  A    between atoms: C_22  and  C_23
REMARK    9  A    between atoms: C_27  and  C_32
REMARK                            x       y       z     vdW  Elec       q    Type
REMARK                         _______ _______ _______ _____ _____    ______ ____
ROOT
ATOM      2  O   UNL     1      -4.351   2.944  23.132  0.00  0.00    -0.370 OA
ATOM      3  O   UNL     1      -5.096   2.658  26.175  0.00  0.00    -0.370 OA
ATOM     15  C   UNL     1      -3.853   2.775  25.459  0.00  0.00    +0.176 C 
ATOM     16  C   UNL     1      -4.009   2.002  24.162  0.00  0.00    +0.171 C 
ATOM     17  C   UNL     1      -3.640   4.214  25.026  0.00  0.00    +0.171 C 
ATOM     18  C   UNL     1      -5.168   1.067  24.423  0.00  0.00    +0.130 C 
ATOM     19  C   UNL     1      -4.341   4.272  23.674  0.00  0.00    +0.190 C 
ATOM     20  C   UNL     1      -6.007   1.856  25.410  0.00  0.00    +0.185 C 
ENDROOT
BRANCH  17  10
ATOM     10  N   UNL     1      -2.225   4.592  25.009  0.00  0.00    -0.187 N 
ATOM     12  N   UNL     1      -1.850   5.878  25.010  0.00  0.00    -0.041 NA
ATOM     13  N   UNL     1      -0.057   4.554  24.978  0.00  0.00    -0.071 NA
ATOM     14  N   UNL     1      -0.524   5.849  24.992  0.00  0.00    -0.020 NA
ATOM     21  C   UNL     1      -1.127   3.792  24.990  0.00  0.00    +0.342 A 
BRANCH  21   4
ATOM      4  O   UNL     1      -1.155   2.472  24.983  0.00  0.00    -0.423 OA
BRANCH   4  24
ATOM      6  O   UNL     1       3.218   1.258  23.288  0.00  0.00    -0.452 OA
ATOM      7  O   UNL     1       2.295  -0.472  21.887  0.00  0.00    -0.453 OA
ATOM     24  C   UNL     1      -0.310   1.711  24.188  0.00  0.00    +0.136 A 
ATOM     25  C   UNL     1       1.066   1.952  24.208  0.00  0.00    +0.096 A 
ATOM     26  C   UNL     1      -0.848   0.702  23.371  0.00  0.00    +0.050 A 
ATOM     28  C   UNL     1       1.865   1.168  23.401  0.00  0.00    +0.170 A 
ATOM     29  C   UNL     1       1.338   0.180  22.601  0.00  0.00    +0.166 A 
ATOM     30  C   UNL     1      -0.018  -0.079  22.564  0.00  0.00    +0.053 A 
ATOM     31  C   UNL     1       3.484   0.216  22.328  0.00  0.00    +0.466 C 
ENDBRANCH   4  24
ENDBRANCH  21   4
ENDBRANCH  17  10
BRANCH  18  11
ATOM      5  O   UNL     1      -3.933  -1.158  23.040  0.00  0.00    -0.275 OA
ATOM     11  N   UNL     1      -4.715  -0.177  24.998  0.00  0.00    -0.307 N 
ATOM     22  C   UNL     1      -4.132  -1.192  24.254  0.00  0.00    +0.223 C 
ATOM     33  H   UNL     1      -4.778  -0.284  26.006  0.00  0.00    +0.149 HD
BRANCH  22  23
ATOM     23  C   UNL     1      -3.762  -2.398  25.086  0.00  0.00    +0.165 C 
BRANCH  23   1
ATOM      1  S   UNL     1      -3.074  -1.835  26.661  0.00  0.00    -0.140 S 
BRANCH   1  27
ATOM     27  C   UNL     1      -1.599  -1.001  26.027  0.00  0.00    +0.189 C 
BRANCH  27  32
ATOM      9  O   UNL     1      -1.119  -2.823  24.524  0.00  0.00    -0.250 OA
ATOM     32  C   UNL     1      -0.717  -2.001  25.338  0.00  0.00    +0.315 C 
BRANCH  32   8
ATOM      8  O   UNL     1       0.586  -1.890  25.702  0.00  0.00    -0.480 OA
ATOM     34  H   UNL     1       1.191  -2.059  24.949  0.00  0.00    +0.295 HD
ENDBRANCH  32   8
ENDBRANCH  27  32
ENDBRANCH   1  27
ENDBRANCH  23   1
ENDBRANCH  22  23
ENDBRANCH  18  11
TORSDOF 9
ENDMDL
MODEL 4
REMARK VINA RESULT:      -0.5      2.846      6.947
REMARK  Name = 11886313
REMARK  9 active torsions:
REMARK  status: ('A' for Active; 'I' for Inactive)
REMARK    1  A    between atoms: S_1  and  C_23
REMARK    2  A    between atoms: S_1  and  C_27
REMARK    3  A    between atoms: O_4  and  C_21
REMARK    4  A    between atoms: O_4  and  C_24
REMARK    5  A    between atoms: O_8  and  C_32
REMARK    6  A    between atoms: N_10  and  C_17
REMARK    7  A    between atoms: N_11  and  C_18
REMARK    8  A    between atoms: C_22  and  C_23
REMARK    9  A    between atoms: C_27  and  C_32
REMARK                            x       y       z     vdW  Elec       q    Type
REMARK                         _______ _______ _______ _____ _____    ______ ____
ROOT
ATOM      2  O   UNL     1      -0.657   2.873  23.496  0.00  0.00    -0.370 OA
ATOM      3  O   UNL     1      -0.844   2.766  26.635  0.00  0.00    -0.370 OA
ATOM     15  C   UNL     1      -1.248   1.874  25.580  0.00  0.00    +0.176 C 
ATOM     16  C   UNL     1      -1.740   2.735  24.431  0.00  0.00    +0.171 C 
ATOM     17  C   UNL     1      -0.038   1.147  25.026  0.00  0.00    +0.171 C 
ATOM     18  C   UNL     1      -2.054   4.068  25.070  0.00  0.00    +0.130 C 
ATOM     19  C   UNL     1       0.461   2.090  23.937  0.00  0.00    +0.190 C 
ATOM     20  C   UNL     1      -1.060   4.120  26.216  0.00  0.00    +0.185 C 
ENDROOT
BRANCH  17  10
ATOM     10  N   UNL     1      -0.357  -0.210  24.573  0.00  0.00    -0.187 N 
ATOM     12  N   UNL     1      -1.165  -1.007  25.285  0.00  0.00    -0.041 NA
ATOM     13  N   UNL     1      -0.466  -2.061  23.449  0.00  0.00    -0.071 NA
ATOM     14  N   UNL     1      -1.230  -2.137  24.593  0.00  0.00    -0.020 NA
ATOM     21  C   UNL     1       0.064  -0.860  23.457  0.00  0.00    +0.342 A 
BRANCH  21   4
ATOM      4  O   UNL     1       0.873  -0.349  22.547  0.00  0.00    -0.423 OA
BRANCH   4  24
ATOM      6  O   UNL     1       5.179  -1.761  24.263  0.00  0.00    -0.452 OA
ATOM      7  O   UNL     1       6.247   0.262  23.501  0.00  0.00    -0.453 OA
ATOM     24  C   UNL     1       2.230  -0.164  22.774  0.00  0.00    +0.136 A 
ATOM     25  C   UNL     1       2.964  -1.150  23.437  0.00  0.00    +0.096 A 
ATOM     26  C   UNL     1       2.853   1.015  22.329  0.00  0.00    +0.050 A 
ATOM     28  C   UNL     1       4.310  -0.920  23.638  0.00  0.00    +0.170 A 
ATOM     29  C   UNL     1       4.920   0.234  23.203  0.00  0.00    +0.166 A 
ATOM     30  C   UNL     1       4.217   1.223  22.544  0.00  0.00    +0.053 A 
ATOM     31  C   UNL     1       6.405  -1.006  24.172  0.00  0.00    +0.466 C 
ENDBRANCH   4  24
ENDBRANCH  21   4
ENDBRANCH  17  10
BRANCH  18  11
ATOM      5  O   UNL     1      -4.471   3.573  23.554  0.00  0.00    -0.275 OA
ATOM     11  N   UNL     1      -3.413   4.107  25.554  0.00  0.00    -0.307 N 
ATOM     22  C   UNL     1      -4.515   3.855  24.751  0.00  0.00    +0.223 C 
ATOM     33  H   UNL     1      -3.558   4.272  26.546  0.00  0.00    +0.149 HD
BRANCH  22  23
ATOM     23  C   UNL     1      -5.827   3.977  25.491  0.00  0.00    +0.165 C 
BRANCH  23   1
ATOM      1  S   UNL     1      -6.232   2.379  26.234  0.00  0.00    -0.140 S 
BRANCH   1  27
ATOM     27  C   UNL     1      -5.964   1.331  24.784  0.00  0.00    +0.189 C 
BRANCH  27  32
ATOM      9  O   UNL     1      -4.419  -0.050  26.015  0.00  0.00    -0.250 OA
ATOM     32  C   UNL     1      -4.712   0.525  24.974  0.00  0.00    +0.315 C 
BRANCH  32   8
ATOM      8  O   UNL     1      -3.937   0.488  23.860  0.00  0.00    -0.480 OA
ATOM     34  H   UNL     1      -4.373   0.002  23.128  0.00  0.00    +0.295 HD
ENDBRANCH  32   8
ENDBRANCH  27  32
ENDBRANCH   1  27
ENDBRANCH  23   1
ENDBRANCH  22  23
ENDBRANCH  18  11
TORSDOF 9
ENDMDL
