MODEL 1
REMARK VINA RESULT:      -1.4      0.000      0.000
REMARK  Name = 11867436
REMARK  10 active torsions:
REMARK  status: ('A' for Active; 'I' for Inactive)
REMARK    1  A    between atoms: O_6  and  C_14
REMARK    2  A    between atoms: O_6  and  C_19
REMARK    3  A    between atoms: N_8  and  C_13
REMARK    4  A    between atoms: N_8  and  C_17
REMARK    5  A    between atoms: N_9  and  C_25
REMARK    6  A    between atoms: N_10  and  C_24
REMARK    7  A    between atoms: N_10  and  C_29
REMARK    8  A    between atoms: N_10  and  C_30
REMARK    9  A    between atoms: C_17  and  C_18
REMARK   10  A    between atoms: C_28  and  C_33
REMARK                            x       y       z     vdW  Elec       q    Type
REMARK                         _______ _______ _______ _____ _____    ______ ____
ROOT
ATOM      4  O   UNL     1      -2.977   3.533  26.736  0.00  0.00    -0.369 OA
ATOM      5  O   UNL     1      -3.656   5.036  24.164  0.00  0.00    -0.369 OA
ATOM     11  C   UNL     1      -4.055   3.730  24.636  0.00  0.00    +0.170 C 
ATOM     12  C   UNL     1      -2.859   3.143  25.356  0.00  0.00    +0.191 C 
ATOM     13  C   UNL     1      -5.105   3.871  25.717  0.00  0.00    +0.111 C 
ATOM     14  C   UNL     1      -1.699   3.832  24.679  0.00  0.00    +0.235 C 
ATOM     15  C   UNL     1      -4.251   4.163  26.943  0.00  0.00    +0.181 C 
ATOM     16  C   UNL     1      -2.256   5.215  24.423  0.00  0.00    +0.207 C 
ENDROOT
BRANCH  13   8
ATOM      8  N   UNL     1      -5.844   2.625  25.912  0.00  0.00    -0.305 NA
ATOM     34  H   UNL     1      -6.812   2.840  26.156  0.00  0.00    +0.123 HD
BRANCH   8  17
ATOM     17  C   UNL     1      -5.844   1.828  24.695  0.00  0.00    +0.116 C 
BRANCH  17  18
ATOM     18  C   UNL     1      -4.737   0.807  24.693  0.00  0.00    -0.033 A 
ATOM     20  C   UNL     1      -4.521   0.009  25.816  0.00  0.00    +0.007 A 
ATOM     21  C   UNL     1      -3.927   0.660  23.566  0.00  0.00    +0.007 A 
ATOM     22  C   UNL     1      -3.495  -0.935  25.813  0.00  0.00    +0.023 A 
ATOM     23  C   UNL     1      -2.901  -0.284  23.563  0.00  0.00    +0.023 A 
ATOM     24  C   UNL     1      -2.686  -1.082  24.687  0.00  0.00    +0.029 A 
BRANCH  24  10
ATOM     10  N   UNL     1      -1.649  -2.038  24.684  0.00  0.00    -0.336 N 
ATOM     29  C   UNL     1      -0.415  -1.786  25.401  0.00  0.00    +0.129 C 
ATOM     30  C   UNL     1      -1.797  -3.280  23.951  0.00  0.00    +0.129 C 
ENDBRANCH  24  10
ENDBRANCH  17  18
ENDBRANCH   8  17
ENDBRANCH  13   8
BRANCH  14   6
ATOM      6  O   UNL     1      -0.530   3.869  25.466  0.00  0.00    -0.442 OA
BRANCH   6  19
ATOM      7  O   UNL     1       0.888   2.297  26.330  0.00  0.00    -0.226 OA
ATOM      9  N   UNL     1       0.424   2.405  24.038  0.00  0.00    -0.251 N 
ATOM     19  C   UNL     1       0.327   2.792  25.361  0.00  0.00    +0.405 C 
ATOM     35  H   UNL     1      -0.124   2.944  23.372  0.00  0.00    +0.158 HD
BRANCH   9  25
ATOM     25  C   UNL     1       1.190   1.350  23.494  0.00  0.00    +0.037 A 
ATOM     26  C   UNL     1       2.573   1.327  23.674  0.00  0.00    +0.035 A 
ATOM     27  C   UNL     1       0.563   0.330  22.778  0.00  0.00    +0.023 A 
ATOM     28  C   UNL     1       3.329   0.285  23.137  0.00  0.00    +0.057 A 
ATOM     31  C   UNL     1       1.319  -0.711  22.241  0.00  0.00    +0.002 A 
ATOM     32  C   UNL     1       2.702  -0.734  22.420  0.00  0.00    +0.012 A 
BRANCH  28  33
ATOM      1  F   UNL     1       5.303   1.392  23.912  0.00  0.00    -0.166 F 
ATOM      2  F   UNL     1       5.507   0.130  22.160  0.00  0.00    -0.166 F 
ATOM      3  F   UNL     1       5.219  -0.771  24.119  0.00  0.00    -0.166 F 
ATOM     33  C   UNL     1       4.808   0.262  23.326  0.00  0.00    +0.417 C 
ENDBRANCH  28  33
ENDBRANCH   9  25
ENDBRANCH   6  19
ENDBRANCH  14   6
TORSDOF 8
ENDMDL
MODEL 2
REMARK VINA RESULT:       1.4      2.573      5.081
REMARK  Name = 11867436
REMARK  10 active torsions:
REMARK  status: ('A' for Active; 'I' for Inactive)
REMARK    1  A    between atoms: O_6  and  C_14
REMARK    2  A    between atoms: O_6  and  C_19
REMARK    3  A    between atoms: N_8  and  C_13
REMARK    4  A    between atoms: N_8  and  C_17
REMARK    5  A    between atoms: N_9  and  C_25
REMARK    6  A    between atoms: N_10  and  C_24
REMARK    7  A    between atoms: N_10  and  C_29
REMARK    8  A    between atoms: N_10  and  C_30
REMARK    9  A    between atoms: C_17  and  C_18
REMARK   10  A    between atoms: C_28  and  C_33
REMARK                            x       y       z     vdW  Elec       q    Type
REMARK                         _______ _______ _______ _____ _____    ______ ____
ROOT
ATOM      4  O   UNL     1      -3.951   3.443  23.922  0.00  0.00    -0.369 OA
ATOM      5  O   UNL     1      -4.981   5.003  26.339  0.00  0.00    -0.369 OA
ATOM     11  C   UNL     1      -3.764   4.252  26.141  0.00  0.00    +0.170 C 
ATOM     12  C   UNL     1      -4.126   3.049  25.295  0.00  0.00    +0.191 C 
ATOM     13  C   UNL     1      -2.807   5.040  25.271  0.00  0.00    +0.111 C 
ATOM     14  C   UNL     1      -5.582   2.839  25.633  0.00  0.00    +0.235 C 
ATOM     15  C   UNL     1      -3.337   4.740  23.876  0.00  0.00    +0.181 C 
ATOM     16  C   UNL     1      -6.080   4.257  25.794  0.00  0.00    +0.207 C 
ENDROOT
BRANCH  13   8
ATOM      8  N   UNL     1      -1.437   4.548  25.399  0.00  0.00    -0.305 NA
ATOM     34  H   UNL     1      -0.952   5.079  26.123  0.00  0.00    +0.123 HD
BRANCH   8  17
ATOM     17  C   UNL     1      -1.425   3.143  25.776  0.00  0.00    +0.116 C 
BRANCH  17  18
ATOM     18  C   UNL     1      -0.584   2.317  24.840  0.00  0.00    -0.033 A 
ATOM     20  C   UNL     1       0.793   2.221  25.038  0.00  0.00    +0.007 A 
ATOM     21  C   UNL     1      -1.182   1.647  23.772  0.00  0.00    +0.007 A 
ATOM     22  C   UNL     1       1.572   1.457  24.170  0.00  0.00    +0.023 A 
ATOM     23  C   UNL     1      -0.403   0.882  22.903  0.00  0.00    +0.023 A 
ATOM     24  C   UNL     1       0.974   0.787  23.103  0.00  0.00    +0.029 A 
BRANCH  24  10
ATOM     10  N   UNL     1       1.761   0.014  22.226  0.00  0.00    -0.336 N 
ATOM     29  C   UNL     1       3.207   0.029  22.329  0.00  0.00    +0.129 C 
ATOM     30  C   UNL     1       1.135  -0.798  21.200  0.00  0.00    +0.129 C 
ENDBRANCH  24  10
ENDBRANCH  17  18
ENDBRANCH   8  17
ENDBRANCH  13   8
BRANCH  14   6
ATOM      6  O   UNL     1      -6.295   2.136  24.640  0.00  0.00    -0.442 OA
BRANCH   6  19
ATOM      7  O   UNL     1      -6.831  -0.048  24.226  0.00  0.00    -0.226 OA
ATOM      9  N   UNL     1      -4.626   0.618  24.643  0.00  0.00    -0.251 N 
ATOM     19  C   UNL     1      -5.985   0.801  24.477  0.00  0.00    +0.405 C 
ATOM     35  H   UNL     1      -4.082   1.452  24.848  0.00  0.00    +0.158 HD
BRANCH   9  25
ATOM     25  C   UNL     1      -3.894  -0.588  24.559  0.00  0.00    +0.037 A 
ATOM     26  C   UNL     1      -2.599  -0.656  25.075  0.00  0.00    +0.035 A 
ATOM     27  C   UNL     1      -4.466  -1.711  23.961  0.00  0.00    +0.023 A 
ATOM     28  C   UNL     1      -1.877  -1.846  24.991  0.00  0.00    +0.057 A 
ATOM     31  C   UNL     1      -3.743  -2.901  23.879  0.00  0.00    +0.002 A 
ATOM     32  C   UNL     1      -2.449  -2.969  24.393  0.00  0.00    +0.012 A 
BRANCH  28  33
ATOM      1  F   UNL     1       0.461  -1.444  24.684  0.00  0.00    -0.166 F 
ATOM      2  F   UNL     1      -0.092  -3.187  25.850  0.00  0.00    -0.166 F 
ATOM      3  F   UNL     1      -0.344  -1.196  26.689  0.00  0.00    -0.166 F 
ATOM     33  C   UNL     1      -0.492  -1.918  25.540  0.00  0.00    +0.417 C 
ENDBRANCH  28  33
ENDBRANCH   9  25
ENDBRANCH   6  19
ENDBRANCH  14   6
TORSDOF 8
ENDMDL
MODEL 3
REMARK VINA RESULT:       1.8      2.470      4.448
REMARK  Name = 11867436
REMARK  10 active torsions:
REMARK  status: ('A' for Active; 'I' for Inactive)
REMARK    1  A    between atoms: O_6  and  C_14
REMARK    2  A    between atoms: O_6  and  C_19
REMARK    3  A    between atoms: N_8  and  C_13
REMARK    4  A    between atoms: N_8  and  C_17
REMARK    5  A    between atoms: N_9  and  C_25
REMARK    6  A    between atoms: N_10  and  C_24
REMARK    7  A    between atoms: N_10  and  C_29
REMARK    8  A    between atoms: N_10  and  C_30
REMARK    9  A    between atoms: C_17  and  C_18
REMARK   10  A    between atoms: C_28  and  C_33
REMARK                            x       y       z     vdW  Elec       q    Type
REMARK                         _______ _______ _______ _____ _____    ______ ____
ROOT
ATOM      4  O   UNL     1      -2.119   0.570  23.716  0.00  0.00    -0.369 OA
ATOM      5  O   UNL     1      -4.862  -0.665  24.254  0.00  0.00    -0.369 OA
ATOM     11  C   UNL     1      -4.129   0.365  24.953  0.00  0.00    +0.170 C 
ATOM     12  C   UNL     1      -2.667  -0.029  24.904  0.00  0.00    +0.191 C 
ATOM     13  C   UNL     1      -4.188   1.661  24.172  0.00  0.00    +0.111 C 
ATOM     14  C   UNL     1      -2.739  -1.533  24.787  0.00  0.00    +0.235 C 
ATOM     15  C   UNL     1      -3.095   1.448  23.134  0.00  0.00    +0.181 C 
ATOM     16  C   UNL     1      -3.958  -1.727  23.915  0.00  0.00    +0.207 C 
ENDROOT
BRANCH  13   8
ATOM      8  N   UNL     1      -3.858   2.810  25.013  0.00  0.00    -0.305 NA
ATOM     34  H   UNL     1      -3.793   2.509  25.986  0.00  0.00    +0.123 HD
BRANCH   8  17
ATOM     17  C   UNL     1      -2.580   3.385  24.624  0.00  0.00    +0.116 C 
BRANCH  17  18
ATOM     18  C   UNL     1      -1.527   3.182  25.681  0.00  0.00    -0.033 A 
ATOM     20  C   UNL     1      -1.870   3.256  27.031  0.00  0.00    +0.007 A 
ATOM     21  C   UNL     1      -0.208   2.920  25.310  0.00  0.00    +0.007 A 
ATOM     22  C   UNL     1      -0.894   3.069  28.009  0.00  0.00    +0.023 A 
ATOM     23  C   UNL     1       0.768   2.733  26.288  0.00  0.00    +0.023 A 
ATOM     24  C   UNL     1       0.425   2.807  27.638  0.00  0.00    +0.029 A 
BRANCH  24  10
ATOM     10  N   UNL     1       1.411   2.617  28.627  0.00  0.00    -0.336 N 
ATOM     29  C   UNL     1       1.034   2.288  29.987  0.00  0.00    +0.129 C 
ATOM     30  C   UNL     1       2.817   2.761  28.299  0.00  0.00    +0.129 C 
ENDBRANCH  24  10
ENDBRANCH  17  18
ENDBRANCH   8  17
ENDBRANCH  13   8
BRANCH  14   6
ATOM      6  O   UNL     1      -1.584  -2.109  24.221  0.00  0.00    -0.442 OA
BRANCH   6  19
ATOM      7  O   UNL     1       0.079  -1.549  25.687  0.00  0.00    -0.226 OA
ATOM      9  N   UNL     1       0.191  -0.969  23.422  0.00  0.00    -0.251 N 
ATOM     19  C   UNL     1      -0.374  -1.533  24.550  0.00  0.00    +0.405 C 
ATOM     35  H   UNL     1      -0.341  -1.059  22.560  0.00  0.00    +0.158 HD
BRANCH   9  25
ATOM     25  C   UNL     1       1.422  -0.282  23.316  0.00  0.00    +0.037 A 
ATOM     26  C   UNL     1       2.619  -0.952  23.572  0.00  0.00    +0.035 A 
ATOM     27  C   UNL     1       1.440   1.065  22.956  0.00  0.00    +0.023 A 
ATOM     28  C   UNL     1       3.833  -0.273  23.468  0.00  0.00    +0.057 A 
ATOM     31  C   UNL     1       2.654   1.743  22.852  0.00  0.00    +0.002 A 
ATOM     32  C   UNL     1       3.851   1.074  23.108  0.00  0.00    +0.012 A 
BRANCH  28  33
ATOM      1  F   UNL     1       4.993  -2.348  23.734  0.00  0.00    -0.166 F 
ATOM      2  F   UNL     1       5.656  -0.687  24.961  0.00  0.00    -0.166 F 
ATOM      3  F   UNL     1       6.083  -0.700  22.829  0.00  0.00    -0.166 F 
ATOM     33  C   UNL     1       5.112  -0.988  23.744  0.00  0.00    +0.417 C 
ENDBRANCH  28  33
ENDBRANCH   9  25
ENDBRANCH   6  19
ENDBRANCH  14   6
TORSDOF 8
ENDMDL
MODEL 4
REMARK VINA RESULT:       2.2      3.158      7.067
REMARK  Name = 11867436
REMARK  10 active torsions:
REMARK  status: ('A' for Active; 'I' for Inactive)
REMARK    1  A    between atoms: O_6  and  C_14
REMARK    2  A    between atoms: O_6  and  C_19
REMARK    3  A    between atoms: N_8  and  C_13
REMARK    4  A    between atoms: N_8  and  C_17
REMARK    5  A    between atoms: N_9  and  C_25
REMARK    6  A    between atoms: N_10  and  C_24
REMARK    7  A    between atoms: N_10  and  C_29
REMARK    8  A    between atoms: N_10  and  C_30
REMARK    9  A    between atoms: C_17  and  C_18
REMARK   10  A    between atoms: C_28  and  C_33
REMARK                            x       y       z     vdW  Elec       q    Type
REMARK                         _______ _______ _______ _____ _____    ______ ____
ROOT
ATOM      4  O   UNL     1      -2.766  -0.373  25.679  0.00  0.00    -0.369 OA
ATOM      5  O   UNL     1      -2.453  -2.874  23.952  0.00  0.00    -0.369 OA
ATOM     11  C   UNL     1      -1.813  -1.582  23.878  0.00  0.00    +0.170 C 
ATOM     12  C   UNL     1      -2.861  -0.554  24.255  0.00  0.00    +0.191 C 
ATOM     13  C   UNL     1      -0.769  -1.460  24.968  0.00  0.00    +0.111 C 
ATOM     14  C   UNL     1      -4.147  -1.241  23.864  0.00  0.00    +0.235 C 
ATOM     15  C   UNL     1      -1.619  -1.081  26.172  0.00  0.00    +0.181 C 
ATOM     16  C   UNL     1      -3.854  -2.684  24.205  0.00  0.00    +0.207 C 
ENDROOT
BRANCH  13   8
ATOM      8  N   UNL     1       0.187  -0.392  24.678  0.00  0.00    -0.305 NA
ATOM     34  H   UNL     1       0.959  -0.440  25.342  0.00  0.00    +0.123 HD
BRANCH   8  17
ATOM     17  C   UNL     1       0.727  -0.533  23.334  0.00  0.00    +0.116 C 
BRANCH  17  18
ATOM     18  C   UNL     1       2.226  -0.393  23.315  0.00  0.00    -0.033 A 
ATOM     20  C   UNL     1       2.813   0.775  22.828  0.00  0.00    +0.007 A 
ATOM     21  C   UNL     1       3.029  -1.434  23.783  0.00  0.00    +0.007 A 
ATOM     22  C   UNL     1       4.201   0.903  22.810  0.00  0.00    +0.023 A 
ATOM     23  C   UNL     1       4.418  -1.306  23.764  0.00  0.00    +0.023 A 
ATOM     24  C   UNL     1       5.003  -0.137  23.278  0.00  0.00    +0.029 A 
BRANCH  24  10
ATOM     10  N   UNL     1       6.408  -0.008  23.260  0.00  0.00    -0.336 N 
ATOM     29  C   UNL     1       7.225  -0.971  22.549  0.00  0.00    +0.129 C 
ATOM     30  C   UNL     1       7.053   1.084  23.963  0.00  0.00    +0.129 C 
ENDBRANCH  24  10
ENDBRANCH  17  18
ENDBRANCH   8  17
ENDBRANCH  13   8
BRANCH  14   6
ATOM      6  O   UNL     1      -5.277  -0.753  24.551  0.00  0.00    -0.442 OA
BRANCH   6  19
ATOM      7  O   UNL     1      -5.821   0.834  26.105  0.00  0.00    -0.226 OA
ATOM      9  N   UNL     1      -4.231   1.243  24.437  0.00  0.00    -0.251 N 
ATOM     19  C   UNL     1      -5.165   0.496  25.129  0.00  0.00    +0.405 C 
ATOM     35  H   UNL     1      -3.785   0.784  23.646  0.00  0.00    +0.158 HD
BRANCH   9  25
ATOM     25  C   UNL     1      -3.814   2.568  24.694  0.00  0.00    +0.037 A 
ATOM     26  C   UNL     1      -2.460   2.899  24.629  0.00  0.00    +0.035 A 
ATOM     27  C   UNL     1      -4.756   3.546  25.014  0.00  0.00    +0.023 A 
ATOM     28  C   UNL     1      -2.049   4.207  24.884  0.00  0.00    +0.057 A 
ATOM     31  C   UNL     1      -4.344   4.854  25.268  0.00  0.00    +0.002 A 
ATOM     32  C   UNL     1      -2.991   5.185  25.203  0.00  0.00    +0.012 A 
BRANCH  28  33
ATOM      1  F   UNL     1      -0.354   5.890  25.007  0.00  0.00    -0.166 F 
ATOM      2  F   UNL     1      -0.019   4.258  23.618  0.00  0.00    -0.166 F 
ATOM      3  F   UNL     1       0.142   3.912  25.759  0.00  0.00    -0.166 F 
ATOM     33  C   UNL     1      -0.602   4.561  24.816  0.00  0.00    +0.417 C 
ENDBRANCH  28  33
ENDBRANCH   9  25
ENDBRANCH   6  19
ENDBRANCH  14   6
TORSDOF 8
ENDMDL
MODEL 5
REMARK VINA RESULT:       2.3      2.817      4.842
REMARK  Name = 11867436
REMARK  10 active torsions:
REMARK  status: ('A' for Active; 'I' for Inactive)
REMARK    1  A    between atoms: O_6  and  C_14
REMARK    2  A    between atoms: O_6  and  C_19
REMARK    3  A    between atoms: N_8  and  C_13
REMARK    4  A    between atoms: N_8  and  C_17
REMARK    5  A    between atoms: N_9  and  C_25
REMARK    6  A    between atoms: N_10  and  C_24
REMARK    7  A    between atoms: N_10  and  C_29
REMARK    8  A    between atoms: N_10  and  C_30
REMARK    9  A    between atoms: C_17  and  C_18
REMARK   10  A    between atoms: C_28  and  C_33
REMARK                            x       y       z     vdW  Elec       q    Type
REMARK                         _______ _______ _______ _____ _____    ______ ____
ROOT
ATOM      4  O   UNL     1      -4.026   2.033  23.405  0.00  0.00    -0.369 OA
ATOM      5  O   UNL     1      -5.965   3.129  25.496  0.00  0.00    -0.369 OA
ATOM     11  C   UNL     1      -4.521   3.133  25.443  0.00  0.00    +0.170 C 
ATOM     12  C   UNL     1      -4.104   1.815  24.825  0.00  0.00    +0.191 C 
ATOM     13  C   UNL     1      -4.045   4.173  24.452  0.00  0.00    +0.111 C 
ATOM     14  C   UNL     1      -5.253   0.906  25.187  0.00  0.00    +0.235 C 
ATOM     15  C   UNL     1      -4.190   3.433  23.130  0.00  0.00    +0.181 C 
ATOM     16  C   UNL     1      -6.440   1.838  25.087  0.00  0.00    +0.207 C 
ENDROOT
BRANCH  13   8
ATOM      8  N   UNL     1      -2.643   4.523  24.674  0.00  0.00    -0.305 NA
ATOM     34  H   UNL     1      -2.525   4.861  25.629  0.00  0.00    +0.123 HD
BRANCH   8  17
ATOM     17  C   UNL     1      -1.785   3.362  24.489  0.00  0.00    +0.116 C 
BRANCH  17  18
ATOM     18  C   UNL     1      -0.880   3.139  25.671  0.00  0.00    -0.033 A 
ATOM     20  C   UNL     1      -1.397   3.182  26.965  0.00  0.00    +0.007 A 
ATOM     21  C   UNL     1       0.478   2.890  25.471  0.00  0.00    +0.007 A 
ATOM     22  C   UNL     1      -0.557   2.976  28.060  0.00  0.00    +0.023 A 
ATOM     23  C   UNL     1       1.318   2.684  26.565  0.00  0.00    +0.023 A 
ATOM     24  C   UNL     1       0.800   2.727  27.859  0.00  0.00    +0.029 A 
BRANCH  24  10
ATOM     10  N   UNL     1       1.649   2.518  28.966  0.00  0.00    -0.336 N 
ATOM     29  C   UNL     1       1.099   2.155  30.256  0.00  0.00    +0.129 C 
ATOM     30  C   UNL     1       3.084   2.678  28.830  0.00  0.00    +0.129 C 
ENDBRANCH  24  10
ENDBRANCH  17  18
ENDBRANCH   8  17
ENDBRANCH  13   8
BRANCH  14   6
ATOM      6  O   UNL     1      -5.381  -0.208  24.332  0.00  0.00    -0.442 OA
BRANCH   6  19
ATOM      7  O   UNL     1      -4.375  -2.210  23.877  0.00  0.00    -0.226 OA
ATOM      9  N   UNL     1      -3.141  -0.344  24.563  0.00  0.00    -0.251 N 
ATOM     19  C   UNL     1      -4.285  -1.040  24.224  0.00  0.00    +0.405 C 
ATOM     35  H   UNL     1      -3.269   0.630  24.827  0.00  0.00    +0.158 HD
BRANCH   9  25
ATOM     25  C   UNL     1      -1.809  -0.817  24.586  0.00  0.00    +0.037 A 
ATOM     26  C   UNL     1      -0.842  -0.217  23.780  0.00  0.00    +0.035 A 
ATOM     27  C   UNL     1      -1.463  -1.883  25.416  0.00  0.00    +0.023 A 
ATOM     28  C   UNL     1       0.472  -0.685  23.803  0.00  0.00    +0.057 A 
ATOM     31  C   UNL     1      -0.149  -2.350  25.439  0.00  0.00    +0.002 A 
ATOM     32  C   UNL     1       0.818  -1.752  24.632  0.00  0.00    +0.012 A 
BRANCH  28  33
ATOM      1  F   UNL     1       2.745  -0.610  23.061  0.00  0.00    -0.166 F 
ATOM      2  F   UNL     1       1.692   1.281  23.197  0.00  0.00    -0.166 F 
ATOM      3  F   UNL     1       1.201  -0.122  21.611  0.00  0.00    -0.166 F 
ATOM     33  C   UNL     1       1.506  -0.047  22.939  0.00  0.00    +0.417 C 
ENDBRANCH  28  33
ENDBRANCH   9  25
ENDBRANCH   6  19
ENDBRANCH  14   6
TORSDOF 8
ENDMDL
MODEL 6
REMARK VINA RESULT:       2.4      2.309      4.778
REMARK  Name = 11867436
REMARK  10 active torsions:
REMARK  status: ('A' for Active; 'I' for Inactive)
REMARK    1  A    between atoms: O_6  and  C_14
REMARK    2  A    between atoms: O_6  and  C_19
REMARK    3  A    between atoms: N_8  and  C_13
REMARK    4  A    between atoms: N_8  and  C_17
REMARK    5  A    between atoms: N_9  and  C_25
REMARK    6  A    between atoms: N_10  and  C_24
REMARK    7  A    between atoms: N_10  and  C_29
REMARK    8  A    between atoms: N_10  and  C_30
REMARK    9  A    between atoms: C_17  and  C_18
REMARK   10  A    between atoms: C_28  and  C_33
REMARK                            x       y       z     vdW  Elec       q    Type
REMARK                         _______ _______ _______ _____ _____    ______ ____
ROOT
ATOM      4  O   UNL     1      -2.832  -0.502  25.297  0.00  0.00    -0.369 OA
ATOM      5  O   UNL     1      -4.449  -2.185  23.326  0.00  0.00    -0.369 OA
ATOM     11  C   UNL     1      -4.832  -1.532  24.556  0.00  0.00    +0.170 C 
ATOM     12  C   UNL     1      -3.657  -1.662  25.503  0.00  0.00    +0.191 C 
ATOM     13  C   UNL     1      -4.960  -0.040  24.330  0.00  0.00    +0.111 C 
ATOM     14  C   UNL     1      -2.982  -2.920  25.012  0.00  0.00    +0.235 C 
ATOM     15  C   UNL     1      -3.511   0.414  24.424  0.00  0.00    +0.181 C 
ATOM     16  C   UNL     1      -3.180  -2.827  23.517  0.00  0.00    +0.207 C 
ENDROOT
BRANCH  13   8
ATOM      8  N   UNL     1      -5.749   0.596  25.384  0.00  0.00    -0.305 NA
ATOM     34  H   UNL     1      -5.208   0.611  26.249  0.00  0.00    +0.123 HD
BRANCH   8  17
ATOM     17  C   UNL     1      -6.081   1.966  25.026  0.00  0.00    +0.116 C 
BRANCH  17  18
ATOM     18  C   UNL     1      -4.864   2.852  25.004  0.00  0.00    -0.033 A 
ATOM     20  C   UNL     1      -4.316   3.255  23.787  0.00  0.00    +0.007 A 
ATOM     21  C   UNL     1      -4.283   3.268  26.202  0.00  0.00    +0.007 A 
ATOM     22  C   UNL     1      -3.187   4.075  23.767  0.00  0.00    +0.023 A 
ATOM     23  C   UNL     1      -3.155   4.087  26.183  0.00  0.00    +0.023 A 
ATOM     24  C   UNL     1      -2.607   4.491  24.965  0.00  0.00    +0.029 A 
BRANCH  24  10
ATOM     10  N   UNL     1      -1.467   5.320  24.945  0.00  0.00    -0.336 N 
ATOM     29  C   UNL     1      -0.138   4.741  24.916  0.00  0.00    +0.129 C 
ATOM     30  C   UNL     1      -1.608   6.763  24.968  0.00  0.00    +0.129 C 
ENDBRANCH  24  10
ENDBRANCH  17  18
ENDBRANCH   8  17
ENDBRANCH  13   8
BRANCH  14   6
ATOM      6  O   UNL     1      -1.618  -3.000  25.362  0.00  0.00    -0.442 OA
BRANCH   6  19
ATOM      7  O   UNL     1      -0.834  -1.200  26.535  0.00  0.00    -0.226 OA
ATOM      9  N   UNL     1      -0.413  -1.453  24.246  0.00  0.00    -0.251 N 
ATOM     19  C   UNL     1      -0.932  -1.808  25.477  0.00  0.00    +0.405 C 
ATOM     35  H   UNL     1      -0.602  -2.092  23.478  0.00  0.00    +0.158 HD
BRANCH   9  25
ATOM     25  C   UNL     1       0.353  -0.311  23.922  0.00  0.00    +0.037 A 
ATOM     26  C   UNL     1       1.669  -0.454  23.482  0.00  0.00    +0.035 A 
ATOM     27  C   UNL     1      -0.208   0.961  24.041  0.00  0.00    +0.023 A 
ATOM     28  C   UNL     1       2.424   0.673  23.163  0.00  0.00    +0.057 A 
ATOM     31  C   UNL     1       0.548   2.089  23.721  0.00  0.00    +0.002 A 
ATOM     32  C   UNL     1       1.864   1.945  23.282  0.00  0.00    +0.012 A 
BRANCH  28  33
ATOM      1  F   UNL     1       4.407  -0.661  23.068  0.00  0.00    -0.166 F 
ATOM      2  F   UNL     1       4.673   1.489  23.165  0.00  0.00    -0.166 F 
ATOM      3  F   UNL     1       3.942   0.568  21.336  0.00  0.00    -0.166 F 
ATOM     33  C   UNL     1       3.832   0.521  22.696  0.00  0.00    +0.417 C 
ENDBRANCH  28  33
ENDBRANCH   9  25
ENDBRANCH   6  19
ENDBRANCH  14   6
TORSDOF 8
ENDMDL
