MODEL 1
REMARK VINA RESULT:      -4.5      0.000      0.000
REMARK  Name = 71694056
REMARK  9 active torsions:
REMARK  status: ('A' for Active; 'I' for Inactive)
REMARK    1  A    between atoms: O_4  and  C_11
REMARK    2  A    between atoms: O_5  and  C_13
REMARK    3  A    between atoms: O_6  and  C_24
REMARK    4  A    between atoms: O_6  and  C_27
REMARK    5  A    between atoms: N_7  and  C_9
REMARK    6  A    between atoms: N_7  and  C_15
REMARK    7  A    between atoms: C_10  and  C_14
REMARK    8  A    between atoms: C_15  and  C_18
REMARK    9  A    between atoms: C_20  and  C_23
REMARK                            x       y       z     vdW  Elec       q    Type
REMARK                         _______ _______ _______ _____ _____    ______ ____
ROOT
ATOM      9  C   UNL     1      -3.099   3.504  25.337  0.00  0.00    +0.093 C 
ATOM     10  C   UNL     1      -4.006   2.774  24.298  0.00  0.00    +0.042 C 
ATOM     11  C   UNL     1      -4.063   4.342  26.191  0.00  0.00    +0.160 C 
ATOM     12  C   UNL     1      -5.444   3.241  24.594  0.00  0.00    +0.043 C 
ATOM     13  C   UNL     1      -5.253   4.590  25.269  0.00  0.00    +0.145 C 
ENDROOT
BRANCH  10  14
ATOM      8  N   UNL     1      -4.068  -0.830  25.478  0.00  0.00    -0.251 NA
ATOM     14  C   UNL     1      -3.855   1.268  24.296  0.00  0.00    -0.025 A 
ATOM     16  C   UNL     1      -3.385   0.597  23.172  0.00  0.00    +0.007 A 
ATOM     17  C   UNL     1      -4.180   0.515  25.413  0.00  0.00    +0.115 A 
ATOM     19  C   UNL     1      -3.255  -0.788  23.201  0.00  0.00    +0.032 A 
ATOM     20  C   UNL     1      -3.607  -1.448  24.367  0.00  0.00    +0.144 A 
BRANCH  20  23
ATOM      1  F   UNL     1      -4.449  -3.596  23.733  0.00  0.00    -0.164 F 
ATOM      2  F   UNL     1      -2.299  -3.405  23.942  0.00  0.00    -0.164 F 
ATOM      3  F   UNL     1      -3.563  -3.410  25.710  0.00  0.00    -0.164 F 
ATOM     23  C   UNL     1      -3.482  -2.934  24.433  0.00  0.00    +0.434 C 
ENDBRANCH  20  23
ENDBRANCH  10  14
BRANCH  11   4
ATOM      4  O   UNL     1      -4.455   3.563  27.322  0.00  0.00    -0.388 OA
ATOM     29  H   UNL     1      -4.580   4.175  28.068  0.00  0.00    +0.210 HD
ENDBRANCH  11   4
BRANCH  13   5
ATOM      5  O   UNL     1      -6.413   4.985  25.973  0.00  0.00    -0.389 OA
ATOM     30  H   UNL     1      -6.950   4.188  26.122  0.00  0.00    +0.210 HD
ENDBRANCH  13   5
BRANCH   9   7
ATOM      7  N   UNL     1      -2.162   4.383  24.637  0.00  0.00    -0.306 NA
ATOM     28  H   UNL     1      -2.327   5.348  24.926  0.00  0.00    +0.123 HD
BRANCH   7  15
ATOM     15  C   UNL     1      -0.784   4.034  24.956  0.00  0.00    +0.116 C 
BRANCH  15  18
ATOM     18  C   UNL     1      -0.554   2.547  24.895  0.00  0.00    -0.030 A 
ATOM     21  C   UNL     1      -0.000   1.974  23.751  0.00  0.00    +0.050 A 
ATOM     22  C   UNL     1      -0.895   1.743  25.983  0.00  0.00    +0.005 A 
ATOM     24  C   UNL     1       0.214   0.596  23.694  0.00  0.00    +0.120 A 
ATOM     25  C   UNL     1      -0.682   0.365  25.925  0.00  0.00    +0.004 A 
ATOM     26  C   UNL     1      -0.128  -0.208  24.781  0.00  0.00    +0.045 A 
BRANCH  24   6
ATOM      6  O   UNL     1       0.754   0.038  22.576  0.00  0.00    -0.495 OA
ATOM     27  C   UNL     1       2.177   0.021  22.482  0.00  0.00    +0.277 C 
ENDBRANCH  24   6
ENDBRANCH  15  18
ENDBRANCH   7  15
ENDBRANCH   9   7
TORSDOF 8
ENDMDL
MODEL 2
REMARK VINA RESULT:      -4.1      3.055      4.768
REMARK  Name = 71694056
REMARK  9 active torsions:
REMARK  status: ('A' for Active; 'I' for Inactive)
REMARK    1  A    between atoms: O_4  and  C_11
REMARK    2  A    between atoms: O_5  and  C_13
REMARK    3  A    between atoms: O_6  and  C_24
REMARK    4  A    between atoms: O_6  and  C_27
REMARK    5  A    between atoms: N_7  and  C_9
REMARK    6  A    between atoms: N_7  and  C_15
REMARK    7  A    between atoms: C_10  and  C_14
REMARK    8  A    between atoms: C_15  and  C_18
REMARK    9  A    between atoms: C_20  and  C_23
REMARK                            x       y       z     vdW  Elec       q    Type
REMARK                         _______ _______ _______ _____ _____    ______ ____
ROOT
ATOM      9  C   UNL     1      -3.409   2.514  24.123  0.00  0.00    +0.093 C 
ATOM     10  C   UNL     1      -2.279   2.070  25.104  0.00  0.00    +0.042 C 
ATOM     11  C   UNL     1      -3.740   3.960  24.522  0.00  0.00    +0.160 C 
ATOM     12  C   UNL     1      -2.028   3.276  26.029  0.00  0.00    +0.043 C 
ATOM     13  C   UNL     1      -3.344   4.038  25.993  0.00  0.00    +0.145 C 
ENDROOT
BRANCH  10  14
ATOM      8  N   UNL     1       1.383   1.635  24.215  0.00  0.00    -0.251 NA
ATOM     14  C   UNL     1      -1.025   1.573  24.417  0.00  0.00    -0.025 A 
ATOM     16  C   UNL     1      -1.095   0.634  23.393  0.00  0.00    +0.007 A 
ATOM     17  C   UNL     1       0.226   2.037  24.788  0.00  0.00    +0.115 A 
ATOM     19  C   UNL     1       0.074   0.197  22.779  0.00  0.00    +0.032 A 
ATOM     20  C   UNL     1       1.276   0.723  23.223  0.00  0.00    +0.144 A 
BRANCH  20  23
ATOM      1  F   UNL     1       3.079  -0.848  23.156  0.00  0.00    -0.164 F 
ATOM      2  F   UNL     1       2.426  -0.019  21.261  0.00  0.00    -0.164 F 
ATOM      3  F   UNL     1       3.533   1.220  22.663  0.00  0.00    -0.164 F 
ATOM     23  C   UNL     1       2.551   0.276  22.588  0.00  0.00    +0.434 C 
ENDBRANCH  20  23
ENDBRANCH  10  14
BRANCH  11   4
ATOM      4  O   UNL     1      -2.936   4.839  23.735  0.00  0.00    -0.388 OA
ATOM     29  H   UNL     1      -3.474   5.129  22.979  0.00  0.00    +0.210 HD
ENDBRANCH  11   4
BRANCH  13   5
ATOM      5  O   UNL     1      -3.184   5.367  26.444  0.00  0.00    -0.389 OA
ATOM     30  H   UNL     1      -3.787   5.495  27.196  0.00  0.00    +0.210 HD
ENDBRANCH  13   5
BRANCH   9   7
ATOM      7  N   UNL     1      -4.585   1.663  24.314  0.00  0.00    -0.306 NA
ATOM     28  H   UNL     1      -4.751   1.125  23.462  0.00  0.00    +0.123 HD
BRANCH   7  15
ATOM     15  C   UNL     1      -4.381   0.735  25.417  0.00  0.00    +0.116 C 
BRANCH  15  18
ATOM     18  C   UNL     1      -3.924  -0.617  24.935  0.00  0.00    -0.030 A 
ATOM     21  C   UNL     1      -2.729  -1.158  25.409  0.00  0.00    +0.050 A 
ATOM     22  C   UNL     1      -4.695  -1.327  24.016  0.00  0.00    +0.005 A 
ATOM     24  C   UNL     1      -2.304  -2.410  24.963  0.00  0.00    +0.120 A 
ATOM     25  C   UNL     1      -4.270  -2.580  23.569  0.00  0.00    +0.004 A 
ATOM     26  C   UNL     1      -3.075  -3.121  24.043  0.00  0.00    +0.045 A 
BRANCH  24   6
ATOM      6  O   UNL     1      -1.138  -2.938  25.425  0.00  0.00    -0.495 OA
ATOM     27  C   UNL     1       0.007  -2.087  25.416  0.00  0.00    +0.277 C 
ENDBRANCH  24   6
ENDBRANCH  15  18
ENDBRANCH   7  15
ENDBRANCH   9   7
TORSDOF 8
ENDMDL
MODEL 3
REMARK VINA RESULT:      -2.8      3.287      6.406
REMARK  Name = 71694056
REMARK  9 active torsions:
REMARK  status: ('A' for Active; 'I' for Inactive)
REMARK    1  A    between atoms: O_4  and  C_11
REMARK    2  A    between atoms: O_5  and  C_13
REMARK    3  A    between atoms: O_6  and  C_24
REMARK    4  A    between atoms: O_6  and  C_27
REMARK    5  A    between atoms: N_7  and  C_9
REMARK    6  A    between atoms: N_7  and  C_15
REMARK    7  A    between atoms: C_10  and  C_14
REMARK    8  A    between atoms: C_15  and  C_18
REMARK    9  A    between atoms: C_20  and  C_23
REMARK                            x       y       z     vdW  Elec       q    Type
REMARK                         _______ _______ _______ _____ _____    ______ ____
ROOT
ATOM      9  C   UNL     1       0.596  -0.271  24.134  0.00  0.00    +0.093 C 
ATOM     10  C   UNL     1      -0.523   0.094  23.109  0.00  0.00    +0.042 C 
ATOM     11  C   UNL     1       1.910  -0.183  23.341  0.00  0.00    +0.160 C 
ATOM     12  C   UNL     1       0.200   0.359  21.774  0.00  0.00    +0.043 C 
ATOM     13  C   UNL     1       1.488  -0.441  21.898  0.00  0.00    +0.145 C 
ENDROOT
BRANCH  10  14
ATOM      8  N   UNL     1      -1.849   3.033  25.107  0.00  0.00    -0.251 NA
ATOM     14  C   UNL     1      -1.409   1.241  23.545  0.00  0.00    -0.025 A 
ATOM     16  C   UNL     1      -2.560   1.567  22.835  0.00  0.00    +0.007 A 
ATOM     17  C   UNL     1      -1.101   1.998  24.664  0.00  0.00    +0.115 A 
ATOM     19  C   UNL     1      -3.356   2.626  23.261  0.00  0.00    +0.032 A 
ATOM     20  C   UNL     1      -2.960   3.320  24.392  0.00  0.00    +0.144 A 
BRANCH  20  23
ATOM      1  F   UNL     1      -3.987   5.432  23.937  0.00  0.00    -0.164 F 
ATOM      2  F   UNL     1      -5.040   4.096  25.283  0.00  0.00    -0.164 F 
ATOM      3  F   UNL     1      -3.230   5.098  25.948  0.00  0.00    -0.164 F 
ATOM     23  C   UNL     1      -3.789   4.463  24.878  0.00  0.00    +0.434 C 
ENDBRANCH  20  23
ENDBRANCH  10  14
BRANCH  11   4
ATOM      4  O   UNL     1       2.434   1.138  23.485  0.00  0.00    -0.388 OA
ATOM     29  H   UNL     1       2.521   1.314  24.438  0.00  0.00    +0.210 HD
ENDBRANCH  11   4
BRANCH  13   5
ATOM      5  O   UNL     1       2.456  -0.009  20.962  0.00  0.00    -0.389 OA
ATOM     30  H   UNL     1       2.184  -0.336  20.088  0.00  0.00    +0.210 HD
ENDBRANCH  13   5
BRANCH   9   7
ATOM      7  N   UNL     1       0.394  -1.640  24.611  0.00  0.00    -0.306 NA
ATOM     28  H   UNL     1       1.287  -2.019  24.929  0.00  0.00    +0.123 HD
BRANCH   7  15
ATOM     15  C   UNL     1      -0.544  -1.668  25.725  0.00  0.00    +0.116 C 
BRANCH  15  18
ATOM     18  C   UNL     1      -1.972  -1.564  25.258  0.00  0.00    -0.030 A 
ATOM     21  C   UNL     1      -2.794  -0.551  25.753  0.00  0.00    +0.050 A 
ATOM     22  C   UNL     1      -2.472  -2.478  24.332  0.00  0.00    +0.005 A 
ATOM     24  C   UNL     1      -4.117  -0.454  25.321  0.00  0.00    +0.120 A 
ATOM     25  C   UNL     1      -3.796  -2.381  23.900  0.00  0.00    +0.004 A 
ATOM     26  C   UNL     1      -4.618  -1.369  24.395  0.00  0.00    +0.045 A 
BRANCH  24   6
ATOM      6  O   UNL     1      -4.919   0.534  25.805  0.00  0.00    -0.495 OA
ATOM     27  C   UNL     1      -5.865   1.102  24.902  0.00  0.00    +0.277 C 
ENDBRANCH  24   6
ENDBRANCH  15  18
ENDBRANCH   7  15
ENDBRANCH   9   7
TORSDOF 8
ENDMDL
MODEL 4
REMARK VINA RESULT:      -2.4      3.699      6.046
REMARK  Name = 71694056
REMARK  9 active torsions:
REMARK  status: ('A' for Active; 'I' for Inactive)
REMARK    1  A    between atoms: O_4  and  C_11
REMARK    2  A    between atoms: O_5  and  C_13
REMARK    3  A    between atoms: O_6  and  C_24
REMARK    4  A    between atoms: O_6  and  C_27
REMARK    5  A    between atoms: N_7  and  C_9
REMARK    6  A    between atoms: N_7  and  C_15
REMARK    7  A    between atoms: C_10  and  C_14
REMARK    8  A    between atoms: C_15  and  C_18
REMARK    9  A    between atoms: C_20  and  C_23
REMARK                            x       y       z     vdW  Elec       q    Type
REMARK                         _______ _______ _______ _____ _____    ______ ____
ROOT
ATOM      9  C   UNL     1      -2.771  -0.123  24.456  0.00  0.00    +0.093 C 
ATOM     10  C   UNL     1      -1.823  -1.004  23.582  0.00  0.00    +0.042 C 
ATOM     11  C   UNL     1      -3.247  -1.048  25.587  0.00  0.00    +0.160 C 
ATOM     12  C   UNL     1      -1.814  -2.395  24.244  0.00  0.00    +0.043 C 
ATOM     13  C   UNL     1      -3.138  -2.448  24.991  0.00  0.00    +0.145 C 
ENDROOT
BRANCH  10  14
ATOM      8  N   UNL     1       1.720  -0.534  22.312  0.00  0.00    -0.251 NA
ATOM     14  C   UNL     1      -0.439  -0.422  23.395  0.00  0.00    -0.025 A 
ATOM     16  C   UNL     1      -0.039   0.714  24.092  0.00  0.00    +0.007 A 
ATOM     17  C   UNL     1       0.470  -1.002  22.525  0.00  0.00    +0.115 A 
ATOM     19  C   UNL     1       1.240   1.225  23.900  0.00  0.00    +0.032 A 
ATOM     20  C   UNL     1       2.073   0.571  23.008  0.00  0.00    +0.144 A 
BRANCH  20  23
ATOM      1  F   UNL     1       4.352   0.699  23.724  0.00  0.00    -0.164 F 
ATOM      2  F   UNL     1       3.992   0.698  21.585  0.00  0.00    -0.164 F 
ATOM      3  F   UNL     1       3.502   2.456  22.766  0.00  0.00    -0.164 F 
ATOM     23  C   UNL     1       3.452   1.092  22.775  0.00  0.00    +0.434 C 
ENDBRANCH  20  23
ENDBRANCH  10  14
BRANCH  11   4
ATOM      4  O   UNL     1      -2.356  -0.900  26.693  0.00  0.00    -0.388 OA
ATOM     29  H   UNL     1      -1.634  -1.541  26.574  0.00  0.00    +0.210 HD
ENDBRANCH  11   4
BRANCH  13   5
ATOM      5  O   UNL     1      -3.135  -3.460  25.977  0.00  0.00    -0.389 OA
ATOM     30  H   UNL     1      -2.372  -4.037  25.801  0.00  0.00    +0.210 HD
ENDBRANCH  13   5
BRANCH   9   7
ATOM      7  N   UNL     1      -3.916   0.309  23.652  0.00  0.00    -0.306 NA
ATOM     28  H   UNL     1      -4.750   0.326  24.239  0.00  0.00    +0.123 HD
BRANCH   7  15
ATOM     15  C   UNL     1      -3.699   1.647  23.118  0.00  0.00    +0.116 C 
BRANCH  15  18
ATOM     18  C   UNL     1      -3.603   2.679  24.211  0.00  0.00    -0.030 A 
ATOM     21  C   UNL     1      -2.488   3.513  24.286  0.00  0.00    +0.050 A 
ATOM     22  C   UNL     1      -4.629   2.800  25.148  0.00  0.00    +0.005 A 
ATOM     24  C   UNL     1      -2.399   4.469  25.298  0.00  0.00    +0.120 A 
ATOM     25  C   UNL     1      -4.539   3.756  26.161  0.00  0.00    +0.004 A 
ATOM     26  C   UNL     1      -3.424   4.590  26.236  0.00  0.00    +0.045 A 
BRANCH  24   6
ATOM      6  O   UNL     1      -1.310   5.282  25.371  0.00  0.00    -0.495 OA
ATOM     27  C   UNL     1      -0.192   4.945  24.551  0.00  0.00    +0.277 C 
ENDBRANCH  24   6
ENDBRANCH  15  18
ENDBRANCH   7  15
ENDBRANCH   9   7
TORSDOF 8
ENDMDL
MODEL 5
REMARK VINA RESULT:      -2.2      3.968      6.794
REMARK  Name = 71694056
REMARK  9 active torsions:
REMARK  status: ('A' for Active; 'I' for Inactive)
REMARK    1  A    between atoms: O_4  and  C_11
REMARK    2  A    between atoms: O_5  and  C_13
REMARK    3  A    between atoms: O_6  and  C_24
REMARK    4  A    between atoms: O_6  and  C_27
REMARK    5  A    between atoms: N_7  and  C_9
REMARK    6  A    between atoms: N_7  and  C_15
REMARK    7  A    between atoms: C_10  and  C_14
REMARK    8  A    between atoms: C_15  and  C_18
REMARK    9  A    between atoms: C_20  and  C_23
REMARK                            x       y       z     vdW  Elec       q    Type
REMARK                         _______ _______ _______ _____ _____    ______ ____
ROOT
ATOM      9  C   UNL     1      -0.881   0.592  24.013  0.00  0.00    +0.093 C 
ATOM     10  C   UNL     1      -0.085  -0.505  23.239  0.00  0.00    +0.042 C 
ATOM     11  C   UNL     1      -1.766  -0.179  25.004  0.00  0.00    +0.160 C 
ATOM     12  C   UNL     1      -0.563  -1.853  23.811  0.00  0.00    +0.043 C 
ATOM     13  C   UNL     1      -1.952  -1.544  24.348  0.00  0.00    +0.145 C 
ENDROOT
BRANCH  10  14
ATOM      8  N   UNL     1       3.590  -1.281  23.767  0.00  0.00    -0.251 NA
ATOM     14  C   UNL     1       1.418  -0.332  23.294  0.00  0.00    -0.025 A 
ATOM     16  C   UNL     1       2.013   0.875  22.942  0.00  0.00    +0.007 A 
ATOM     17  C   UNL     1       2.243  -1.370  23.696  0.00  0.00    +0.115 A 
ATOM     19  C   UNL     1       3.396   1.005  23.004  0.00  0.00    +0.032 A 
ATOM     20  C   UNL     1       4.133  -0.092  23.419  0.00  0.00    +0.144 A 
BRANCH  20  23
ATOM      1  F   UNL     1       6.172  -0.768  24.472  0.00  0.00    -0.164 F 
ATOM      2  F   UNL     1       6.253  -0.359  22.343  0.00  0.00    -0.164 F 
ATOM      3  F   UNL     1       6.045   1.281  23.755  0.00  0.00    -0.164 F 
ATOM     23  C   UNL     1       5.620   0.010  23.495  0.00  0.00    +0.434 C 
ENDBRANCH  20  23
ENDBRANCH  10  14
BRANCH  11   4
ATOM      4  O   UNL     1      -1.056  -0.304  26.237  0.00  0.00    -0.388 OA
ATOM     29  H   UNL     1      -0.732  -1.220  26.295  0.00  0.00    +0.210 HD
ENDBRANCH  11   4
BRANCH  13   5
ATOM      5  O   UNL     1      -2.385  -2.532  25.262  0.00  0.00    -0.389 OA
ATOM     30  H   UNL     1      -1.879  -3.342  25.077  0.00  0.00    +0.210 HD
ENDBRANCH  13   5
BRANCH   9   7
ATOM      7  N   UNL     1      -1.719   1.341  23.076  0.00  0.00    -0.306 NA
ATOM     28  H   UNL     1      -2.696   1.084  23.221  0.00  0.00    +0.123 HD
BRANCH   7  15
ATOM     15  C   UNL     1      -1.582   2.776  23.288  0.00  0.00    +0.116 C 
BRANCH  15  18
ATOM     18  C   UNL     1      -2.445   3.259  24.425  0.00  0.00    -0.030 A 
ATOM     21  C   UNL     1      -3.785   2.878  24.494  0.00  0.00    +0.050 A 
ATOM     22  C   UNL     1      -1.904   4.088  25.407  0.00  0.00    +0.005 A 
ATOM     24  C   UNL     1      -4.584   3.326  25.546  0.00  0.00    +0.120 A 
ATOM     25  C   UNL     1      -2.703   4.536  26.460  0.00  0.00    +0.004 A 
ATOM     26  C   UNL     1      -4.043   4.155  26.528  0.00  0.00    +0.045 A 
BRANCH  24   6
ATOM      6  O   UNL     1      -5.892   2.954  25.612  0.00  0.00    -0.495 OA
ATOM     27  C   UNL     1      -6.254   1.737  24.964  0.00  0.00    +0.277 C 
ENDBRANCH  24   6
ENDBRANCH  15  18
ENDBRANCH   7  15
ENDBRANCH   9   7
TORSDOF 8
ENDMDL
MODEL 6
REMARK VINA RESULT:      -1.6      3.092      4.985
REMARK  Name = 71694056
REMARK  9 active torsions:
REMARK  status: ('A' for Active; 'I' for Inactive)
REMARK    1  A    between atoms: O_4  and  C_11
REMARK    2  A    between atoms: O_5  and  C_13
REMARK    3  A    between atoms: O_6  and  C_24
REMARK    4  A    between atoms: O_6  and  C_27
REMARK    5  A    between atoms: N_7  and  C_9
REMARK    6  A    between atoms: N_7  and  C_15
REMARK    7  A    between atoms: C_10  and  C_14
REMARK    8  A    between atoms: C_15  and  C_18
REMARK    9  A    between atoms: C_20  and  C_23
REMARK                            x       y       z     vdW  Elec       q    Type
REMARK                         _______ _______ _______ _____ _____    ______ ____
ROOT
ATOM      9  C   UNL     1      -3.234   2.753  24.045  0.00  0.00    +0.093 C 
ATOM     10  C   UNL     1      -2.245   2.077  25.045  0.00  0.00    +0.042 C 
ATOM     11  C   UNL     1      -3.518   4.142  24.638  0.00  0.00    +0.160 C 
ATOM     12  C   UNL     1      -2.021   3.103  26.173  0.00  0.00    +0.043 C 
ATOM     13  C   UNL     1      -3.277   3.960  26.134  0.00  0.00    +0.145 C 
ENDROOT
BRANCH  10  14
ATOM      8  N   UNL     1       0.276  -0.179  23.330  0.00  0.00    -0.251 NA
ATOM     14  C   UNL     1      -0.957   1.597  24.411  0.00  0.00    -0.025 A 
ATOM     16  C   UNL     1       0.150   2.435  24.315  0.00  0.00    +0.007 A 
ATOM     17  C   UNL     1      -0.843   0.312  23.907  0.00  0.00    +0.115 A 
ATOM     19  C   UNL     1       1.320   1.965  23.728  0.00  0.00    +0.032 A 
ATOM     20  C   UNL     1       1.332   0.663  23.256  0.00  0.00    +0.144 A 
BRANCH  20  23
ATOM      1  F   UNL     1       3.645   0.962  22.722  0.00  0.00    -0.164 F 
ATOM      2  F   UNL     1       2.987  -1.061  23.150  0.00  0.00    -0.164 F 
ATOM      3  F   UNL     1       2.413  -0.106  21.283  0.00  0.00    -0.164 F 
ATOM     23  C   UNL     1       2.570   0.126  22.618  0.00  0.00    +0.434 C 
ENDBRANCH  20  23
ENDBRANCH  10  14
BRANCH  11   4
ATOM      4  O   UNL     1      -2.581   5.067  24.085  0.00  0.00    -0.388 OA
ATOM     29  H   UNL     1      -1.878   5.198  24.744  0.00  0.00    +0.210 HD
ENDBRANCH  11   4
BRANCH  13   5
ATOM      5  O   UNL     1      -3.086   5.188  26.807  0.00  0.00    -0.389 OA
ATOM     30  H   UNL     1      -3.844   5.758  26.595  0.00  0.00    +0.210 HD
ENDBRANCH  13   5
BRANCH   9   7
ATOM      7  N   UNL     1      -4.473   1.976  23.982  0.00  0.00    -0.306 NA
ATOM     28  H   UNL     1      -4.400   1.289  23.230  0.00  0.00    +0.123 HD
BRANCH   7  15
ATOM     15  C   UNL     1      -4.707   1.269  25.233  0.00  0.00    +0.116 C 
BRANCH  15  18
ATOM     18  C   UNL     1      -4.211  -0.152  25.177  0.00  0.00    -0.030 A 
ATOM     21  C   UNL     1      -4.435  -0.923  24.036  0.00  0.00    +0.050 A 
ATOM     22  C   UNL     1      -3.529  -0.696  26.264  0.00  0.00    +0.005 A 
ATOM     24  C   UNL     1      -3.975  -2.239  23.983  0.00  0.00    +0.120 A 
ATOM     25  C   UNL     1      -3.070  -2.013  26.211  0.00  0.00    +0.004 A 
ATOM     26  C   UNL     1      -3.294  -2.784  25.071  0.00  0.00    +0.045 A 
BRANCH  24   6
ATOM      6  O   UNL     1      -4.194  -2.991  22.870  0.00  0.00    -0.495 OA
ATOM     27  C   UNL     1      -5.362  -3.811  22.860  0.00  0.00    +0.277 C 
ENDBRANCH  24   6
ENDBRANCH  15  18
ENDBRANCH   7  15
ENDBRANCH   9   7
TORSDOF 8
ENDMDL
MODEL 7
REMARK VINA RESULT:      -1.5      3.922      6.813
REMARK  Name = 71694056
REMARK  9 active torsions:
REMARK  status: ('A' for Active; 'I' for Inactive)
REMARK    1  A    between atoms: O_4  and  C_11
REMARK    2  A    between atoms: O_5  and  C_13
REMARK    3  A    between atoms: O_6  and  C_24
REMARK    4  A    between atoms: O_6  and  C_27
REMARK    5  A    between atoms: N_7  and  C_9
REMARK    6  A    between atoms: N_7  and  C_15
REMARK    7  A    between atoms: C_10  and  C_14
REMARK    8  A    between atoms: C_15  and  C_18
REMARK    9  A    between atoms: C_20  and  C_23
REMARK                            x       y       z     vdW  Elec       q    Type
REMARK                         _______ _______ _______ _____ _____    ______ ____
ROOT
ATOM      9  C   UNL     1      -0.919   0.465  24.029  0.00  0.00    +0.093 C 
ATOM     10  C   UNL     1      -0.111  -0.640  23.277  0.00  0.00    +0.042 C 
ATOM     11  C   UNL     1      -1.815  -0.298  25.017  0.00  0.00    +0.160 C 
ATOM     12  C   UNL     1      -0.595  -1.983  23.856  0.00  0.00    +0.043 C 
ATOM     13  C   UNL     1      -1.991  -1.670  24.373  0.00  0.00    +0.145 C 
ENDROOT
BRANCH  10  14
ATOM      8  N   UNL     1       3.316   0.975  23.097  0.00  0.00    -0.251 NA
ATOM     14  C   UNL     1       1.390  -0.464  23.349  0.00  0.00    -0.025 A 
ATOM     16  C   UNL     1       2.218  -1.520  23.715  0.00  0.00    +0.007 A 
ATOM     17  C   UNL     1       1.984   0.753  23.053  0.00  0.00    +0.115 A 
ATOM     19  C   UNL     1       3.595  -1.330  23.771  0.00  0.00    +0.032 A 
ATOM     20  C   UNL     1       4.089  -0.075  23.456  0.00  0.00    +0.144 A 
BRANCH  20  23
ATOM      1  F   UNL     1       5.893   1.469  23.750  0.00  0.00    -0.164 F 
ATOM      2  F   UNL     1       6.199  -0.552  24.477  0.00  0.00    -0.164 F 
ATOM      3  F   UNL     1       6.186  -0.160  22.339  0.00  0.00    -0.164 F 
ATOM     23  C   UNL     1       5.561   0.167  23.507  0.00  0.00    +0.434 C 
ENDBRANCH  20  23
ENDBRANCH  10  14
BRANCH  11   4
ATOM      4  O   UNL     1      -1.121  -0.410  26.260  0.00  0.00    -0.388 OA
ATOM     29  H   UNL     1      -0.509   0.344  26.321  0.00  0.00    +0.210 HD
ENDBRANCH  11   4
BRANCH  13   5
ATOM      5  O   UNL     1      -2.434  -2.649  25.290  0.00  0.00    -0.389 OA
ATOM     30  H   UNL     1      -3.323  -2.928  25.013  0.00  0.00    +0.210 HD
ENDBRANCH  13   5
BRANCH   9   7
ATOM      7  N   UNL     1      -1.746   1.203  23.074  0.00  0.00    -0.306 NA
ATOM     28  H   UNL     1      -1.529   0.886  22.128  0.00  0.00    +0.123 HD
BRANCH   7  15
ATOM     15  C   UNL     1      -3.162   0.973  23.326  0.00  0.00    +0.116 C 
BRANCH  15  18
ATOM     18  C   UNL     1      -3.744   2.014  24.245  0.00  0.00    -0.030 A 
ATOM     21  C   UNL     1      -2.951   3.070  24.693  0.00  0.00    +0.050 A 
ATOM     22  C   UNL     1      -5.076   1.921  24.649  0.00  0.00    +0.005 A 
ATOM     24  C   UNL     1      -3.490   4.036  25.544  0.00  0.00    +0.120 A 
ATOM     25  C   UNL     1      -5.615   2.886  25.501  0.00  0.00    +0.004 A 
ATOM     26  C   UNL     1      -4.822   3.943  25.949  0.00  0.00    +0.045 A 
BRANCH  24   6
ATOM      6  O   UNL     1      -2.716   5.066  25.981  0.00  0.00    -0.495 OA
ATOM     27  C   UNL     1      -1.538   5.357  25.230  0.00  0.00    +0.277 C 
ENDBRANCH  24   6
ENDBRANCH  15  18
ENDBRANCH   7  15
ENDBRANCH   9   7
TORSDOF 8
ENDMDL
