MODEL 1
REMARK VINA RESULT:       4.7      0.000      0.000
REMARK  Name = 45783985
REMARK  11 active torsions:
REMARK  status: ('A' for Active; 'I' for Inactive)
REMARK    1  A    between atoms: N_5  and  C_15
REMARK    2  A    between atoms: N_9  and  C_35
REMARK    3  A    between atoms: C_10  and  C_14
REMARK    4  A    between atoms: C_11  and  C_15
REMARK    5  A    between atoms: C_13  and  C_18
REMARK    6  A    between atoms: C_14  and  C_19
REMARK    7  A    between atoms: C_14  and  C_20
REMARK    8  A    between atoms: C_17  and  C_23
REMARK    9  A    between atoms: C_18  and  C_26
REMARK   10  A    between atoms: C_27  and  C_29
REMARK   11  A    between atoms: C_28  and  C_30
REMARK                            x       y       z     vdW  Elec       q    Type
REMARK                         _______ _______ _______ _____ _____    ______ ____
ROOT
ATOM     10  C   UNL     1      -1.390   3.968  24.255  0.00  0.00    +0.000 C 
ATOM     11  C   UNL     1      -0.957   2.916  25.302  0.00  0.00    +0.029 C 
ATOM     12  C   UNL     1      -2.905   4.208  24.328  0.00  0.00    +0.012 C 
ATOM     13  C   UNL     1      -3.388   4.647  25.727  0.00  0.00    +0.024 C 
ATOM     16  C   UNL     1      -1.606   3.134  26.645  0.00  0.00    -0.023 C 
ATOM     17  C   UNL     1      -2.683   3.913  26.858  0.00  0.00    -0.073 C 
ATOM     23  C   UNL     1      -3.197   4.130  28.254  0.00  0.00    +0.039 C 
ENDROOT
BRANCH  10  14
ATOM     14  C   UNL     1      -0.612   5.279  24.425  0.00  0.00    -0.013 C 
ATOM     19  C   UNL     1      -1.572   6.441  24.661  0.00  0.00    +0.007 C 
ATOM     20  C   UNL     1       0.263   5.541  23.204  0.00  0.00    +0.007 C 
ENDBRANCH  10  14
BRANCH  11  15
ATOM     15  C   UNL     1      -1.253   1.489  24.826  0.00  0.00    +0.092 C 
BRANCH  15   5
ATOM      2  O   UNL     1       3.913  -1.753  23.521  0.00  0.00    -0.276 OA
ATOM      5  N   UNL     1      -0.199   1.014  23.932  0.00  0.00    -0.299 NA
ATOM      6  N   UNL     1       2.397  -0.011  23.281  0.00  0.00    -0.299 N 
ATOM     21  C   UNL     1       0.152  -0.379  24.243  0.00  0.00    +0.103 C 
ATOM     22  C   UNL     1       0.989   1.877  24.028  0.00  0.00    +0.103 C 
ATOM     24  C   UNL     1       1.230  -0.892  23.288  0.00  0.00    +0.123 C 
ATOM     25  C   UNL     1       2.087   1.407  23.073  0.00  0.00    +0.123 C 
ATOM     27  C   UNL     1       3.678  -0.555  23.345  0.00  0.00    +0.213 C 
ATOM     29  C   UNL     1       4.828   0.408  23.188  0.00  0.00    +0.109 C 
ENDBRANCH  15   5
ENDBRANCH  11  15
BRANCH  13  18
ATOM     18  C   UNL     1      -4.914   4.506  25.785  0.00  0.00    +0.105 C 
BRANCH  18  26
ATOM      1  O   UNL     1      -4.451   2.159  25.300  0.00  0.00    -0.420 OA
ATOM      7  N   UNL     1      -6.442   2.521  26.251  0.00  0.00    -0.112 NA
ATOM      8  N   UNL     1      -6.313   1.162  26.034  0.00  0.00    -0.107 NA
ATOM     26  C   UNL     1      -5.332   3.063  25.807  0.00  0.00    +0.218 A 
ATOM     28  C   UNL     1      -5.136   0.997  25.477  0.00  0.00    +0.248 A 
BRANCH  28  30
ATOM     30  C   UNL     1      -4.474  -0.197  25.036  0.00  0.00    +0.039 A 
ATOM     31  C   UNL     1      -4.725  -0.703  23.761  0.00  0.00    +0.015 A 
ATOM     32  C   UNL     1      -3.578  -0.850  25.882  0.00  0.00    +0.015 A 
ATOM     33  C   UNL     1      -4.082  -1.863  23.332  0.00  0.00    +0.033 A 
ATOM     34  C   UNL     1      -2.935  -2.011  25.454  0.00  0.00    +0.033 A 
ATOM     35  C   UNL     1      -3.187  -2.518  24.178  0.00  0.00    +0.126 A 
BRANCH  35   9
ATOM      3  O   UNL     1      -1.274  -3.723  23.724  0.00  0.00    -0.126 OA
ATOM      4  O   UNL     1      -3.219  -4.682  23.384  0.00  0.00    -0.126 OA
ATOM      9  N   UNL     1      -2.529  -3.698  23.741  0.00  0.00    +0.056 N 
ENDBRANCH  35   9
ENDBRANCH  28  30
ENDBRANCH  18  26
ENDBRANCH  13  18
TORSDOF 7
ENDMDL
MODEL 2
REMARK VINA RESULT:       6.8      2.476      5.460
REMARK  Name = 45783985
REMARK  11 active torsions:
REMARK  status: ('A' for Active; 'I' for Inactive)
REMARK    1  A    between atoms: N_5  and  C_15
REMARK    2  A    between atoms: N_9  and  C_35
REMARK    3  A    between atoms: C_10  and  C_14
REMARK    4  A    between atoms: C_11  and  C_15
REMARK    5  A    between atoms: C_13  and  C_18
REMARK    6  A    between atoms: C_14  and  C_19
REMARK    7  A    between atoms: C_14  and  C_20
REMARK    8  A    between atoms: C_17  and  C_23
REMARK    9  A    between atoms: C_18  and  C_26
REMARK   10  A    between atoms: C_27  and  C_29
REMARK   11  A    between atoms: C_28  and  C_30
REMARK                            x       y       z     vdW  Elec       q    Type
REMARK                         _______ _______ _______ _____ _____    ______ ____
ROOT
ATOM     10  C   UNL     1      -2.970   2.824  23.154  0.00  0.00    +0.000 C 
ATOM     11  C   UNL     1      -3.752   3.887  23.960  0.00  0.00    +0.029 C 
ATOM     12  C   UNL     1      -2.886   1.509  23.940  0.00  0.00    +0.012 C 
ATOM     13  C   UNL     1      -4.267   0.941  24.334  0.00  0.00    +0.024 C 
ATOM     16  C   UNL     1      -4.998   3.329  24.600  0.00  0.00    -0.023 C 
ATOM     17  C   UNL     1      -5.252   2.018  24.764  0.00  0.00    -0.073 C 
ATOM     23  C   UNL     1      -6.567   1.567  25.338  0.00  0.00    +0.039 C 
ENDROOT
BRANCH  10  14
ATOM     14  C   UNL     1      -3.592   2.604  21.768  0.00  0.00    -0.013 C 
ATOM     19  C   UNL     1      -2.574   1.978  20.821  0.00  0.00    +0.007 C 
ATOM     20  C   UNL     1      -4.116   3.921  21.205  0.00  0.00    +0.007 C 
ENDBRANCH  10  14
BRANCH  11  15
ATOM     15  C   UNL     1      -2.878   4.534  25.040  0.00  0.00    +0.092 C 
BRANCH  15   5
ATOM      2  O   UNL     1       0.914   2.025  29.310  0.00  0.00    -0.276 OA
ATOM      5  N   UNL     1      -1.833   3.611  25.479  0.00  0.00    -0.299 NA
ATOM      6  N   UNL     1       0.286   2.696  27.177  0.00  0.00    -0.299 N 
ATOM     21  C   UNL     1      -2.124   3.107  26.829  0.00  0.00    +0.103 C 
ATOM     22  C   UNL     1      -0.517   4.268  25.449  0.00  0.00    +0.103 C 
ATOM     24  C   UNL     1      -1.052   2.115  27.279  0.00  0.00    +0.123 C 
ATOM     25  C   UNL     1       0.588   3.301  25.877  0.00  0.00    +0.123 C 
ATOM     27  C   UNL     1       1.193   2.538  28.224  0.00  0.00    +0.213 C 
ATOM     29  C   UNL     1       2.594   3.040  27.982  0.00  0.00    +0.109 C 
ENDBRANCH  15   5
ENDBRANCH  11  15
BRANCH  13  18
ATOM     18  C   UNL     1      -4.065  -0.143  25.399  0.00  0.00    +0.105 C 
BRANCH  18  26
ATOM      1  O   UNL     1      -1.731  -0.208  24.690  0.00  0.00    -0.420 OA
ATOM      7  N   UNL     1      -2.538  -2.182  25.364  0.00  0.00    -0.112 NA
ATOM      8  N   UNL     1      -1.218  -2.363  24.995  0.00  0.00    -0.107 NA
ATOM     26  C   UNL     1      -2.793  -0.909  25.169  0.00  0.00    +0.218 A 
ATOM     28  C   UNL     1      -0.788  -1.185  24.608  0.00  0.00    +0.248 A 
BRANCH  28  30
ATOM     30  C   UNL     1       0.499  -0.778  24.122  0.00  0.00    +0.039 A 
ATOM     31  C   UNL     1       1.582  -1.653  24.196  0.00  0.00    +0.015 A 
ATOM     32  C   UNL     1       0.666   0.493  23.573  0.00  0.00    +0.015 A 
ATOM     33  C   UNL     1       2.833  -1.257  23.725  0.00  0.00    +0.033 A 
ATOM     34  C   UNL     1       1.917   0.890  23.101  0.00  0.00    +0.033 A 
ATOM     35  C   UNL     1       3.001   0.015  23.177  0.00  0.00    +0.126 A 
BRANCH  35   9
ATOM      3  O   UNL     1       4.348   0.974  21.570  0.00  0.00    -0.126 OA
ATOM      4  O   UNL     1       5.288   0.207  23.400  0.00  0.00    -0.126 OA
ATOM      9  N   UNL     1       4.274   0.418  22.693  0.00  0.00    +0.056 N 
ENDBRANCH  35   9
ENDBRANCH  28  30
ENDBRANCH  18  26
ENDBRANCH  13  18
TORSDOF 7
ENDMDL
MODEL 3
REMARK VINA RESULT:       8.1      1.996      6.555
REMARK  Name = 45783985
REMARK  11 active torsions:
REMARK  status: ('A' for Active; 'I' for Inactive)
REMARK    1  A    between atoms: N_5  and  C_15
REMARK    2  A    between atoms: N_9  and  C_35
REMARK    3  A    between atoms: C_10  and  C_14
REMARK    4  A    between atoms: C_11  and  C_15
REMARK    5  A    between atoms: C_13  and  C_18
REMARK    6  A    between atoms: C_14  and  C_19
REMARK    7  A    between atoms: C_14  and  C_20
REMARK    8  A    between atoms: C_17  and  C_23
REMARK    9  A    between atoms: C_18  and  C_26
REMARK   10  A    between atoms: C_27  and  C_29
REMARK   11  A    between atoms: C_28  and  C_30
REMARK                            x       y       z     vdW  Elec       q    Type
REMARK                         _______ _______ _______ _____ _____    ______ ____
ROOT
ATOM     10  C   UNL     1      -2.625   3.148  25.869  0.00  0.00    +0.000 C 
ATOM     11  C   UNL     1      -4.154   3.148  25.643  0.00  0.00    +0.029 C 
ATOM     12  C   UNL     1      -1.914   2.392  24.738  0.00  0.00    +0.012 C 
ATOM     13  C   UNL     1      -2.225   2.957  23.335  0.00  0.00    +0.024 C 
ATOM     16  C   UNL     1      -4.528   3.440  24.211  0.00  0.00    -0.023 C 
ATOM     17  C   UNL     1      -3.679   3.373  23.170  0.00  0.00    -0.073 C 
ATOM     23  C   UNL     1      -4.136   3.770  21.793  0.00  0.00    +0.039 C 
ENDROOT
BRANCH  10  14
ATOM     14  C   UNL     1      -2.080   4.575  26.011  0.00  0.00    -0.013 C 
ATOM     19  C   UNL     1      -3.206   5.592  25.852  0.00  0.00    +0.007 C 
ATOM     20  C   UNL     1      -0.976   4.827  24.990  0.00  0.00    +0.007 C 
ENDBRANCH  10  14
BRANCH  11  15
ATOM     15  C   UNL     1      -4.790   1.820  26.068  0.00  0.00    +0.092 C 
BRANCH  15   5
ATOM      2  O   UNL     1      -4.694  -3.672  23.111  0.00  0.00    -0.276 OA
ATOM      5  N   UNL     1      -4.117   0.695  25.420  0.00  0.00    -0.299 NA
ATOM      6  N   UNL     1      -3.863  -2.006  24.500  0.00  0.00    -0.299 N 
ATOM     21  C   UNL     1      -4.894   0.225  24.264  0.00  0.00    +0.103 C 
ATOM     22  C   UNL     1      -3.905  -0.401  26.377  0.00  0.00    +0.103 C 
ATOM     24  C   UNL     1      -4.177  -0.928  23.563  0.00  0.00    +0.123 C 
ATOM     25  C   UNL     1      -3.173  -1.571  25.718  0.00  0.00    +0.123 C 
ATOM     27  C   UNL     1      -4.111  -3.331  24.143  0.00  0.00    +0.213 C 
ATOM     29  C   UNL     1      -3.627  -4.389  25.102  0.00  0.00    +0.109 C 
ENDBRANCH  15   5
ENDBRANCH  11  15
BRANCH  13  18
ATOM     18  C   UNL     1      -1.774   1.934  22.285  0.00  0.00    +0.105 C 
BRANCH  18  26
ATOM      1  O   UNL     1       0.498   1.128  22.662  0.00  0.00    -0.420 OA
ATOM      7  N   UNL     1      -1.091  -0.154  23.576  0.00  0.00    -0.112 NA
ATOM      8  N   UNL     1       0.136  -0.722  23.864  0.00  0.00    -0.107 NA
ATOM     26  C   UNL     1      -0.830   0.924  22.872  0.00  0.00    +0.218 A 
ATOM     28  C   UNL     1       1.033   0.059  23.311  0.00  0.00    +0.248 A 
BRANCH  28  30
ATOM     30  C   UNL     1       2.464  -0.039  23.287  0.00  0.00    +0.039 A 
ATOM     31  C   UNL     1       3.228   1.030  22.820  0.00  0.00    +0.015 A 
ATOM     32  C   UNL     1       3.091  -1.203  23.731  0.00  0.00    +0.015 A 
ATOM     33  C   UNL     1       4.619   0.935  22.796  0.00  0.00    +0.033 A 
ATOM     34  C   UNL     1       4.482  -1.299  23.707  0.00  0.00    +0.033 A 
ATOM     35  C   UNL     1       5.247  -0.229  23.239  0.00  0.00    +0.126 A 
BRANCH  35   9
ATOM      3  O   UNL     1       7.215  -0.961  22.286  0.00  0.00    -0.126 OA
ATOM      4  O   UNL     1       7.324   0.226  24.130  0.00  0.00    -0.126 OA
ATOM      9  N   UNL     1       6.664  -0.326  23.218  0.00  0.00    +0.056 N 
ENDBRANCH  35   9
ENDBRANCH  28  30
ENDBRANCH  18  26
ENDBRANCH  13  18
TORSDOF 7
ENDMDL
MODEL 4
REMARK VINA RESULT:       8.2      2.757      5.461
REMARK  Name = 45783985
REMARK  11 active torsions:
REMARK  status: ('A' for Active; 'I' for Inactive)
REMARK    1  A    between atoms: N_5  and  C_15
REMARK    2  A    between atoms: N_9  and  C_35
REMARK    3  A    between atoms: C_10  and  C_14
REMARK    4  A    between atoms: C_11  and  C_15
REMARK    5  A    between atoms: C_13  and  C_18
REMARK    6  A    between atoms: C_14  and  C_19
REMARK    7  A    between atoms: C_14  and  C_20
REMARK    8  A    between atoms: C_17  and  C_23
REMARK    9  A    between atoms: C_18  and  C_26
REMARK   10  A    between atoms: C_27  and  C_29
REMARK   11  A    between atoms: C_28  and  C_30
REMARK                            x       y       z     vdW  Elec       q    Type
REMARK                         _______ _______ _______ _____ _____    ______ ____
ROOT
ATOM     10  C   UNL     1      -3.095  -0.593  24.448  0.00  0.00    +0.000 C 
ATOM     11  C   UNL     1      -2.026   0.051  23.535  0.00  0.00    +0.029 C 
ATOM     12  C   UNL     1      -3.929   0.490  25.146  0.00  0.00    +0.012 C 
ATOM     13  C   UNL     1      -4.613   1.465  24.163  0.00  0.00    +0.024 C 
ATOM     16  C   UNL     1      -2.572   1.200  22.724  0.00  0.00    -0.023 C 
ATOM     17  C   UNL     1      -3.730   1.834  22.980  0.00  0.00    -0.073 C 
ATOM     23  C   UNL     1      -4.225   2.912  22.055  0.00  0.00    +0.039 C 
ENDROOT
BRANCH  10  14
ATOM     14  C   UNL     1      -3.989  -1.563  23.664  0.00  0.00    -0.013 C 
ATOM     19  C   UNL     1      -5.458  -1.317  23.994  0.00  0.00    +0.007 C 
ATOM     20  C   UNL     1      -3.601  -3.006  23.966  0.00  0.00    +0.007 C 
ENDBRANCH  10  14
BRANCH  11  15
ATOM     15  C   UNL     1      -0.813   0.534  24.337  0.00  0.00    +0.092 C 
BRANCH  15   5
ATOM      2  O   UNL     1       5.022  -1.606  23.800  0.00  0.00    -0.276 OA
ATOM      5  N   UNL     1       0.426   0.284  23.602  0.00  0.00    -0.299 NA
ATOM      6  N   UNL     1       3.236  -0.199  23.324  0.00  0.00    -0.299 N 
ATOM     21  C   UNL     1       1.001  -1.013  23.985  0.00  0.00    +0.103 C 
ATOM     22  C   UNL     1       1.394   1.366  23.838  0.00  0.00    +0.103 C 
ATOM     24  C   UNL     1       2.277  -1.295  23.193  0.00  0.00    +0.123 C 
ATOM     25  C   UNL     1       2.683   1.130  23.048  0.00  0.00    +0.123 C 
ATOM     27  C   UNL     1       4.580  -0.477  23.569  0.00  0.00    +0.213 C 
ATOM     29  C   UNL     1       5.526   0.696  23.548  0.00  0.00    +0.109 C 
ENDBRANCH  15   5
ENDBRANCH  11  15
BRANCH  13  18
ATOM     18  C   UNL     1      -5.103   2.687  24.947  0.00  0.00    +0.105 C 
BRANCH  18  26
ATOM      1  O   UNL     1      -2.974   2.764  26.136  0.00  0.00    -0.420 OA
ATOM      7  N   UNL     1      -3.743   4.768  25.507  0.00  0.00    -0.112 NA
ATOM      8  N   UNL     1      -2.540   4.958  26.163  0.00  0.00    -0.107 NA
ATOM     26  C   UNL     1      -3.955   3.472  25.516  0.00  0.00    +0.218 A 
ATOM     28  C   UNL     1      -2.129   3.762  26.513  0.00  0.00    +0.248 A 
BRANCH  28  30
ATOM     30  C   UNL     1      -0.947   3.353  27.217  0.00  0.00    +0.039 A 
ATOM     31  C   UNL     1      -0.973   3.220  28.605  0.00  0.00    +0.015 A 
ATOM     32  C   UNL     1       0.227   3.086  26.513  0.00  0.00    +0.015 A 
ATOM     33  C   UNL     1       0.175   2.824  29.289  0.00  0.00    +0.033 A 
ATOM     34  C   UNL     1       1.375   2.689  27.196  0.00  0.00    +0.033 A 
ATOM     35  C   UNL     1       1.349   2.558  28.585  0.00  0.00    +0.126 A 
BRANCH  35   9
ATOM      3  O   UNL     1       3.638   2.333  28.746  0.00  0.00    -0.126 OA
ATOM      4  O   UNL     1       2.399   1.620  30.411  0.00  0.00    -0.126 OA
ATOM      9  N   UNL     1       2.519   2.151  29.282  0.00  0.00    +0.056 N 
ENDBRANCH  35   9
ENDBRANCH  28  30
ENDBRANCH  18  26
ENDBRANCH  13  18
TORSDOF 7
ENDMDL
