MODEL 1
REMARK VINA RESULT:       3.7      0.000      0.000
REMARK  Name = 11884096
REMARK  9 active torsions:
REMARK  status: ('A' for Active; 'I' for Inactive)
REMARK    1  A    between atoms: O_6  and  C_15
REMARK    2  A    between atoms: O_6  and  C_19
REMARK    3  A    between atoms: N_9  and  C_14
REMARK    4  A    between atoms: N_10  and  C_20
REMARK    5  A    between atoms: N_11  and  C_21
REMARK    6  A    between atoms: C_26  and  C_27
REMARK    7  A    between atoms: C_27  and  C_32
REMARK    8  A    between atoms: C_27  and  C_33
REMARK    9  A    between atoms: C_30  and  C_35
REMARK                            x       y       z     vdW  Elec       q    Type
REMARK                         _______ _______ _______ _____ _____    ______ ____
ROOT
ATOM      4  O   UNL     1      -3.817   3.460  24.331  0.00  0.00    -0.368 OA
ATOM      5  O   UNL     1      -3.794   5.589  26.538  0.00  0.00    -0.368 OA
ATOM     12  C   UNL     1      -2.961   4.432  26.318  0.00  0.00    +0.173 C 
ATOM     13  C   UNL     1      -3.857   3.343  25.764  0.00  0.00    +0.192 C 
ATOM     14  C   UNL     1      -1.984   4.702  25.196  0.00  0.00    +0.131 C 
ATOM     15  C   UNL     1      -5.210   3.721  26.318  0.00  0.00    +0.235 C 
ATOM     16  C   UNL     1      -2.829   4.433  23.962  0.00  0.00    +0.185 C 
ATOM     17  C   UNL     1      -5.160   5.233  26.279  0.00  0.00    +0.207 C 
ENDROOT
BRANCH  14   9
ATOM      7  O   UNL     1      -1.088   2.916  23.144  0.00  0.00    -0.252 OA
ATOM      9  N   UNL     1      -0.852   3.812  25.262  0.00  0.00    -0.292 N 
ATOM     10  N   UNL     1       0.651   2.222  24.559  0.00  0.00    -0.269 N 
ATOM     18  C   UNL     1      -0.480   2.966  24.210  0.00  0.00    +0.304 C 
ATOM     36  H   UNL     1      -0.259   3.843  26.086  0.00  0.00    +0.151 HD
ATOM     37  H   UNL     1       1.034   2.383  25.488  0.00  0.00    +0.156 HD
BRANCH  10  20
ATOM     20  C   UNL     1       1.333   1.261  23.778  0.00  0.00    +0.035 A 
ATOM     24  C   UNL     1       2.722   1.151  23.862  0.00  0.00    +0.035 A 
ATOM     25  C   UNL     1       0.619   0.425  22.921  0.00  0.00    +0.023 A 
ATOM     30  C   UNL     1       3.394   0.205  23.089  0.00  0.00    +0.057 A 
ATOM     31  C   UNL     1       1.292  -0.522  22.148  0.00  0.00    +0.002 A 
ATOM     34  C   UNL     1       2.680  -0.631  22.232  0.00  0.00    +0.012 A 
BRANCH  30  35
ATOM      1  F   UNL     1       5.463   1.085  23.905  0.00  0.00    -0.166 F 
ATOM      2  F   UNL     1       5.504   0.121  21.963  0.00  0.00    -0.166 F 
ATOM      3  F   UNL     1       5.280  -1.077  23.763  0.00  0.00    -0.166 F 
ATOM     35  C   UNL     1       4.879   0.089  23.177  0.00  0.00    +0.417 C 
ENDBRANCH  30  35
ENDBRANCH  10  20
ENDBRANCH  14   9
BRANCH  15   6
ATOM      6  O   UNL     1      -6.289   3.206  25.570  0.00  0.00    -0.442 OA
BRANCH   6  19
ATOM      8  O   UNL     1      -6.964   1.426  24.304  0.00  0.00    -0.226 OA
ATOM     11  N   UNL     1      -4.922   1.418  25.447  0.00  0.00    -0.251 N 
ATOM     19  C   UNL     1      -6.129   1.946  25.033  0.00  0.00    +0.405 C 
ATOM     38  H   UNL     1      -4.359   2.005  26.057  0.00  0.00    +0.158 HD
BRANCH  11  21
ATOM     21  C   UNL     1      -4.369   0.155  25.130  0.00  0.00    +0.036 A 
ATOM     22  C   UNL     1      -3.671  -0.564  26.101  0.00  0.00    +0.024 A 
ATOM     23  C   UNL     1      -4.523  -0.371  23.849  0.00  0.00    +0.024 A 
ATOM     26  C   UNL     1      -3.280  -2.336  24.506  0.00  0.00    -0.045 A 
ATOM     28  C   UNL     1      -3.127  -1.809  25.789  0.00  0.00    +0.006 A 
ATOM     29  C   UNL     1      -3.979  -1.617  23.535  0.00  0.00    +0.006 A 
BRANCH  26  27
ATOM     27  C   UNL     1      -2.697  -3.667  24.171  0.00  0.00    +0.013 C 
ATOM     32  C   UNL     1      -3.560  -4.450  23.163  0.00  0.00    +0.012 C 
ATOM     33  C   UNL     1      -1.251  -3.562  23.650  0.00  0.00    +0.012 C 
ENDBRANCH  26  27
ENDBRANCH  11  21
ENDBRANCH   6  19
ENDBRANCH  15   6
TORSDOF 7
ENDMDL
MODEL 2
REMARK VINA RESULT:       6.0      2.147      5.191
REMARK  Name = 11884096
REMARK  9 active torsions:
REMARK  status: ('A' for Active; 'I' for Inactive)
REMARK    1  A    between atoms: O_6  and  C_15
REMARK    2  A    between atoms: O_6  and  C_19
REMARK    3  A    between atoms: N_9  and  C_14
REMARK    4  A    between atoms: N_10  and  C_20
REMARK    5  A    between atoms: N_11  and  C_21
REMARK    6  A    between atoms: C_26  and  C_27
REMARK    7  A    between atoms: C_27  and  C_32
REMARK    8  A    between atoms: C_27  and  C_33
REMARK    9  A    between atoms: C_30  and  C_35
REMARK                            x       y       z     vdW  Elec       q    Type
REMARK                         _______ _______ _______ _____ _____    ______ ____
ROOT
ATOM      4  O   UNL     1      -4.096   3.246  26.474  0.00  0.00    -0.368 OA
ATOM      5  O   UNL     1      -6.508   4.678  25.233  0.00  0.00    -0.368 OA
ATOM     12  C   UNL     1      -5.883   3.414  24.924  0.00  0.00    +0.173 C 
ATOM     13  C   UNL     1      -4.391   3.602  25.113  0.00  0.00    +0.192 C 
ATOM     14  C   UNL     1      -6.253   2.384  25.967  0.00  0.00    +0.131 C 
ATOM     15  C   UNL     1      -4.216   5.083  24.872  0.00  0.00    +0.235 C 
ATOM     16  C   UNL     1      -5.271   2.691  27.085  0.00  0.00    +0.185 C 
ATOM     17  C   UNL     1      -5.484   5.655  25.469  0.00  0.00    +0.207 C 
ENDROOT
BRANCH  14   9
ATOM      7  O   UNL     1      -3.763   1.036  25.532  0.00  0.00    -0.252 OA
ATOM      9  N   UNL     1      -6.074   1.044  25.464  0.00  0.00    -0.292 N 
ATOM     10  N   UNL     1      -4.955  -0.843  24.783  0.00  0.00    -0.269 N 
ATOM     18  C   UNL     1      -4.816   0.456  25.279  0.00  0.00    +0.304 C 
ATOM     36  H   UNL     1      -6.899   0.476  25.296  0.00  0.00    +0.151 HD
ATOM     37  H   UNL     1      -5.904  -1.174  24.627  0.00  0.00    +0.156 HD
BRANCH  10  20
ATOM     20  C   UNL     1      -3.930  -1.764  24.464  0.00  0.00    +0.035 A 
ATOM     24  C   UNL     1      -2.646  -1.587  24.982  0.00  0.00    +0.035 A 
ATOM     25  C   UNL     1      -4.202  -2.848  23.630  0.00  0.00    +0.023 A 
ATOM     30  C   UNL     1      -1.636  -2.495  24.665  0.00  0.00    +0.057 A 
ATOM     31  C   UNL     1      -3.190  -3.755  23.313  0.00  0.00    +0.002 A 
ATOM     34  C   UNL     1      -1.908  -3.578  23.831  0.00  0.00    +0.012 A 
BRANCH  30  35
ATOM      1  F   UNL     1       0.639  -1.854  24.296  0.00  0.00    -0.166 F 
ATOM      2  F   UNL     1       0.287  -3.448  25.723  0.00  0.00    -0.166 F 
ATOM      3  F   UNL     1      -0.228  -1.400  26.238  0.00  0.00    -0.166 F 
ATOM     35  C   UNL     1      -0.263  -2.305  25.217  0.00  0.00    +0.417 C 
ENDBRANCH  30  35
ENDBRANCH  10  20
ENDBRANCH  14   9
BRANCH  15   6
ATOM      6  O   UNL     1      -3.058   5.618  25.472  0.00  0.00    -0.442 OA
BRANCH   6  19
ATOM      8  O   UNL     1      -0.803   5.705  25.105  0.00  0.00    -0.226 OA
ATOM     11  N   UNL     1      -2.037   3.754  24.722  0.00  0.00    -0.251 N 
ATOM     19  C   UNL     1      -1.850   5.071  25.093  0.00  0.00    +0.405 C 
ATOM     38  H   UNL     1      -2.989   3.400  24.780  0.00  0.00    +0.158 HD
BRANCH  11  21
ATOM     21  C   UNL     1      -1.067   2.831  24.269  0.00  0.00    +0.036 A 
ATOM     22  C   UNL     1       0.237   2.891  24.761  0.00  0.00    +0.024 A 
ATOM     23  C   UNL     1      -1.414   1.859  23.331  0.00  0.00    +0.024 A 
ATOM     26  C   UNL     1       0.848   1.009  23.376  0.00  0.00    -0.045 A 
ATOM     28  C   UNL     1       1.194   1.980  24.315  0.00  0.00    +0.006 A 
ATOM     29  C   UNL     1      -0.457   0.947  22.884  0.00  0.00    +0.006 A 
BRANCH  26  27
ATOM     27  C   UNL     1       1.871   0.034  22.897  0.00  0.00    +0.013 C 
ATOM     32  C   UNL     1       1.520  -0.557  21.519  0.00  0.00    +0.012 C 
ATOM     33  C   UNL     1       3.287   0.639  22.862  0.00  0.00    +0.012 C 
ENDBRANCH  26  27
ENDBRANCH  11  21
ENDBRANCH   6  19
ENDBRANCH  15   6
TORSDOF 7
ENDMDL
MODEL 3
REMARK VINA RESULT:       7.2      2.213      5.368
REMARK  Name = 11884096
REMARK  9 active torsions:
REMARK  status: ('A' for Active; 'I' for Inactive)
REMARK    1  A    between atoms: O_6  and  C_15
REMARK    2  A    between atoms: O_6  and  C_19
REMARK    3  A    between atoms: N_9  and  C_14
REMARK    4  A    between atoms: N_10  and  C_20
REMARK    5  A    between atoms: N_11  and  C_21
REMARK    6  A    between atoms: C_26  and  C_27
REMARK    7  A    between atoms: C_27  and  C_32
REMARK    8  A    between atoms: C_27  and  C_33
REMARK    9  A    between atoms: C_30  and  C_35
REMARK                            x       y       z     vdW  Elec       q    Type
REMARK                         _______ _______ _______ _____ _____    ______ ____
ROOT
ATOM      4  O   UNL     1      -3.666  -1.140  25.844  0.00  0.00    -0.368 OA
ATOM      5  O   UNL     1      -3.910  -3.514  23.917  0.00  0.00    -0.368 OA
ATOM     12  C   UNL     1      -2.849  -2.560  24.129  0.00  0.00    +0.173 C 
ATOM     13  C   UNL     1      -3.506  -1.226  24.417  0.00  0.00    +0.192 C 
ATOM     14  C   UNL     1      -2.109  -2.883  25.408  0.00  0.00    +0.131 C 
ATOM     15  C   UNL     1      -4.836  -1.358  23.713  0.00  0.00    +0.235 C 
ATOM     16  C   UNL     1      -3.001  -2.251  26.463  0.00  0.00    +0.185 C 
ATOM     17  C   UNL     1      -5.166  -2.819  23.927  0.00  0.00    +0.207 C 
ENDROOT
BRANCH  14   9
ATOM      7  O   UNL     1      -0.701  -1.817  23.152  0.00  0.00    -0.252 OA
ATOM      9  N   UNL     1      -0.793  -2.295  25.412  0.00  0.00    -0.292 N 
ATOM     10  N   UNL     1       1.094  -1.290  24.570  0.00  0.00    -0.269 N 
ATOM     18  C   UNL     1      -0.172  -1.795  24.261  0.00  0.00    +0.304 C 
ATOM     36  H   UNL     1      -0.317  -2.179  26.303  0.00  0.00    +0.151 HD
ATOM     37  H   UNL     1       1.384  -1.350  25.543  0.00  0.00    +0.156 HD
BRANCH  10  20
ATOM     20  C   UNL     1       2.032  -0.701  23.690  0.00  0.00    +0.035 A 
ATOM     24  C   UNL     1       3.377  -0.623  24.054  0.00  0.00    +0.035 A 
ATOM     25  C   UNL     1       1.613  -0.197  22.459  0.00  0.00    +0.023 A 
ATOM     30  C   UNL     1       4.300  -0.041  23.187  0.00  0.00    +0.057 A 
ATOM     31  C   UNL     1       2.537   0.385  21.592  0.00  0.00    +0.002 A 
ATOM     34  C   UNL     1       3.881   0.464  21.956  0.00  0.00    +0.012 A 
BRANCH  30  35
ATOM      1  F   UNL     1       6.139   1.307  23.910  0.00  0.00    -0.166 F 
ATOM      2  F   UNL     1       6.597  -0.353  22.593  0.00  0.00    -0.166 F 
ATOM      3  F   UNL     1       6.036  -0.732  24.658  0.00  0.00    -0.166 F 
ATOM     35  C   UNL     1       5.738   0.046  23.577  0.00  0.00    +0.417 C 
ENDBRANCH  30  35
ENDBRANCH  10  20
ENDBRANCH  14   9
BRANCH  15   6
ATOM      6  O   UNL     1      -5.834  -0.507  24.228  0.00  0.00    -0.442 OA
BRANCH   6  19
ATOM      8  O   UNL     1      -6.224   1.599  25.030  0.00  0.00    -0.226 OA
ATOM     11  N   UNL     1      -4.106   0.939  24.283  0.00  0.00    -0.251 N 
ATOM     19  C   UNL     1      -5.449   0.775  24.561  0.00  0.00    +0.405 C 
ATOM     38  H   UNL     1      -3.624   0.133  23.893  0.00  0.00    +0.158 HD
BRANCH  11  21
ATOM     21  C   UNL     1      -3.312   2.094  24.472  0.00  0.00    +0.036 A 
ATOM     22  C   UNL     1      -1.953   2.066  24.159  0.00  0.00    +0.024 A 
ATOM     23  C   UNL     1      -3.889   3.262  24.971  0.00  0.00    +0.024 A 
ATOM     26  C   UNL     1      -1.747   4.373  24.844  0.00  0.00    -0.045 A 
ATOM     28  C   UNL     1      -1.171   3.206  24.344  0.00  0.00    +0.006 A 
ATOM     29  C   UNL     1      -3.106   4.402  25.157  0.00  0.00    +0.006 A 
BRANCH  26  27
ATOM     27  C   UNL     1      -0.911   5.593  25.044  0.00  0.00    +0.013 C 
ATOM     32  C   UNL     1       0.314   5.625  24.110  0.00  0.00    +0.012 C 
ATOM     33  C   UNL     1      -1.722   6.893  24.888  0.00  0.00    +0.012 C 
ENDBRANCH  26  27
ENDBRANCH  11  21
ENDBRANCH   6  19
ENDBRANCH  15   6
TORSDOF 7
ENDMDL
