MODEL 1
REMARK VINA RESULT:      -3.2      0.000      0.000
REMARK  Name = 75536063
REMARK  7 active torsions:
REMARK  status: ('A' for Active; 'I' for Inactive)
REMARK    1  A    between atoms: O_1  and  C_9
REMARK    2  A    between atoms: O_2  and  C_11
REMARK    3  A    between atoms: O_4  and  C_23
REMARK    4  A    between atoms: O_4  and  C_24
REMARK    5  A    between atoms: N_5  and  C_8
REMARK    6  A    between atoms: C_7  and  C_12
REMARK    7  A    between atoms: C_15  and  C_17
REMARK                            x       y       z     vdW  Elec       q    Type
REMARK                         _______ _______ _______ _____ _____    ______ ____
ROOT
ATOM      7  C   UNL     1      -1.911  -0.044  25.452  0.00  0.00    +0.046 C 
ATOM      8  C   UNL     1      -1.255  -0.838  24.299  0.00  0.00    +0.112 C 
ATOM      9  C   UNL     1      -1.620  -2.289  24.614  0.00  0.00    +0.164 C 
ATOM     10  C   UNL     1      -3.055  -0.943  25.988  0.00  0.00    +0.044 C 
ATOM     11  C   UNL     1      -3.061  -2.186  25.099  0.00  0.00    +0.145 C 
ENDROOT
BRANCH   7  12
ATOM      6  N   UNL     1      -1.924   3.725  25.012  0.00  0.00    -0.263 NA
ATOM     12  C   UNL     1      -2.351   1.345  25.039  0.00  0.00    -0.024 A 
ATOM     13  C   UNL     1      -3.535   1.542  24.336  0.00  0.00    +0.007 A 
ATOM     14  C   UNL     1      -1.589   2.459  25.350  0.00  0.00    +0.114 A 
ATOM     16  C   UNL     1      -3.914   2.829  23.971  0.00  0.00    +0.020 A 
ATOM     18  C   UNL     1      -3.080   3.877  24.330  0.00  0.00    +0.111 A 
ENDBRANCH   7  12
BRANCH   8   5
ATOM      3  O   UNL     1       0.321  -0.305  21.958  0.00  0.00    -0.270 OA
ATOM      5  N   UNL     1       0.171  -0.640  24.249  0.00  0.00    -0.305 N 
ATOM     15  C   UNL     1       0.850  -0.386  23.065  0.00  0.00    +0.244 C 
ATOM     25  H   UNL     1       0.675  -0.717  25.125  0.00  0.00    +0.149 HD
BRANCH  15  17
ATOM     17  C   UNL     1       2.322  -0.232  23.178  0.00  0.00    +0.037 A 
ATOM     19  C   UNL     1       3.096  -1.277  23.683  0.00  0.00    +0.016 A 
ATOM     20  C   UNL     1       2.932   0.958  22.779  0.00  0.00    +0.016 A 
ATOM     21  C   UNL     1       4.479  -1.133  23.790  0.00  0.00    +0.046 A 
ATOM     22  C   UNL     1       4.315   1.102  22.885  0.00  0.00    +0.046 A 
ATOM     23  C   UNL     1       5.089   0.057  23.392  0.00  0.00    +0.120 A 
BRANCH  23   4
ATOM      4  O   UNL     1       6.439   0.198  23.496  0.00  0.00    -0.495 OA
ATOM     24  C   UNL     1       7.247  -0.746  22.796  0.00  0.00    +0.277 C 
ENDBRANCH  23   4
ENDBRANCH  15  17
ENDBRANCH   8   5
BRANCH   9   1
ATOM      1  O   UNL     1      -1.521  -3.126  23.477  0.00  0.00    -0.387 OA
ATOM     26  H   UNL     1      -0.973  -2.662  22.821  0.00  0.00    +0.210 HD
ENDBRANCH   9   1
BRANCH  11   2
ATOM      2  O   UNL     1      -3.951  -1.962  24.010  0.00  0.00    -0.389 OA
ATOM     27  H   UNL     1      -3.721  -2.596  23.309  0.00  0.00    +0.210 HD
ENDBRANCH  11   2
TORSDOF 6
ENDMDL
MODEL 2
REMARK VINA RESULT:      -1.8      2.362      3.961
REMARK  Name = 75536063
REMARK  7 active torsions:
REMARK  status: ('A' for Active; 'I' for Inactive)
REMARK    1  A    between atoms: O_1  and  C_9
REMARK    2  A    between atoms: O_2  and  C_11
REMARK    3  A    between atoms: O_4  and  C_23
REMARK    4  A    between atoms: O_4  and  C_24
REMARK    5  A    between atoms: N_5  and  C_8
REMARK    6  A    between atoms: C_7  and  C_12
REMARK    7  A    between atoms: C_15  and  C_17
REMARK                            x       y       z     vdW  Elec       q    Type
REMARK                         _______ _______ _______ _____ _____    ______ ____
ROOT
ATOM      7  C   UNL     1      -3.195   1.406  23.777  0.00  0.00    +0.046 C 
ATOM      8  C   UNL     1      -2.137   2.094  24.670  0.00  0.00    +0.112 C 
ATOM      9  C   UNL     1      -2.529   3.570  24.614  0.00  0.00    +0.164 C 
ATOM     10  C   UNL     1      -4.416   2.361  23.756  0.00  0.00    +0.044 C 
ATOM     11  C   UNL     1      -4.051   3.526  24.676  0.00  0.00    +0.145 C 
ENDROOT
BRANCH   7  12
ATOM      6  N   UNL     1      -3.688  -1.621  26.010  0.00  0.00    -0.263 NA
ATOM     12  C   UNL     1      -3.515  -0.006  24.219  0.00  0.00    -0.024 A 
ATOM     13  C   UNL     1      -3.916  -0.971  23.301  0.00  0.00    +0.007 A 
ATOM     14  C   UNL     1      -3.417  -0.379  25.550  0.00  0.00    +0.114 A 
ATOM     16  C   UNL     1      -4.203  -2.260  23.736  0.00  0.00    +0.020 A 
ATOM     18  C   UNL     1      -4.074  -2.531  25.089  0.00  0.00    +0.111 A 
ENDBRANCH   7  12
BRANCH   8   5
ATOM      3  O   UNL     1      -0.754  -0.420  24.535  0.00  0.00    -0.270 OA
ATOM      5  N   UNL     1      -0.797   1.873  24.189  0.00  0.00    -0.305 N 
ATOM     15  C   UNL     1      -0.209   0.616  24.161  0.00  0.00    +0.244 C 
ATOM     25  H   UNL     1      -0.279   2.691  23.886  0.00  0.00    +0.149 HD
BRANCH  15  17
ATOM     17  C   UNL     1       1.188   0.561  23.661  0.00  0.00    +0.037 A 
ATOM     19  C   UNL     1       1.911   1.741  23.478  0.00  0.00    +0.016 A 
ATOM     20  C   UNL     1       1.779  -0.670  23.375  0.00  0.00    +0.016 A 
ATOM     21  C   UNL     1       3.223   1.689  23.009  0.00  0.00    +0.046 A 
ATOM     22  C   UNL     1       3.091  -0.722  22.906  0.00  0.00    +0.046 A 
ATOM     23  C   UNL     1       3.813   0.458  22.722  0.00  0.00    +0.120 A 
BRANCH  23   4
ATOM      4  O   UNL     1       5.094   0.407  22.264  0.00  0.00    -0.495 OA
ATOM     24  C   UNL     1       6.101   0.008  23.192  0.00  0.00    +0.277 C 
ENDBRANCH  23   4
ENDBRANCH  15  17
ENDBRANCH   8   5
BRANCH   9   1
ATOM      1  O   UNL     1      -1.994   4.309  25.696  0.00  0.00    -0.387 OA
ATOM     26  H   UNL     1      -2.472   4.037  26.498  0.00  0.00    +0.210 HD
ENDBRANCH   9   1
BRANCH  11   2
ATOM      2  O   UNL     1      -4.501   3.225  25.993  0.00  0.00    -0.389 OA
ATOM     27  H   UNL     1      -5.171   3.888  26.231  0.00  0.00    +0.210 HD
ENDBRANCH  11   2
TORSDOF 6
ENDMDL
