MODEL 1
REMARK VINA RESULT:       1.1      0.000      0.000
REMARK  Name = 40780082
REMARK  9 active torsions:
REMARK  status: ('A' for Active; 'I' for Inactive)
REMARK    1  A    between atoms: O_1  and  C_16
REMARK    2  A    between atoms: O_1  and  C_26
REMARK    3  A    between atoms: O_3  and  C_32
REMARK    4  A    between atoms: O_3  and  C_33
REMARK    5  A    between atoms: N_5  and  C_24
REMARK    6  A    between atoms: N_7  and  C_27
REMARK    7  A    between atoms: C_9  and  C_15
REMARK    8  A    between atoms: C_11  and  C_16
REMARK    9  A    between atoms: C_18  and  C_19
REMARK                            x       y       z     vdW  Elec       q    Type
REMARK                         _______ _______ _______ _____ _____    ______ ____
ROOT
ATOM      4  N   UNL     1     -10.078  -8.303   8.712  0.00  0.00    -0.296 NA
ATOM      8  C   UNL     1      -8.341  -7.200  10.309  0.00  0.00    +0.002 C 
ATOM      9  C   UNL     1      -7.620  -7.935   9.146  0.00  0.00    +0.055 C 
ATOM     10  C   UNL     1      -9.248  -8.198  11.061  0.00  0.00    +0.026 C 
ATOM     11  C   UNL     1     -10.380  -8.668  10.122  0.00  0.00    +0.095 C 
ATOM     12  C   UNL     1      -8.702  -8.730   8.360  0.00  0.00    +0.094 C 
ATOM     13  C   UNL     1      -9.265  -6.145   9.663  0.00  0.00    +0.019 C 
ATOM     14  C   UNL     1     -10.147  -6.825   8.601  0.00  0.00    +0.085 C 
ENDROOT
BRANCH   9  15
ATOM      5  N   UNL     1      -6.229 -10.053   8.996  0.00  0.00    -0.271 N 
ATOM      6  N   UNL     1      -5.091 -10.638   9.408  0.00  0.00    -0.176 NA
ATOM     15  C   UNL     1      -6.405  -8.790   9.479  0.00  0.00    +0.044 A 
ATOM     17  C   UNL     1      -5.306  -8.530  10.261  0.00  0.00    +0.048 A 
ATOM     18  C   UNL     1      -4.532  -9.703  10.179  0.00  0.00    +0.066 A 
ATOM     24  C   UNL     1      -7.121 -10.781   8.124  0.00  0.00    +0.172 C 
BRANCH  18  19
ATOM     19  C   UNL     1      -3.198  -9.979  10.851  0.00  0.00    +0.040 C 
ATOM     20  C   UNL     1      -3.357 -10.205  12.364  0.00  0.00    +0.010 C 
ATOM     21  C   UNL     1      -2.171  -8.870  10.565  0.00  0.00    +0.010 C 
ATOM     22  C   UNL     1      -2.011 -10.491  13.030  0.00  0.00    +0.001 C 
ATOM     23  C   UNL     1      -0.832  -9.162  11.237  0.00  0.00    +0.001 C 
ATOM     25  C   UNL     1      -0.993  -9.395  12.736  0.00  0.00    +0.000 C 
ENDBRANCH  18  19
ENDBRANCH   9  15
BRANCH  11  16
ATOM     16  C   UNL     1     -10.674 -10.160  10.286  0.00  0.00    +0.252 C 
BRANCH  16   1
ATOM      1  O   UNL     1      -9.627 -10.742  11.039  0.00  0.00    -0.449 OA
BRANCH   1  26
ATOM      2  O   UNL     1     -10.596 -10.130  13.018  0.00  0.00    -0.226 OA
ATOM      7  N   UNL     1      -8.306 -10.588  12.856  0.00  0.00    -0.251 N 
ATOM     26  C   UNL     1      -9.598 -10.452  12.386  0.00  0.00    +0.405 C 
ATOM     34  H   UNL     1      -7.606 -10.866  12.173  0.00  0.00    +0.158 HD
BRANCH   7  27
ATOM     27  C   UNL     1      -7.834 -10.385  14.173  0.00  0.00    +0.037 A 
ATOM     28  C   UNL     1      -8.739 -10.195  15.216  0.00  0.00    +0.027 A 
ATOM     29  C   UNL     1      -6.463 -10.374  14.429  0.00  0.00    +0.027 A 
ATOM     30  C   UNL     1      -8.274  -9.995  16.516  0.00  0.00    +0.047 A 
ATOM     31  C   UNL     1      -5.997 -10.174  15.728  0.00  0.00    +0.047 A 
ATOM     32  C   UNL     1      -6.903  -9.985  16.771  0.00  0.00    +0.120 A 
BRANCH  32   3
ATOM      3  O   UNL     1      -6.449  -9.790  18.039  0.00  0.00    -0.495 OA
ATOM     33  C   UNL     1      -5.445 -10.685  18.515  0.00  0.00    +0.277 C 
ENDBRANCH  32   3
ENDBRANCH   7  27
ENDBRANCH   1  26
ENDBRANCH  16   1
ENDBRANCH  11  16
TORSDOF 7
ENDMDL
MODEL 2
REMARK VINA RESULT:       2.4     15.893     19.075
REMARK  Name = 40780082
REMARK  9 active torsions:
REMARK  status: ('A' for Active; 'I' for Inactive)
REMARK    1  A    between atoms: O_1  and  C_16
REMARK    2  A    between atoms: O_1  and  C_26
REMARK    3  A    between atoms: O_3  and  C_32
REMARK    4  A    between atoms: O_3  and  C_33
REMARK    5  A    between atoms: N_5  and  C_24
REMARK    6  A    between atoms: N_7  and  C_27
REMARK    7  A    between atoms: C_9  and  C_15
REMARK    8  A    between atoms: C_11  and  C_16
REMARK    9  A    between atoms: C_18  and  C_19
REMARK                            x       y       z     vdW  Elec       q    Type
REMARK                         _______ _______ _______ _____ _____    ______ ____
ROOT
ATOM      4  N   UNL     1      -4.694   1.867  23.541  0.00  0.00    -0.296 NA
ATOM      8  C   UNL     1      -4.500   2.643  26.020  0.00  0.00    +0.002 C 
ATOM      9  C   UNL     1      -3.351   3.249  25.169  0.00  0.00    +0.055 C 
ATOM     10  C   UNL     1      -4.466   1.104  25.903  0.00  0.00    +0.026 C 
ATOM     11  C   UNL     1      -4.784   0.694  24.449  0.00  0.00    +0.095 C 
ATOM     12  C   UNL     1      -3.415   2.586  23.764  0.00  0.00    +0.094 C 
ATOM     13  C   UNL     1      -5.824   3.116  25.381  0.00  0.00    +0.019 C 
ATOM     14  C   UNL     1      -5.807   2.789  23.877  0.00  0.00    +0.085 C 
ENDROOT
BRANCH   9  15
ATOM      5  N   UNL     1      -0.946   4.052  25.302  0.00  0.00    -0.271 N 
ATOM      6  N   UNL     1       0.221   3.886  25.946  0.00  0.00    -0.176 NA
ATOM     15  C   UNL     1      -1.944   3.236  25.750  0.00  0.00    +0.044 A 
ATOM     17  C   UNL     1      -1.390   2.485  26.758  0.00  0.00    +0.048 A 
ATOM     18  C   UNL     1      -0.056   2.928  26.834  0.00  0.00    +0.066 A 
ATOM     24  C   UNL     1      -1.035   5.029  24.243  0.00  0.00    +0.172 C 
BRANCH  18  19
ATOM     19  C   UNL     1       1.027   2.441  27.780  0.00  0.00    +0.040 C 
ATOM     20  C   UNL     1       0.523   2.359  29.231  0.00  0.00    +0.010 C 
ATOM     21  C   UNL     1       2.299   3.301  27.688  0.00  0.00    +0.010 C 
ATOM     22  C   UNL     1       1.616   1.859  30.175  0.00  0.00    +0.001 C 
ATOM     23  C   UNL     1       3.384   2.797  28.636  0.00  0.00    +0.001 C 
ATOM     25  C   UNL     1       2.879   2.708  30.073  0.00  0.00    +0.000 C 
ENDBRANCH  18  19
ENDBRANCH   9  15
BRANCH  11  16
ATOM     16  C   UNL     1      -3.912  -0.472  23.982  0.00  0.00    +0.252 C 
BRANCH  16   1
ATOM      1  O   UNL     1      -3.128  -0.910  25.075  0.00  0.00    -0.449 OA
BRANCH   1  26
ATOM      2  O   UNL     1      -1.147  -2.035  25.276  0.00  0.00    -0.226 OA
ATOM      7  N   UNL     1      -1.312  -0.031  24.077  0.00  0.00    -0.251 N 
ATOM     26  C   UNL     1      -1.781  -1.080  24.843  0.00  0.00    +0.405 C 
ATOM     34  H   UNL     1      -1.996   0.674  23.812  0.00  0.00    +0.158 HD
BRANCH   7  27
ATOM     27  C   UNL     1       0.006   0.187  23.614  0.00  0.00    +0.037 A 
ATOM     28  C   UNL     1       0.558  -0.663  22.656  0.00  0.00    +0.027 A 
ATOM     29  C   UNL     1       0.754   1.252  24.114  0.00  0.00    +0.027 A 
ATOM     30  C   UNL     1       1.858  -0.449  22.199  0.00  0.00    +0.047 A 
ATOM     31  C   UNL     1       2.054   1.467  23.657  0.00  0.00    +0.047 A 
ATOM     32  C   UNL     1       2.606   0.616  22.699  0.00  0.00    +0.120 A 
BRANCH  32   3
ATOM      3  O   UNL     1       3.874   0.826  22.253  0.00  0.00    -0.495 OA
ATOM     33  C   UNL     1       4.939   0.365  23.084  0.00  0.00    +0.277 C 
ENDBRANCH  32   3
ENDBRANCH   7  27
ENDBRANCH   1  26
ENDBRANCH  16   1
ENDBRANCH  11  16
TORSDOF 7
ENDMDL
MODEL 3
REMARK VINA RESULT:       2.4     15.161     18.556
REMARK  Name = 40780082
REMARK  9 active torsions:
REMARK  status: ('A' for Active; 'I' for Inactive)
REMARK    1  A    between atoms: O_1  and  C_16
REMARK    2  A    between atoms: O_1  and  C_26
REMARK    3  A    between atoms: O_3  and  C_32
REMARK    4  A    between atoms: O_3  and  C_33
REMARK    5  A    between atoms: N_5  and  C_24
REMARK    6  A    between atoms: N_7  and  C_27
REMARK    7  A    between atoms: C_9  and  C_15
REMARK    8  A    between atoms: C_11  and  C_16
REMARK    9  A    between atoms: C_18  and  C_19
REMARK                            x       y       z     vdW  Elec       q    Type
REMARK                         _______ _______ _______ _____ _____    ______ ____
ROOT
ATOM      4  N   UNL     1      -3.045  -2.481  23.764  0.00  0.00    -0.296 NA
ATOM      8  C   UNL     1      -3.033  -1.405  26.136  0.00  0.00    +0.002 C 
ATOM      9  C   UNL     1      -4.007  -0.642  25.198  0.00  0.00    +0.055 C 
ATOM     10  C   UNL     1      -1.622  -1.414  25.511  0.00  0.00    +0.026 C 
ATOM     11  C   UNL     1      -1.646  -2.235  24.203  0.00  0.00    +0.095 C 
ATOM     12  C   UNL     1      -3.808  -1.209  23.763  0.00  0.00    +0.094 C 
ATOM     13  C   UNL     1      -3.517  -2.871  26.182  0.00  0.00    +0.019 C 
ATOM     14  C   UNL     1      -3.676  -3.398  24.745  0.00  0.00    +0.085 C 
ENDROOT
BRANCH   9  15
ATOM      5  N   UNL     1      -5.099   1.637  25.448  0.00  0.00    -0.271 N 
ATOM      6  N   UNL     1      -4.868   2.960  25.433  0.00  0.00    -0.176 NA
ATOM     15  C   UNL     1      -3.986   0.880  25.225  0.00  0.00    +0.044 A 
ATOM     17  C   UNL     1      -2.955   1.772  25.053  0.00  0.00    +0.048 A 
ATOM     18  C   UNL     1      -3.557   3.036  25.191  0.00  0.00    +0.066 A 
ATOM     24  C   UNL     1      -6.440   1.157  25.685  0.00  0.00    +0.172 C 
BRANCH  18  19
ATOM     19  C   UNL     1      -2.886   4.395  25.096  0.00  0.00    +0.040 C 
ATOM     20  C   UNL     1      -3.365   5.184  23.865  0.00  0.00    +0.010 C 
ATOM     21  C   UNL     1      -1.352   4.279  25.111  0.00  0.00    +0.010 C 
ATOM     22  C   UNL     1      -2.692   6.554  23.783  0.00  0.00    +0.001 C 
ATOM     23  C   UNL     1      -0.687   5.651  25.025  0.00  0.00    +0.001 C 
ATOM     25  C   UNL     1      -1.172   6.436  23.809  0.00  0.00    +0.000 C 
ENDBRANCH  18  19
ENDBRANCH   9  15
BRANCH  11  16
ATOM     16  C   UNL     1      -0.797  -1.590  23.107  0.00  0.00    +0.252 C 
BRANCH  16   1
ATOM      1  O   UNL     1      -0.766  -0.193  23.331  0.00  0.00    -0.449 OA
BRANCH   1  26
ATOM      2  O   UNL     1       0.592   1.451  24.157  0.00  0.00    -0.226 OA
ATOM      7  N   UNL     1       1.460  -0.490  23.178  0.00  0.00    -0.251 N 
ATOM     26  C   UNL     1       0.463   0.363  23.609  0.00  0.00    +0.405 C 
ATOM     34  H   UNL     1       1.154  -1.357  22.743  0.00  0.00    +0.158 HD
BRANCH   7  27
ATOM     27  C   UNL     1       2.859  -0.309  23.266  0.00  0.00    +0.037 A 
ATOM     28  C   UNL     1       3.438   0.876  22.812  0.00  0.00    +0.027 A 
ATOM     29  C   UNL     1       3.661  -1.314  23.806  0.00  0.00    +0.027 A 
ATOM     30  C   UNL     1       4.819   1.055  22.899  0.00  0.00    +0.047 A 
ATOM     31  C   UNL     1       5.041  -1.135  23.892  0.00  0.00    +0.047 A 
ATOM     32  C   UNL     1       5.620   0.050  23.439  0.00  0.00    +0.120 A 
BRANCH  32   3
ATOM      3  O   UNL     1       6.967   0.225  23.523  0.00  0.00    -0.495 OA
ATOM     33  C   UNL     1       7.787  -0.674  22.778  0.00  0.00    +0.277 C 
ENDBRANCH  32   3
ENDBRANCH   7  27
ENDBRANCH   1  26
ENDBRANCH  16   1
ENDBRANCH  11  16
TORSDOF 7
ENDMDL
MODEL 4
REMARK VINA RESULT:       4.5     15.210     18.697
REMARK  Name = 40780082
REMARK  9 active torsions:
REMARK  status: ('A' for Active; 'I' for Inactive)
REMARK    1  A    between atoms: O_1  and  C_16
REMARK    2  A    between atoms: O_1  and  C_26
REMARK    3  A    between atoms: O_3  and  C_32
REMARK    4  A    between atoms: O_3  and  C_33
REMARK    5  A    between atoms: N_5  and  C_24
REMARK    6  A    between atoms: N_7  and  C_27
REMARK    7  A    between atoms: C_9  and  C_15
REMARK    8  A    between atoms: C_11  and  C_16
REMARK    9  A    between atoms: C_18  and  C_19
REMARK                            x       y       z     vdW  Elec       q    Type
REMARK                         _______ _______ _______ _____ _____    ______ ____
ROOT
ATOM      4  N   UNL     1      -1.233   4.998  25.318  0.00  0.00    -0.296 NA
ATOM      8  C   UNL     1      -3.249   4.519  23.741  0.00  0.00    +0.002 C 
ATOM      9  C   UNL     1      -3.493   3.891  25.140  0.00  0.00    +0.055 C 
ATOM     10  C   UNL     1      -1.930   3.971  23.156  0.00  0.00    +0.026 C 
ATOM     11  C   UNL     1      -0.747   4.453  24.024  0.00  0.00    +0.095 C 
ATOM     12  C   UNL     1      -2.175   4.042  25.951  0.00  0.00    +0.094 C 
ATOM     13  C   UNL     1      -3.052   6.034  23.961  0.00  0.00    +0.019 C 
ATOM     14  C   UNL     1      -1.971   6.254  25.035  0.00  0.00    +0.085 C 
ENDROOT
BRANCH   9  15
ATOM      5  N   UNL     1      -5.346   2.202  25.539  0.00  0.00    -0.271 N 
ATOM      6  N   UNL     1      -5.640   0.891  25.538  0.00  0.00    -0.176 NA
ATOM     15  C   UNL     1      -4.052   2.476  25.205  0.00  0.00    +0.044 A 
ATOM     17  C   UNL     1      -3.459   1.260  24.968  0.00  0.00    +0.048 A 
ATOM     18  C   UNL     1      -4.484   0.321  25.189  0.00  0.00    +0.066 A 
ATOM     24  C   UNL     1      -6.375   3.156  25.881  0.00  0.00    +0.172 C 
BRANCH  18  19
ATOM     19  C   UNL     1      -4.395  -1.190  25.069  0.00  0.00    +0.040 C 
ATOM     20  C   UNL     1      -3.160  -1.748  25.797  0.00  0.00    +0.010 C 
ATOM     21  C   UNL     1      -4.423  -1.653  23.602  0.00  0.00    +0.010 C 
ATOM     22  C   UNL     1      -3.083  -3.271  25.680  0.00  0.00    +0.001 C 
ATOM     23  C   UNL     1      -4.343  -3.173  23.494  0.00  0.00    +0.001 C 
ATOM     25  C   UNL     1      -3.123  -3.726  24.225  0.00  0.00    +0.000 C 
ENDBRANCH  18  19
ENDBRANCH   9  15
BRANCH  11  16
ATOM     16  C   UNL     1       0.305   3.359  24.211  0.00  0.00    +0.252 C 
BRANCH  16   1
ATOM      1  O   UNL     1      -0.241   2.132  23.766  0.00  0.00    -0.449 OA
BRANCH   1  26
ATOM      2  O   UNL     1       0.215  -0.105  23.898  0.00  0.00    -0.226 OA
ATOM      7  N   UNL     1       1.902   1.479  23.544  0.00  0.00    -0.251 N 
ATOM     26  C   UNL     1       0.606   1.046  23.749  0.00  0.00    +0.405 C 
ATOM     34  H   UNL     1       2.030   2.483  23.441  0.00  0.00    +0.158 HD
BRANCH   7  27
ATOM     27  C   UNL     1       3.077   0.699  23.459  0.00  0.00    +0.037 A 
ATOM     28  C   UNL     1       3.007  -0.686  23.615  0.00  0.00    +0.027 A 
ATOM     29  C   UNL     1       4.307   1.312  23.221  0.00  0.00    +0.027 A 
ATOM     30  C   UNL     1       4.166  -1.457  23.532  0.00  0.00    +0.047 A 
ATOM     31  C   UNL     1       5.466   0.541  23.138  0.00  0.00    +0.047 A 
ATOM     32  C   UNL     1       5.396  -0.843  23.293  0.00  0.00    +0.120 A 
BRANCH  32   3
ATOM      3  O   UNL     1       6.527  -1.596  23.211  0.00  0.00    -0.495 OA
ATOM     33  C   UNL     1       7.707  -0.945  22.744  0.00  0.00    +0.277 C 
ENDBRANCH  32   3
ENDBRANCH   7  27
ENDBRANCH   1  26
ENDBRANCH  16   1
ENDBRANCH  11  16
TORSDOF 7
ENDMDL
