MODEL 1
REMARK VINA RESULT:      11.2      0.000      0.000
REMARK  Name = 28960004
REMARK  8 active torsions:
REMARK  status: ('A' for Active; 'I' for Inactive)
REMARK    1  A    between atoms: O_2  and  C_27
REMARK    2  A    between atoms: N_6  and  C_15
REMARK    3  A    between atoms: N_7  and  C_18
REMARK    4  A    between atoms: N_8  and  C_24
REMARK    5  A    between atoms: C_10  and  C_12
REMARK    6  A    between atoms: C_11  and  C_17
REMARK    7  A    between atoms: C_12  and  C_15
REMARK    8  A    between atoms: C_17  and  C_27
REMARK                            x       y       z     vdW  Elec       q    Type
REMARK                         _______ _______ _______ _____ _____    ______ ____
ROOT
ATOM      1  O   UNL     1      -6.108   0.486  26.140  0.00  0.00    -0.253 OA
ATOM      5  N   UNL     1      -5.061   2.084  24.825  0.00  0.00    -0.285 N 
ATOM      8  N   UNL     1      -4.469  -0.201  24.689  0.00  0.00    -0.296 N 
ATOM     10  C   UNL     1      -3.099   3.534  24.386  0.00  0.00    +0.011 C 
ATOM     11  C   UNL     1      -3.875   4.717  25.022  0.00  0.00    +0.006 C 
ATOM     13  C   UNL     1      -4.095   2.516  23.804  0.00  0.00    +0.113 C 
ATOM     14  C   UNL     1      -4.942   4.231  26.018  0.00  0.00    +0.023 C 
ATOM     16  C   UNL     1      -5.853   3.176  25.392  0.00  0.00    +0.109 C 
ATOM     23  C   UNL     1      -5.272   0.771  25.275  0.00  0.00    +0.302 C 
ATOM     38  H   UNL     1      -3.688   0.062  24.106  0.00  0.00    +0.151 HD
ENDROOT
BRANCH   8  24
ATOM     24  C   UNL     1      -4.563  -1.598  25.054  0.00  0.00    +0.074 C 
ATOM     25  C   UNL     1      -4.329  -2.500  23.837  0.00  0.00    +0.022 C 
ATOM     26  C   UNL     1      -3.593  -1.936  26.190  0.00  0.00    +0.022 C 
ATOM     28  C   UNL     1      -2.869  -2.505  23.384  0.00  0.00    +0.002 C 
ATOM     29  C   UNL     1      -2.134  -1.942  25.733  0.00  0.00    +0.002 C 
ATOM     30  C   UNL     1      -1.925  -2.855  24.530  0.00  0.00    +0.000 C 
ENDBRANCH   8  24
BRANCH  10  12
ATOM     12  C   UNL     1      -2.123   2.840  25.344  0.00  0.00    +0.020 C 
BRANCH  12  15
ATOM     15  C   UNL     1      -2.052   1.347  25.061  0.00  0.00    +0.085 C 
BRANCH  15   6
ATOM      6  N   UNL     1      -0.860   1.045  24.269  0.00  0.00    -0.302 NA
ATOM     18  C   UNL     1       1.986   0.496  23.871  0.00  0.00    +0.095 C 
ATOM     19  C   UNL     1      -0.291  -0.248  24.668  0.00  0.00    +0.086 C 
ATOM     20  C   UNL     1       0.129   2.124  24.399  0.00  0.00    +0.086 C 
ATOM     21  C   UNL     1       0.926  -0.604  23.812  0.00  0.00    +0.040 C 
ATOM     22  C   UNL     1       1.362   1.850  23.535  0.00  0.00    +0.040 C 
BRANCH  18   7
ATOM      4  O   UNL     1       1.968  -0.056  20.908  0.00  0.00    -0.247 OA
ATOM      7  N   UNL     1       3.088   0.204  22.988  0.00  0.00    -0.289 N 
ATOM      9  N   UNL     1       4.309  -0.281  21.144  0.00  0.00    -0.306 N 
ATOM     31  C   UNL     1       4.432   0.121  23.370  0.00  0.00    +0.070 A 
ATOM     32  C   UNL     1       2.979  -0.044  21.594  0.00  0.00    +0.328 A 
ATOM     33  C   UNL     1       5.178  -0.178  22.230  0.00  0.00    +0.067 A 
ATOM     34  C   UNL     1       5.032   0.283  24.601  0.00  0.00    +0.028 A 
ATOM     35  C   UNL     1       6.546  -0.330  22.262  0.00  0.00    +0.028 A 
ATOM     36  C   UNL     1       6.421   0.133  24.659  0.00  0.00    +0.002 A 
ATOM     37  C   UNL     1       7.170  -0.169  23.502  0.00  0.00    +0.002 A 
ATOM     39  H   UNL     1       4.592  -0.492  20.195  0.00  0.00    +0.170 HD
ENDBRANCH  18   7
ENDBRANCH  15   6
ENDBRANCH  12  15
ENDBRANCH  10  12
BRANCH  11  17
ATOM     17  C   UNL     1      -2.960   5.753  25.675  0.00  0.00    +0.124 C 
BRANCH  17  27
ATOM      3  O   UNL     1      -0.615   5.635  25.021  0.00  0.00    -0.251 OA
ATOM     27  C   UNL     1      -1.752   6.039  24.827  0.00  0.00    +0.305 C 
BRANCH  27   2
ATOM      2  O   UNL     1      -2.103   6.833  23.782  0.00  0.00    -0.481 OA
ATOM     40  H   UNL     1      -1.529   6.683  23.001  0.00  0.00    +0.295 HD
ENDBRANCH  27   2
ENDBRANCH  17  27
ENDBRANCH  11  17
TORSDOF 8
ENDMDL
MODEL 2
REMARK VINA RESULT:      11.6      1.735      4.842
REMARK  Name = 28960004
REMARK  8 active torsions:
REMARK  status: ('A' for Active; 'I' for Inactive)
REMARK    1  A    between atoms: O_2  and  C_27
REMARK    2  A    between atoms: N_6  and  C_15
REMARK    3  A    between atoms: N_7  and  C_18
REMARK    4  A    between atoms: N_8  and  C_24
REMARK    5  A    between atoms: C_10  and  C_12
REMARK    6  A    between atoms: C_11  and  C_17
REMARK    7  A    between atoms: C_12  and  C_15
REMARK    8  A    between atoms: C_17  and  C_27
REMARK                            x       y       z     vdW  Elec       q    Type
REMARK                         _______ _______ _______ _____ _____    ______ ____
ROOT
ATOM      1  O   UNL     1      -4.617   2.454  23.247  0.00  0.00    -0.253 OA
ATOM      5  N   UNL     1      -4.865   0.651  24.683  0.00  0.00    -0.285 N 
ATOM      8  N   UNL     1      -4.560   2.846  25.506  0.00  0.00    -0.296 N 
ATOM     10  C   UNL     1      -3.847  -1.016  26.211  0.00  0.00    +0.011 C 
ATOM     11  C   UNL     1      -3.911  -2.057  25.062  0.00  0.00    +0.006 C 
ATOM     13  C   UNL     1      -4.952   0.037  26.017  0.00  0.00    +0.113 C 
ATOM     14  C   UNL     1      -3.911  -1.382  23.679  0.00  0.00    +0.023 C 
ATOM     16  C   UNL     1      -4.990  -0.305  23.582  0.00  0.00    +0.109 C 
ATOM     23  C   UNL     1      -4.679   2.013  24.400  0.00  0.00    +0.302 C 
ATOM     38  H   UNL     1      -4.454   2.458  26.431  0.00  0.00    +0.151 HD
ENDROOT
BRANCH   8  24
ATOM     24  C   UNL     1      -4.357   4.272  25.376  0.00  0.00    +0.074 C 
ATOM     25  C   UNL     1      -3.577   4.827  26.573  0.00  0.00    +0.022 C 
ATOM     26  C   UNL     1      -3.661   4.612  24.054  0.00  0.00    +0.022 C 
ATOM     28  C   UNL     1      -2.107   4.411  26.557  0.00  0.00    +0.002 C 
ATOM     29  C   UNL     1      -2.191   4.194  24.043  0.00  0.00    +0.002 C 
ATOM     30  C   UNL     1      -1.433   4.768  25.236  0.00  0.00    +0.000 C 
ENDBRANCH   8  24
BRANCH  10  12
ATOM     12  C   UNL     1      -2.481  -0.335  26.362  0.00  0.00    +0.020 C 
BRANCH  12  15
ATOM     15  C   UNL     1      -2.360   0.857  25.425  0.00  0.00    +0.085 C 
BRANCH  15   6
ATOM      6  N   UNL     1      -1.188   0.698  24.565  0.00  0.00    -0.302 NA
ATOM     18  C   UNL     1       1.647   0.238  24.009  0.00  0.00    +0.095 C 
ATOM     19  C   UNL     1      -0.608  -0.641  24.728  0.00  0.00    +0.086 C 
ATOM     20  C   UNL     1      -0.197   1.745  24.847  0.00  0.00    +0.086 C 
ATOM     21  C   UNL     1       0.586  -0.843  23.793  0.00  0.00    +0.040 C 
ATOM     22  C   UNL     1       1.013   1.626  23.919  0.00  0.00    +0.040 C 
BRANCH  18   7
ATOM      4  O   UNL     1       1.535  -0.046  21.010  0.00  0.00    -0.247 OA
ATOM      7  N   UNL     1       2.725   0.103  23.062  0.00  0.00    -0.289 N 
ATOM      9  N   UNL     1       3.894  -0.130  21.136  0.00  0.00    -0.306 N 
ATOM     31  C   UNL     1       4.088   0.078  23.383  0.00  0.00    +0.070 A 
ATOM     32  C   UNL     1       2.572  -0.027  21.655  0.00  0.00    +0.328 A 
ATOM     33  C   UNL     1       4.801  -0.065  22.194  0.00  0.00    +0.067 A 
ATOM     34  C   UNL     1       4.729   0.169  24.601  0.00  0.00    +0.028 A 
ATOM     35  C   UNL     1       6.176  -0.125  22.160  0.00  0.00    +0.028 A 
ATOM     36  C   UNL     1       6.126   0.111  24.592  0.00  0.00    +0.002 A 
ATOM     37  C   UNL     1       6.842  -0.034  23.385  0.00  0.00    +0.002 A 
ATOM     39  H   UNL     1       4.148  -0.234  20.161  0.00  0.00    +0.170 HD
ENDBRANCH  18   7
ENDBRANCH  15   6
ENDBRANCH  12  15
ENDBRANCH  10  12
BRANCH  11  17
ATOM     17  C   UNL     1      -2.810  -3.112  25.147  0.00  0.00    +0.124 C 
BRANCH  17  27
ATOM      3  O   UNL     1      -1.315  -3.506  23.264  0.00  0.00    -0.251 OA
ATOM     27  C   UNL     1      -2.414  -3.613  23.786  0.00  0.00    +0.305 C 
BRANCH  27   2
ATOM      2  O   UNL     1      -3.475  -4.220  23.194  0.00  0.00    -0.481 OA
ATOM     40  H   UNL     1      -4.251  -3.623  23.134  0.00  0.00    +0.295 HD
ENDBRANCH  27   2
ENDBRANCH  17  27
ENDBRANCH  11  17
TORSDOF 8
ENDMDL
MODEL 3
REMARK VINA RESULT:      12.2      2.100      7.734
REMARK  Name = 28960004
REMARK  8 active torsions:
REMARK  status: ('A' for Active; 'I' for Inactive)
REMARK    1  A    between atoms: O_2  and  C_27
REMARK    2  A    between atoms: N_6  and  C_15
REMARK    3  A    between atoms: N_7  and  C_18
REMARK    4  A    between atoms: N_8  and  C_24
REMARK    5  A    between atoms: C_10  and  C_12
REMARK    6  A    between atoms: C_11  and  C_17
REMARK    7  A    between atoms: C_12  and  C_15
REMARK    8  A    between atoms: C_17  and  C_27
REMARK                            x       y       z     vdW  Elec       q    Type
REMARK                         _______ _______ _______ _____ _____    ______ ____
ROOT
ATOM      1  O   UNL     1      -1.456  -0.026  22.055  0.00  0.00    -0.253 OA
ATOM      5  N   UNL     1       0.630  -0.836  22.661  0.00  0.00    -0.285 N 
ATOM      8  N   UNL     1      -1.164  -0.785  24.200  0.00  0.00    -0.296 N 
ATOM     10  C   UNL     1       2.798  -0.498  23.817  0.00  0.00    +0.011 C 
ATOM     11  C   UNL     1       3.440  -0.172  22.443  0.00  0.00    +0.006 C 
ATOM     13  C   UNL     1       1.585  -1.423  23.613  0.00  0.00    +0.113 C 
ATOM     14  C   UNL     1       2.401   0.354  21.437  0.00  0.00    +0.023 C 
ATOM     16  C   UNL     1       1.197  -0.581  21.336  0.00  0.00    +0.109 C 
ATOM     23  C   UNL     1      -0.713  -0.518  22.912  0.00  0.00    +0.302 C 
ATOM     38  H   UNL     1      -0.513  -1.035  24.929  0.00  0.00    +0.151 HD
ENDROOT
BRANCH   8  24
ATOM     24  C   UNL     1      -2.521  -0.504  24.613  0.00  0.00    +0.074 C 
ATOM     25  C   UNL     1      -3.530  -1.122  23.640  0.00  0.00    +0.022 C 
ATOM     26  C   UNL     1      -2.770  -0.982  26.048  0.00  0.00    +0.022 C 
ATOM     28  C   UNL     1      -3.595  -2.645  23.751  0.00  0.00    +0.002 C 
ATOM     29  C   UNL     1      -2.834  -2.505  26.155  0.00  0.00    +0.002 C 
ATOM     30  C   UNL     1      -3.854  -3.095  25.186  0.00  0.00    +0.000 C 
ENDBRANCH   8  24
BRANCH  10  12
ATOM     12  C   UNL     1       2.396   0.739  24.629  0.00  0.00    +0.020 C 
BRANCH  12  15
ATOM     15  C   UNL     1       1.749   1.788  23.738  0.00  0.00    +0.085 C 
BRANCH  15   6
ATOM      6  N   UNL     1       0.367   2.016  24.159  0.00  0.00    -0.302 NA
ATOM     18  C   UNL     1      -1.866   3.617  25.164  0.00  0.00    +0.095 C 
ATOM     19  C   UNL     1      -0.274   3.019  23.298  0.00  0.00    +0.086 C 
ATOM     20  C   UNL     1       0.319   2.419  25.571  0.00  0.00    +0.086 C 
ATOM     21  C   UNL     1      -1.737   3.228  23.691  0.00  0.00    +0.040 C 
ATOM     22  C   UNL     1      -1.124   2.610  26.043  0.00  0.00    +0.040 C 
BRANCH  18   7
ATOM      4  O   UNL     1      -3.224   5.701  26.867  0.00  0.00    -0.247 OA
ATOM      7  N   UNL     1      -3.250   3.719  25.556  0.00  0.00    -0.289 N 
ATOM      9  N   UNL     1      -5.186   4.438  26.486  0.00  0.00    -0.306 N 
ATOM     31  C   UNL     1      -4.262   2.821  25.196  0.00  0.00    +0.070 A 
ATOM     32  C   UNL     1      -3.801   4.746  26.368  0.00  0.00    +0.328 A 
ATOM     33  C   UNL     1      -5.450   3.269  25.772  0.00  0.00    +0.067 A 
ATOM     34  C   UNL     1      -4.221   1.677  24.426  0.00  0.00    +0.028 A 
ATOM     35  C   UNL     1      -6.645   2.604  25.610  0.00  0.00    +0.028 A 
ATOM     36  C   UNL     1      -5.423   0.985  24.248  0.00  0.00    +0.002 A 
ATOM     37  C   UNL     1      -6.622   1.443  24.833  0.00  0.00    +0.002 A 
ATOM     39  H   UNL     1      -5.876   4.970  27.002  0.00  0.00    +0.170 HD
ENDBRANCH  18   7
ENDBRANCH  15   6
ENDBRANCH  12  15
ENDBRANCH  10  12
BRANCH  11  17
ATOM     17  C   UNL     1       4.623   0.789  22.547  0.00  0.00    +0.124 C 
BRANCH  17  27
ATOM      3  O   UNL     1       6.645  -0.447  23.116  0.00  0.00    -0.251 OA
ATOM     27  C   UNL     1       5.698   0.250  23.449  0.00  0.00    +0.305 C 
BRANCH  27   2
ATOM      2  O   UNL     1       5.470   0.653  24.726  0.00  0.00    -0.481 OA
ATOM     40  H   UNL     1       5.559   1.625  24.824  0.00  0.00    +0.295 HD
ENDBRANCH  27   2
ENDBRANCH  17  27
ENDBRANCH  11  17
TORSDOF 8
ENDMDL
MODEL 4
REMARK VINA RESULT:      13.4      1.711      2.441
REMARK  Name = 28960004
REMARK  8 active torsions:
REMARK  status: ('A' for Active; 'I' for Inactive)
REMARK    1  A    between atoms: O_2  and  C_27
REMARK    2  A    between atoms: N_6  and  C_15
REMARK    3  A    between atoms: N_7  and  C_18
REMARK    4  A    between atoms: N_8  and  C_24
REMARK    5  A    between atoms: C_10  and  C_12
REMARK    6  A    between atoms: C_11  and  C_17
REMARK    7  A    between atoms: C_12  and  C_15
REMARK    8  A    between atoms: C_17  and  C_27
REMARK                            x       y       z     vdW  Elec       q    Type
REMARK                         _______ _______ _______ _____ _____    ______ ____
ROOT
ATOM      1  O   UNL     1      -4.629  -1.101  25.902  0.00  0.00    -0.253 OA
ATOM      5  N   UNL     1      -4.588   0.938  24.798  0.00  0.00    -0.285 N 
ATOM      8  N   UNL     1      -2.593  -0.215  25.329  0.00  0.00    -0.296 N 
ATOM     10  C   UNL     1      -4.235   3.391  24.861  0.00  0.00    +0.011 C 
ATOM     11  C   UNL     1      -5.775   3.575  24.923  0.00  0.00    +0.006 C 
ATOM     13  C   UNL     1      -3.902   2.067  24.152  0.00  0.00    +0.113 C 
ATOM     14  C   UNL     1      -6.474   2.341  25.520  0.00  0.00    +0.023 C 
ATOM     16  C   UNL     1      -6.046   1.058  24.809  0.00  0.00    +0.109 C 
ATOM     23  C   UNL     1      -3.982  -0.189  25.376  0.00  0.00    +0.302 C 
ATOM     38  H   UNL     1      -2.074   0.602  25.043  0.00  0.00    +0.151 HD
ENDROOT
BRANCH   8  24
ATOM     24  C   UNL     1      -1.825  -1.305  25.889  0.00  0.00    +0.074 C 
ATOM     25  C   UNL     1      -2.694  -2.555  26.066  0.00  0.00    +0.022 C 
ATOM     26  C   UNL     1      -0.589  -1.605  25.034  0.00  0.00    +0.022 C 
ATOM     28  C   UNL     1      -3.045  -3.217  24.734  0.00  0.00    +0.002 C 
ATOM     29  C   UNL     1      -0.944  -2.268  23.704  0.00  0.00    +0.002 C 
ATOM     30  C   UNL     1      -1.799  -3.515  23.906  0.00  0.00    +0.000 C 
ENDBRANCH   8  24
BRANCH  10  12
ATOM     12  C   UNL     1      -3.542   3.455  26.228  0.00  0.00    +0.020 C 
BRANCH  12  15
ATOM     15  C   UNL     1      -2.121   3.980  26.093  0.00  0.00    +0.085 C 
BRANCH  15   6
ATOM      6  N   UNL     1      -1.315   3.042  25.312  0.00  0.00    -0.302 NA
ATOM     18  C   UNL     1       1.165   2.007  24.154  0.00  0.00    +0.095 C 
ATOM     19  C   UNL     1      -0.312   2.390  26.165  0.00  0.00    +0.086 C 
ATOM     20  C   UNL     1      -0.682   3.729  24.178  0.00  0.00    +0.086 C 
ATOM     21  C   UNL     1       0.503   1.366  25.375  0.00  0.00    +0.040 C 
ATOM     22  C   UNL     1       0.123   2.752  23.319  0.00  0.00    +0.040 C 
BRANCH  18   7
ATOM      4  O   UNL     1       0.061   0.112  22.085  0.00  0.00    -0.247 OA
ATOM      7  N   UNL     1       1.852   1.021  23.358  0.00  0.00    -0.289 N 
ATOM      9  N   UNL     1       2.297  -0.628  21.870  0.00  0.00    -0.306 N 
ATOM     31  C   UNL     1       3.225   0.753  23.407  0.00  0.00    +0.070 A 
ATOM     32  C   UNL     1       1.241   0.167  22.401  0.00  0.00    +0.328 A 
ATOM     33  C   UNL     1       3.492  -0.261  22.489  0.00  0.00    +0.067 A 
ATOM     34  C   UNL     1       4.226   1.316  24.170  0.00  0.00    +0.028 A 
ATOM     35  C   UNL     1       4.759  -0.762  22.290  0.00  0.00    +0.028 A 
ATOM     36  C   UNL     1       5.523   0.823  23.986  0.00  0.00    +0.002 A 
ATOM     37  C   UNL     1       5.786  -0.204  23.056  0.00  0.00    +0.002 A 
ATOM     39  H   UNL     1       2.208  -1.345  21.161  0.00  0.00    +0.170 HD
ENDBRANCH  18   7
ENDBRANCH  15   6
ENDBRANCH  12  15
ENDBRANCH  10  12
BRANCH  11  17
ATOM     17  C   UNL     1      -6.197   4.844  25.663  0.00  0.00    +0.124 C 
BRANCH  17  27
ATOM      3  O   UNL     1      -7.034   6.938  24.739  0.00  0.00    -0.251 OA
ATOM     27  C   UNL     1      -6.205   6.041  24.753  0.00  0.00    +0.305 C 
BRANCH  27   2
ATOM      2  O   UNL     1      -5.133   5.991  23.921  0.00  0.00    -0.481 OA
ATOM     40  H   UNL     1      -5.251   5.324  23.211  0.00  0.00    +0.295 HD
ENDBRANCH  27   2
ENDBRANCH  17  27
ENDBRANCH  11  17
TORSDOF 8
ENDMDL
