MODEL 1
REMARK VINA RESULT:      -5.6      0.000      0.000
REMARK  Name = 56774163
REMARK  11 active torsions:
REMARK  status: ('A' for Active; 'I' for Inactive)
REMARK    1  A    between atoms: O_2  and  C_18
REMARK    2  A    between atoms: O_2  and  C_19
REMARK    3  A    between atoms: N_3  and  C_7
REMARK    4  A    between atoms: N_3  and  C_12
REMARK    5  A    between atoms: C_5  and  C_10
REMARK    6  A    between atoms: C_5  and  C_11
REMARK    7  A    between atoms: C_6  and  C_9
REMARK    8  A    between atoms: C_9  and  C_13
REMARK    9  A    between atoms: C_12  and  C_14
REMARK   10  A    between atoms: C_12  and  C_15
REMARK   11  A    between atoms: C_17  and  C_18
REMARK                            x       y       z     vdW  Elec       q    Type
REMARK                         _______ _______ _______ _____ _____    ______ ____
ROOT
ATOM      1  O   UNL     1       0.164   1.349  25.838  0.00  0.00    -0.356 OA
ATOM      4  N   UNL     1      -0.157   2.681  26.072  0.00  0.00    -0.083 NA
ATOM     13  C   UNL     1      -0.544   3.157  24.886  0.00  0.00    +0.084 A 
ATOM     16  C   UNL     1      -0.489   2.183  23.876  0.00  0.00    +0.074 A 
ATOM     17  C   UNL     1      -0.038   1.064  24.526  0.00  0.00    +0.175 A 
ENDROOT
BRANCH  13   9
ATOM      9  C   UNL     1      -0.976   4.600  24.759  0.00  0.00    +0.063 C 
BRANCH   9   6
ATOM      5  C   UNL     1      -3.522   4.144  24.442  0.00  0.00    -0.016 C 
ATOM      6  C   UNL     1      -2.386   4.772  25.276  0.00  0.00    +0.004 C 
ATOM      7  C   UNL     1      -4.190   3.763  25.780  0.00  0.00    +0.060 C 
ATOM      8  C   UNL     1      -2.780   3.797  26.406  0.00  0.00    +0.023 C 
ATOM     10  C   UNL     1      -4.365   5.119  23.639  0.00  0.00    +0.013 C 
ATOM     11  C   UNL     1      -3.068   3.017  23.539  0.00  0.00    +0.013 C 
BRANCH   7   3
ATOM      3  N   UNL     1      -4.667   2.378  25.759  0.00  0.00    -0.311 NA
ATOM     25  H   UNL     1      -4.289   1.792  26.505  0.00  0.00    +0.122 HD
BRANCH   3  12
ATOM     12  C   UNL     1      -6.128   2.371  25.835  0.00  0.00    +0.048 C 
ATOM     14  C   UNL     1      -6.592   1.565  27.044  0.00  0.00    +0.023 C 
ATOM     15  C   UNL     1      -6.700   1.799  24.542  0.00  0.00    +0.023 C 
ENDBRANCH   3  12
ENDBRANCH   7   3
ENDBRANCH   9   6
ENDBRANCH  13   9
BRANCH  17  18
ATOM     18  C   UNL     1       0.255  -0.309  24.102  0.00  0.00    +0.306 C 
BRANCH  18   2
ATOM      2  O   UNL     1      -0.421  -1.245  24.947  0.00  0.00    -0.484 OA
BRANCH   2  19
ATOM     19  C   UNL     1      -1.730  -1.500  24.648  0.00  0.00    +0.121 A 
ATOM     20  C   UNL     1      -2.654  -0.456  24.610  0.00  0.00    +0.045 A 
ATOM     21  C   UNL     1      -2.142  -2.806  24.379  0.00  0.00    +0.045 A 
ATOM     22  C   UNL     1      -3.990  -0.717  24.304  0.00  0.00    +0.004 A 
ATOM     23  C   UNL     1      -3.477  -3.067  24.073  0.00  0.00    +0.004 A 
ATOM     24  C   UNL     1      -4.402  -2.023  24.036  0.00  0.00    +0.000 A 
ENDBRANCH   2  19
ENDBRANCH  18   2
ENDBRANCH  17  18
TORSDOF 7
ENDMDL
MODEL 2
REMARK VINA RESULT:      -5.5      2.569      6.689
REMARK  Name = 56774163
REMARK  11 active torsions:
REMARK  status: ('A' for Active; 'I' for Inactive)
REMARK    1  A    between atoms: O_2  and  C_18
REMARK    2  A    between atoms: O_2  and  C_19
REMARK    3  A    between atoms: N_3  and  C_7
REMARK    4  A    between atoms: N_3  and  C_12
REMARK    5  A    between atoms: C_5  and  C_10
REMARK    6  A    between atoms: C_5  and  C_11
REMARK    7  A    between atoms: C_6  and  C_9
REMARK    8  A    between atoms: C_9  and  C_13
REMARK    9  A    between atoms: C_12  and  C_14
REMARK   10  A    between atoms: C_12  and  C_15
REMARK   11  A    between atoms: C_17  and  C_18
REMARK                            x       y       z     vdW  Elec       q    Type
REMARK                         _______ _______ _______ _____ _____    ______ ____
ROOT
ATOM      1  O   UNL     1      -4.719  -0.849  24.347  0.00  0.00    -0.356 OA
ATOM      4  N   UNL     1      -3.495  -1.492  24.209  0.00  0.00    -0.083 NA
ATOM     13  C   UNL     1      -2.637  -0.759  24.924  0.00  0.00    +0.084 A 
ATOM     16  C   UNL     1      -3.255   0.347  25.530  0.00  0.00    +0.074 A 
ATOM     17  C   UNL     1      -4.564   0.245  25.136  0.00  0.00    +0.175 A 
ENDROOT
BRANCH  13   9
ATOM      9  C   UNL     1      -1.185  -1.169  25.004  0.00  0.00    +0.063 C 
BRANCH   9   6
ATOM      5  C   UNL     1      -0.102   0.769  23.639  0.00  0.00    -0.016 C 
ATOM      6  C   UNL     1      -0.446  -0.730  23.760  0.00  0.00    +0.004 C 
ATOM      7  C   UNL     1       1.244   0.332  23.023  0.00  0.00    +0.060 C 
ATOM      8  C   UNL     1       1.073  -0.998  23.786  0.00  0.00    +0.023 C 
ATOM     10  C   UNL     1      -0.949   1.561  22.658  0.00  0.00    +0.013 C 
ATOM     11  C   UNL     1      -0.063   1.498  24.965  0.00  0.00    +0.013 C 
BRANCH   7   3
ATOM      3  N   UNL     1       2.362   1.076  23.608  0.00  0.00    -0.311 NA
ATOM     25  H   UNL     1       2.650   0.745  24.529  0.00  0.00    +0.122 HD
BRANCH   3  12
ATOM     12  C   UNL     1       3.505   1.022  22.697  0.00  0.00    +0.048 C 
ATOM     14  C   UNL     1       3.195   0.112  21.512  0.00  0.00    +0.023 C 
ATOM     15  C   UNL     1       4.735   0.536  23.455  0.00  0.00    +0.023 C 
ENDBRANCH   3  12
ENDBRANCH   7   3
ENDBRANCH   9   6
ENDBRANCH  13   9
BRANCH  17  18
ATOM     18  C   UNL     1      -5.766   1.046  25.389  0.00  0.00    +0.306 C 
BRANCH  18   2
ATOM      2  O   UNL     1      -5.683   2.296  24.698  0.00  0.00    -0.484 OA
BRANCH   2  19
ATOM     19  C   UNL     1      -4.565   3.047  24.929  0.00  0.00    +0.121 A 
ATOM     20  C   UNL     1      -3.711   3.370  23.873  0.00  0.00    +0.045 A 
ATOM     21  C   UNL     1      -4.278   3.492  26.219  0.00  0.00    +0.045 A 
ATOM     22  C   UNL     1      -2.570   4.138  24.110  0.00  0.00    +0.004 A 
ATOM     23  C   UNL     1      -3.137   4.259  26.456  0.00  0.00    +0.004 A 
ATOM     24  C   UNL     1      -2.282   4.581  25.400  0.00  0.00    +0.000 A 
ENDBRANCH   2  19
ENDBRANCH  18   2
ENDBRANCH  17  18
TORSDOF 7
ENDMDL
MODEL 3
REMARK VINA RESULT:      -5.2      2.683      4.587
REMARK  Name = 56774163
REMARK  11 active torsions:
REMARK  status: ('A' for Active; 'I' for Inactive)
REMARK    1  A    between atoms: O_2  and  C_18
REMARK    2  A    between atoms: O_2  and  C_19
REMARK    3  A    between atoms: N_3  and  C_7
REMARK    4  A    between atoms: N_3  and  C_12
REMARK    5  A    between atoms: C_5  and  C_10
REMARK    6  A    between atoms: C_5  and  C_11
REMARK    7  A    between atoms: C_6  and  C_9
REMARK    8  A    between atoms: C_9  and  C_13
REMARK    9  A    between atoms: C_12  and  C_14
REMARK   10  A    between atoms: C_12  and  C_15
REMARK   11  A    between atoms: C_17  and  C_18
REMARK                            x       y       z     vdW  Elec       q    Type
REMARK                         _______ _______ _______ _____ _____    ______ ____
ROOT
ATOM      1  O   UNL     1       1.121   1.450  24.558  0.00  0.00    -0.356 OA
ATOM      4  N   UNL     1       0.439   2.519  25.126  0.00  0.00    -0.083 NA
ATOM     13  C   UNL     1      -0.720   2.579  24.464  0.00  0.00    +0.084 A 
ATOM     16  C   UNL     1      -0.825   1.583  23.479  0.00  0.00    +0.074 A 
ATOM     17  C   UNL     1       0.359   0.899  23.579  0.00  0.00    +0.175 A 
ENDROOT
BRANCH  13   9
ATOM      9  C   UNL     1      -1.735   3.639  24.821  0.00  0.00    +0.063 C 
BRANCH   9   6
ATOM      5  C   UNL     1      -4.223   2.864  24.815  0.00  0.00    -0.016 C 
ATOM      6  C   UNL     1      -2.892   3.026  25.577  0.00  0.00    +0.004 C 
ATOM      7  C   UNL     1      -4.387   1.512  25.541  0.00  0.00    +0.060 C 
ATOM      8  C   UNL     1      -2.851   1.486  25.676  0.00  0.00    +0.023 C 
ATOM     10  C   UNL     1      -5.318   3.850  25.188  0.00  0.00    +0.013 C 
ATOM     11  C   UNL     1      -4.069   2.838  23.310  0.00  0.00    +0.013 C 
BRANCH   7   3
ATOM      3  N   UNL     1      -4.801   0.458  24.613  0.00  0.00    -0.311 NA
ATOM     25  H   UNL     1      -4.901   0.765  23.645  0.00  0.00    +0.122 HD
BRANCH   3  12
ATOM     12  C   UNL     1      -3.839  -0.641  24.673  0.00  0.00    +0.048 C 
ATOM     14  C   UNL     1      -4.234  -1.745  23.696  0.00  0.00    +0.023 C 
ATOM     15  C   UNL     1      -3.764  -1.173  26.100  0.00  0.00    +0.023 C 
ENDBRANCH   3  12
ENDBRANCH   7   3
ENDBRANCH   9   6
ENDBRANCH  13   9
BRANCH  17  18
ATOM     18  C   UNL     1       0.932  -0.250  22.871  0.00  0.00    +0.306 C 
BRANCH  18   2
ATOM      2  O   UNL     1       2.105   0.144  22.153  0.00  0.00    -0.484 OA
BRANCH   2  19
ATOM     19  C   UNL     1       3.301  -0.062  22.781  0.00  0.00    +0.121 A 
ATOM     20  C   UNL     1       4.257   0.953  22.811  0.00  0.00    +0.045 A 
ATOM     21  C   UNL     1       3.566  -1.288  23.392  0.00  0.00    +0.045 A 
ATOM     22  C   UNL     1       5.478   0.742  23.454  0.00  0.00    +0.004 A 
ATOM     23  C   UNL     1       4.786  -1.499  24.034  0.00  0.00    +0.004 A 
ATOM     24  C   UNL     1       5.743  -0.483  24.064  0.00  0.00    +0.000 A 
ENDBRANCH   2  19
ENDBRANCH  18   2
ENDBRANCH  17  18
TORSDOF 7
ENDMDL
MODEL 4
REMARK VINA RESULT:      -5.1      2.200      5.949
REMARK  Name = 56774163
REMARK  11 active torsions:
REMARK  status: ('A' for Active; 'I' for Inactive)
REMARK    1  A    between atoms: O_2  and  C_18
REMARK    2  A    between atoms: O_2  and  C_19
REMARK    3  A    between atoms: N_3  and  C_7
REMARK    4  A    between atoms: N_3  and  C_12
REMARK    5  A    between atoms: C_5  and  C_10
REMARK    6  A    between atoms: C_5  and  C_11
REMARK    7  A    between atoms: C_6  and  C_9
REMARK    8  A    between atoms: C_9  and  C_13
REMARK    9  A    between atoms: C_12  and  C_14
REMARK   10  A    between atoms: C_12  and  C_15
REMARK   11  A    between atoms: C_17  and  C_18
REMARK                            x       y       z     vdW  Elec       q    Type
REMARK                         _______ _______ _______ _____ _____    ______ ____
ROOT
ATOM      1  O   UNL     1      -4.980   3.939  25.763  0.00  0.00    -0.356 OA
ATOM      4  N   UNL     1      -5.537   2.705  26.078  0.00  0.00    -0.083 NA
ATOM     13  C   UNL     1      -5.040   1.860  25.170  0.00  0.00    +0.084 A 
ATOM     16  C   UNL     1      -4.174   2.497  24.266  0.00  0.00    +0.074 A 
ATOM     17  C   UNL     1      -4.170   3.803  24.683  0.00  0.00    +0.175 A 
ENDROOT
BRANCH  13   9
ATOM      9  C   UNL     1      -5.432   0.402  25.206  0.00  0.00    +0.063 C 
BRANCH   9   6
ATOM      5  C   UNL     1      -3.592  -1.238  24.362  0.00  0.00    -0.016 C 
ATOM      6  C   UNL     1      -4.230  -0.457  25.529  0.00  0.00    +0.004 C 
ATOM      7  C   UNL     1      -2.222  -0.910  24.992  0.00  0.00    +0.060 C 
ATOM      8  C   UNL     1      -2.899   0.316  25.638  0.00  0.00    +0.023 C 
ATOM     10  C   UNL     1      -3.869  -2.732  24.342  0.00  0.00    +0.013 C 
ATOM     11  C   UNL     1      -3.893  -0.657  22.997  0.00  0.00    +0.013 C 
BRANCH   7   3
ATOM      3  N   UNL     1      -1.269  -0.449  23.980  0.00  0.00    -0.311 NA
ATOM     25  H   UNL     1      -0.941   0.508  24.116  0.00  0.00    +0.122 HD
BRANCH   3  12
ATOM     12  C   UNL     1      -0.119  -1.353  23.955  0.00  0.00    +0.048 C 
ATOM     14  C   UNL     1       0.097  -1.975  25.332  0.00  0.00    +0.023 C 
ATOM     15  C   UNL     1       1.118  -0.588  23.499  0.00  0.00    +0.023 C 
ENDBRANCH   3  12
ENDBRANCH   7   3
ENDBRANCH   9   6
ENDBRANCH  13   9
BRANCH  17  18
ATOM     18  C   UNL     1      -3.497   5.018  24.212  0.00  0.00    +0.306 C 
BRANCH  18   2
ATOM      2  O   UNL     1      -2.332   5.278  25.000  0.00  0.00    -0.484 OA
BRANCH   2  19
ATOM     19  C   UNL     1      -1.444   4.247  25.132  0.00  0.00    +0.121 A 
ATOM     20  C   UNL     1      -0.647   3.870  24.050  0.00  0.00    +0.045 A 
ATOM     21  C   UNL     1      -1.334   3.572  26.348  0.00  0.00    +0.045 A 
ATOM     22  C   UNL     1       0.261   2.818  24.186  0.00  0.00    +0.004 A 
ATOM     23  C   UNL     1      -0.428   2.521  26.483  0.00  0.00    +0.004 A 
ATOM     24  C   UNL     1       0.370   2.143  25.402  0.00  0.00    +0.000 A 
ENDBRANCH   2  19
ENDBRANCH  18   2
ENDBRANCH  17  18
TORSDOF 7
ENDMDL
MODEL 5
REMARK VINA RESULT:      -4.8      2.034      4.591
REMARK  Name = 56774163
REMARK  11 active torsions:
REMARK  status: ('A' for Active; 'I' for Inactive)
REMARK    1  A    between atoms: O_2  and  C_18
REMARK    2  A    between atoms: O_2  and  C_19
REMARK    3  A    between atoms: N_3  and  C_7
REMARK    4  A    between atoms: N_3  and  C_12
REMARK    5  A    between atoms: C_5  and  C_10
REMARK    6  A    between atoms: C_5  and  C_11
REMARK    7  A    between atoms: C_6  and  C_9
REMARK    8  A    between atoms: C_9  and  C_13
REMARK    9  A    between atoms: C_12  and  C_14
REMARK   10  A    between atoms: C_12  and  C_15
REMARK   11  A    between atoms: C_17  and  C_18
REMARK                            x       y       z     vdW  Elec       q    Type
REMARK                         _______ _______ _______ _____ _____    ______ ____
ROOT
ATOM      1  O   UNL     1      -4.842   3.302  26.327  0.00  0.00    -0.356 OA
ATOM      4  N   UNL     1      -3.816   4.217  26.530  0.00  0.00    -0.083 NA
ATOM     13  C   UNL     1      -3.021   4.087  25.463  0.00  0.00    +0.084 A 
ATOM     16  C   UNL     1      -3.491   3.116  24.563  0.00  0.00    +0.074 A 
ATOM     17  C   UNL     1      -4.638   2.653  25.153  0.00  0.00    +0.175 A 
ENDROOT
BRANCH  13   9
ATOM      9  C   UNL     1      -1.782   4.943  25.340  0.00  0.00    +0.063 C 
BRANCH   9   6
ATOM      5  C   UNL     1      -0.323   2.809  25.672  0.00  0.00    -0.016 C 
ATOM      6  C   UNL     1      -0.610   4.104  24.884  0.00  0.00    +0.004 C 
ATOM      7  C   UNL     1       0.017   2.151  24.319  0.00  0.00    +0.060 C 
ATOM      8  C   UNL     1      -0.899   3.205  23.663  0.00  0.00    +0.023 C 
ATOM     10  C   UNL     1       0.878   2.859  26.601  0.00  0.00    +0.013 C 
ATOM     11  C   UNL     1      -1.518   2.276  26.432  0.00  0.00    +0.013 C 
BRANCH   7   3
ATOM      3  N   UNL     1      -0.612   0.833  24.197  0.00  0.00    -0.311 NA
ATOM     25  H   UNL     1      -1.252   0.744  23.407  0.00  0.00    +0.122 HD
BRANCH   3  12
ATOM     12  C   UNL     1       0.429  -0.189  24.092  0.00  0.00    +0.048 C 
ATOM     14  C   UNL     1       1.043  -0.177  22.695  0.00  0.00    +0.023 C 
ATOM     15  C   UNL     1      -0.165  -1.554  24.419  0.00  0.00    +0.023 C 
ENDBRANCH   3  12
ENDBRANCH   7   3
ENDBRANCH   9   6
ENDBRANCH  13   9
BRANCH  17  18
ATOM     18  C   UNL     1      -5.635   1.644  24.780  0.00  0.00    +0.306 C 
BRANCH  18   2
ATOM      2  O   UNL     1      -5.070   0.701  23.865  0.00  0.00    -0.484 OA
BRANCH   2  19
ATOM     19  C   UNL     1      -4.468  -0.396  24.414  0.00  0.00    +0.121 A 
ATOM     20  C   UNL     1      -4.403  -1.590  23.694  0.00  0.00    +0.045 A 
ATOM     21  C   UNL     1      -3.917  -0.322  25.693  0.00  0.00    +0.045 A 
ATOM     22  C   UNL     1      -3.787  -2.709  24.256  0.00  0.00    +0.004 A 
ATOM     23  C   UNL     1      -3.302  -1.441  26.254  0.00  0.00    +0.004 A 
ATOM     24  C   UNL     1      -3.237  -2.635  25.536  0.00  0.00    +0.000 A 
ENDBRANCH   2  19
ENDBRANCH  18   2
ENDBRANCH  17  18
TORSDOF 7
ENDMDL
MODEL 6
REMARK VINA RESULT:      -4.3      2.724      4.580
REMARK  Name = 56774163
REMARK  11 active torsions:
REMARK  status: ('A' for Active; 'I' for Inactive)
REMARK    1  A    between atoms: O_2  and  C_18
REMARK    2  A    between atoms: O_2  and  C_19
REMARK    3  A    between atoms: N_3  and  C_7
REMARK    4  A    between atoms: N_3  and  C_12
REMARK    5  A    between atoms: C_5  and  C_10
REMARK    6  A    between atoms: C_5  and  C_11
REMARK    7  A    between atoms: C_6  and  C_9
REMARK    8  A    between atoms: C_9  and  C_13
REMARK    9  A    between atoms: C_12  and  C_14
REMARK   10  A    between atoms: C_12  and  C_15
REMARK   11  A    between atoms: C_17  and  C_18
REMARK                            x       y       z     vdW  Elec       q    Type
REMARK                         _______ _______ _______ _____ _____    ______ ____
ROOT
ATOM      1  O   UNL     1      -0.032  -0.645  24.166  0.00  0.00    -0.356 OA
ATOM      4  N   UNL     1      -0.511   0.117  25.225  0.00  0.00    -0.083 NA
ATOM     13  C   UNL     1      -0.134   1.369  24.948  0.00  0.00    +0.084 A 
ATOM     16  C   UNL     1       0.577   1.457  23.739  0.00  0.00    +0.074 A 
ATOM     17  C   UNL     1       0.614   0.164  23.287  0.00  0.00    +0.175 A 
ENDROOT
BRANCH  13   9
ATOM      9  C   UNL     1      -0.490   2.489  25.897  0.00  0.00    +0.063 C 
BRANCH   9   6
ATOM      5  C   UNL     1      -2.920   2.426  24.957  0.00  0.00    -0.016 C 
ATOM      6  C   UNL     1      -1.688   3.253  25.381  0.00  0.00    +0.004 C 
ATOM      7  C   UNL     1      -3.787   3.540  25.580  0.00  0.00    +0.060 C 
ATOM      8  C   UNL     1      -2.578   3.872  26.479  0.00  0.00    +0.023 C 
ATOM     10  C   UNL     1      -3.142   2.299  23.460  0.00  0.00    +0.013 C 
ATOM     11  C   UNL     1      -2.982   1.052  25.589  0.00  0.00    +0.013 C 
BRANCH   7   3
ATOM      3  N   UNL     1      -4.856   2.979  26.410  0.00  0.00    -0.311 NA
ATOM     25  H   UNL     1      -4.874   3.331  27.367  0.00  0.00    +0.122 HD
BRANCH   3  12
ATOM     12  C   UNL     1      -6.146   3.242  25.774  0.00  0.00    +0.048 C 
ATOM     14  C   UNL     1      -6.487   2.130  24.786  0.00  0.00    +0.023 C 
ATOM     15  C   UNL     1      -6.103   4.598  25.079  0.00  0.00    +0.023 C 
ENDBRANCH   3  12
ENDBRANCH   7   3
ENDBRANCH   9   6
ENDBRANCH  13   9
BRANCH  17  18
ATOM     18  C   UNL     1       1.186  -0.482  22.101  0.00  0.00    +0.306 C 
BRANCH  18   2
ATOM      2  O   UNL     1       2.417   0.148  21.737  0.00  0.00    -0.484 OA
BRANCH   2  19
ATOM     19  C   UNL     1       3.478  -0.057  22.575  0.00  0.00    +0.121 A 
ATOM     20  C   UNL     1       3.654  -1.299  23.185  0.00  0.00    +0.045 A 
ATOM     21  C   UNL     1       4.384   0.975  22.819  0.00  0.00    +0.045 A 
ATOM     22  C   UNL     1       4.738  -1.508  24.040  0.00  0.00    +0.004 A 
ATOM     23  C   UNL     1       5.466   0.766  23.673  0.00  0.00    +0.004 A 
ATOM     24  C   UNL     1       5.643  -0.476  24.285  0.00  0.00    +0.000 A 
ENDBRANCH   2  19
ENDBRANCH  18   2
ENDBRANCH  17  18
TORSDOF 7
ENDMDL
MODEL 7
REMARK VINA RESULT:      -4.3      1.482      4.753
REMARK  Name = 56774163
REMARK  11 active torsions:
REMARK  status: ('A' for Active; 'I' for Inactive)
REMARK    1  A    between atoms: O_2  and  C_18
REMARK    2  A    between atoms: O_2  and  C_19
REMARK    3  A    between atoms: N_3  and  C_7
REMARK    4  A    between atoms: N_3  and  C_12
REMARK    5  A    between atoms: C_5  and  C_10
REMARK    6  A    between atoms: C_5  and  C_11
REMARK    7  A    between atoms: C_6  and  C_9
REMARK    8  A    between atoms: C_9  and  C_13
REMARK    9  A    between atoms: C_12  and  C_14
REMARK   10  A    between atoms: C_12  and  C_15
REMARK   11  A    between atoms: C_17  and  C_18
REMARK                            x       y       z     vdW  Elec       q    Type
REMARK                         _______ _______ _______ _____ _____    ______ ____
ROOT
ATOM      1  O   UNL     1       0.940   1.731  24.133  0.00  0.00    -0.356 OA
ATOM      4  N   UNL     1       0.565   0.545  23.513  0.00  0.00    -0.083 NA
ATOM     13  C   UNL     1      -0.444   0.073  24.250  0.00  0.00    +0.084 A 
ATOM     16  C   UNL     1      -0.747   0.910  25.337  0.00  0.00    +0.074 A 
ATOM     17  C   UNL     1       0.152   1.938  25.219  0.00  0.00    +0.175 A 
ENDROOT
BRANCH  13   9
ATOM      9  C   UNL     1      -1.114  -1.225  23.865  0.00  0.00    +0.063 C 
BRANCH   9   6
ATOM      5  C   UNL     1      -3.563  -1.460  24.723  0.00  0.00    -0.016 C 
ATOM      6  C   UNL     1      -2.589  -1.000  23.618  0.00  0.00    +0.004 C 
ATOM      7  C   UNL     1      -4.383  -0.188  24.423  0.00  0.00    +0.060 C 
ATOM      8  C   UNL     1      -3.075   0.438  23.896  0.00  0.00    +0.023 C 
ATOM     10  C   UNL     1      -4.345  -2.728  24.423  0.00  0.00    +0.013 C 
ATOM     11  C   UNL     1      -2.927  -1.579  26.091  0.00  0.00    +0.013 C 
BRANCH   7   3
ATOM      3  N   UNL     1      -4.773   0.496  25.659  0.00  0.00    -0.311 NA
ATOM     25  H   UNL     1      -4.206   1.315  25.883  0.00  0.00    +0.122 HD
BRANCH   3  12
ATOM     12  C   UNL     1      -6.177   0.892  25.567  0.00  0.00    +0.048 C 
ATOM     14  C   UNL     1      -6.407   1.747  24.325  0.00  0.00    +0.023 C 
ATOM     15  C   UNL     1      -6.576   1.645  26.832  0.00  0.00    +0.023 C 
ENDBRANCH   3  12
ENDBRANCH   7   3
ENDBRANCH   9   6
ENDBRANCH  13   9
BRANCH  17  18
ATOM     18  C   UNL     1       0.413   3.154  25.996  0.00  0.00    +0.306 C 
BRANCH  18   2
ATOM      2  O   UNL     1      -0.260   4.272  25.411  0.00  0.00    -0.484 OA
BRANCH   2  19
ATOM     19  C   UNL     1      -1.615   4.162  25.272  0.00  0.00    +0.121 A 
ATOM     20  C   UNL     1      -2.182   4.089  23.999  0.00  0.00    +0.045 A 
ATOM     21  C   UNL     1      -2.431   4.122  26.402  0.00  0.00    +0.045 A 
ATOM     22  C   UNL     1      -3.566   3.976  23.858  0.00  0.00    +0.004 A 
ATOM     23  C   UNL     1      -3.814   4.010  26.261  0.00  0.00    +0.004 A 
ATOM     24  C   UNL     1      -4.382   3.937  24.989  0.00  0.00    +0.000 A 
ENDBRANCH   2  19
ENDBRANCH  18   2
ENDBRANCH  17  18
TORSDOF 7
ENDMDL
MODEL 8
REMARK VINA RESULT:      -3.5      2.495      5.424
REMARK  Name = 56774163
REMARK  11 active torsions:
REMARK  status: ('A' for Active; 'I' for Inactive)
REMARK    1  A    between atoms: O_2  and  C_18
REMARK    2  A    between atoms: O_2  and  C_19
REMARK    3  A    between atoms: N_3  and  C_7
REMARK    4  A    between atoms: N_3  and  C_12
REMARK    5  A    between atoms: C_5  and  C_10
REMARK    6  A    between atoms: C_5  and  C_11
REMARK    7  A    between atoms: C_6  and  C_9
REMARK    8  A    between atoms: C_9  and  C_13
REMARK    9  A    between atoms: C_12  and  C_14
REMARK   10  A    between atoms: C_12  and  C_15
REMARK   11  A    between atoms: C_17  and  C_18
REMARK                            x       y       z     vdW  Elec       q    Type
REMARK                         _______ _______ _______ _____ _____    ______ ____
ROOT
ATOM      1  O   UNL     1      -3.820   3.517  26.243  0.00  0.00    -0.356 OA
ATOM      4  N   UNL     1      -2.549   3.993  25.945  0.00  0.00    -0.083 NA
ATOM     13  C   UNL     1      -2.188   3.343  24.836  0.00  0.00    +0.084 A 
ATOM     16  C   UNL     1      -3.180   2.453  24.392  0.00  0.00    +0.074 A 
ATOM     17  C   UNL     1      -4.186   2.600  25.311  0.00  0.00    +0.175 A 
ENDROOT
BRANCH  13   9
ATOM      9  C   UNL     1      -0.840   3.613  24.211  0.00  0.00    +0.063 C 
BRANCH   9   6
ATOM      5  C   UNL     1      -0.175   1.097  24.073  0.00  0.00    -0.016 C 
ATOM      6  C   UNL     1       0.138   2.521  24.580  0.00  0.00    +0.004 C 
ATOM      7  C   UNL     1       1.339   0.934  23.827  0.00  0.00    +0.060 C 
ATOM      8  C   UNL     1       1.407   2.470  23.703  0.00  0.00    +0.023 C 
ATOM     10  C   UNL     1      -0.692   0.126  25.121  0.00  0.00    +0.013 C 
ATOM     11  C   UNL     1      -1.090   1.063  22.868  0.00  0.00    +0.013 C 
BRANCH   7   3
ATOM      3  N   UNL     1       1.602   0.338  22.515  0.00  0.00    -0.311 NA
ATOM     25  H   UNL     1       1.372   0.942  21.725  0.00  0.00    +0.122 HD
BRANCH   3  12
ATOM     12  C   UNL     1       3.012  -0.043  22.433  0.00  0.00    +0.048 C 
ATOM     14  C   UNL     1       3.349  -1.060  23.520  0.00  0.00    +0.023 C 
ATOM     15  C   UNL     1       3.883   1.202  22.559  0.00  0.00    +0.023 C 
ENDBRANCH   3  12
ENDBRANCH   7   3
ENDBRANCH   9   6
ENDBRANCH  13   9
BRANCH  17  18
ATOM     18  C   UNL     1      -5.510   1.992  25.475  0.00  0.00    +0.306 C 
BRANCH  18   2
ATOM      2  O   UNL     1      -5.664   0.887  24.579  0.00  0.00    -0.484 OA
BRANCH   2  19
ATOM     19  C   UNL     1      -4.834  -0.180  24.780  0.00  0.00    +0.121 A 
ATOM     20  C   UNL     1      -4.201  -0.349  26.012  0.00  0.00    +0.045 A 
ATOM     21  C   UNL     1      -4.621  -1.101  23.755  0.00  0.00    +0.045 A 
ATOM     22  C   UNL     1      -3.355  -1.439  26.218  0.00  0.00    +0.004 A 
ATOM     23  C   UNL     1      -3.775  -2.190  23.960  0.00  0.00    +0.004 A 
ATOM     24  C   UNL     1      -3.141  -2.359  25.192  0.00  0.00    +0.000 A 
ENDBRANCH   2  19
ENDBRANCH  18   2
ENDBRANCH  17  18
TORSDOF 7
ENDMDL
MODEL 9
REMARK VINA RESULT:      -3.1      2.027      4.564
REMARK  Name = 56774163
REMARK  11 active torsions:
REMARK  status: ('A' for Active; 'I' for Inactive)
REMARK    1  A    between atoms: O_2  and  C_18
REMARK    2  A    between atoms: O_2  and  C_19
REMARK    3  A    between atoms: N_3  and  C_7
REMARK    4  A    between atoms: N_3  and  C_12
REMARK    5  A    between atoms: C_5  and  C_10
REMARK    6  A    between atoms: C_5  and  C_11
REMARK    7  A    between atoms: C_6  and  C_9
REMARK    8  A    between atoms: C_9  and  C_13
REMARK    9  A    between atoms: C_12  and  C_14
REMARK   10  A    between atoms: C_12  and  C_15
REMARK   11  A    between atoms: C_17  and  C_18
REMARK                            x       y       z     vdW  Elec       q    Type
REMARK                         _______ _______ _______ _____ _____    ______ ____
ROOT
ATOM      1  O   UNL     1      -5.350   0.447  25.405  0.00  0.00    -0.356 OA
ATOM      4  N   UNL     1      -5.140   1.792  25.688  0.00  0.00    -0.083 NA
ATOM     13  C   UNL     1      -4.305   2.219  24.736  0.00  0.00    +0.084 A 
ATOM     16  C   UNL     1      -3.957   1.199  23.835  0.00  0.00    +0.074 A 
ATOM     17  C   UNL     1      -4.640   0.106  24.299  0.00  0.00    +0.175 A 
ENDROOT
BRANCH  13   9
ATOM      9  C   UNL     1      -3.851   3.659  24.726  0.00  0.00    +0.063 C 
BRANCH   9   6
ATOM      5  C   UNL     1      -1.250   3.794  24.821  0.00  0.00    -0.016 C 
ATOM      6  C   UNL     1      -2.543   3.792  23.979  0.00  0.00    +0.004 C 
ATOM      7  C   UNL     1      -0.608   2.953  23.697  0.00  0.00    +0.060 C 
ATOM      8  C   UNL     1      -2.033   2.483  23.339  0.00  0.00    +0.023 C 
ATOM     10  C   UNL     1      -0.574   5.144  24.982  0.00  0.00    +0.013 C 
ATOM     11  C   UNL     1      -1.403   3.147  26.180  0.00  0.00    +0.013 C 
BRANCH   7   3
ATOM      3  N   UNL     1       0.143   1.821  24.244  0.00  0.00    -0.311 NA
ATOM     25  H   UNL     1      -0.427   1.146  24.755  0.00  0.00    +0.122 HD
BRANCH   3  12
ATOM     12  C   UNL     1       0.842   1.137  23.157  0.00  0.00    +0.048 C 
ATOM     14  C   UNL     1       0.164  -0.194  22.846  0.00  0.00    +0.023 C 
ATOM     15  C   UNL     1       2.303   0.932  23.543  0.00  0.00    +0.023 C 
ENDBRANCH   3  12
ENDBRANCH   7   3
ENDBRANCH   9   6
ENDBRANCH  13   9
BRANCH  17  18
ATOM     18  C   UNL     1      -4.748  -1.289  23.857  0.00  0.00    +0.306 C 
BRANCH  18   2
ATOM      2  O   UNL     1      -4.180  -2.165  24.835  0.00  0.00    -0.484 OA
BRANCH   2  19
ATOM     19  C   UNL     1      -2.852  -1.996  25.106  0.00  0.00    +0.121 A 
ATOM     20  C   UNL     1      -2.443  -1.016  26.011  0.00  0.00    +0.045 A 
ATOM     21  C   UNL     1      -1.904  -2.806  24.480  0.00  0.00    +0.045 A 
ATOM     22  C   UNL     1      -1.086  -0.845  26.288  0.00  0.00    +0.004 A 
ATOM     23  C   UNL     1      -0.548  -2.635  24.757  0.00  0.00    +0.004 A 
ATOM     24  C   UNL     1      -0.138  -1.653  25.661  0.00  0.00    +0.000 A 
ENDBRANCH   2  19
ENDBRANCH  18   2
ENDBRANCH  17  18
TORSDOF 7
ENDMDL
MODEL 10
REMARK VINA RESULT:      -2.9     15.728     17.159
REMARK  Name = 56774163
REMARK  11 active torsions:
REMARK  status: ('A' for Active; 'I' for Inactive)
REMARK    1  A    between atoms: O_2  and  C_18
REMARK    2  A    between atoms: O_2  and  C_19
REMARK    3  A    between atoms: N_3  and  C_7
REMARK    4  A    between atoms: N_3  and  C_12
REMARK    5  A    between atoms: C_5  and  C_10
REMARK    6  A    between atoms: C_5  and  C_11
REMARK    7  A    between atoms: C_6  and  C_9
REMARK    8  A    between atoms: C_9  and  C_13
REMARK    9  A    between atoms: C_12  and  C_14
REMARK   10  A    between atoms: C_12  and  C_15
REMARK   11  A    between atoms: C_17  and  C_18
REMARK                            x       y       z     vdW  Elec       q    Type
REMARK                         _______ _______ _______ _____ _____    ______ ____
ROOT
ATOM      1  O   UNL     1      -3.954  -8.640  10.777  0.00  0.00    -0.356 OA
ATOM      4  N   UNL     1      -5.307  -8.350  10.650  0.00  0.00    -0.083 NA
ATOM     13  C   UNL     1      -5.928  -9.523  10.808  0.00  0.00    +0.084 A 
ATOM     16  C   UNL     1      -5.027 -10.577  11.036  0.00  0.00    +0.074 A 
ATOM     17  C   UNL     1      -3.799  -9.969  11.008  0.00  0.00    +0.175 A 
ENDROOT
BRANCH  13   9
ATOM      9  C   UNL     1      -7.435  -9.592  10.732  0.00  0.00    +0.063 C 
BRANCH   9   6
ATOM      5  C   UNL     1      -9.490  -9.472  12.330  0.00  0.00    -0.016 C 
ATOM      6  C   UNL     1      -8.049  -9.033  11.996  0.00  0.00    +0.004 C 
ATOM      7  C   UNL     1      -9.050  -9.523  13.808  0.00  0.00    +0.060 C 
ATOM      8  C   UNL     1      -7.613  -9.746  13.293  0.00  0.00    +0.023 C 
ATOM     10  C   UNL     1     -10.567  -8.429  12.090  0.00  0.00    +0.013 C 
ATOM     11  C   UNL     1      -9.902 -10.773  11.675  0.00  0.00    +0.013 C 
BRANCH   7   3
ATOM      3  N   UNL     1      -9.517 -10.750  14.459  0.00  0.00    -0.311 NA
ATOM     25  H   UNL     1      -8.793 -11.455  14.596  0.00  0.00    +0.122 HD
BRANCH   3  12
ATOM     12  C   UNL     1     -10.111 -10.412  15.752  0.00  0.00    +0.048 C 
ATOM     14  C   UNL     1     -10.688  -9.000  15.717  0.00  0.00    +0.023 C 
ATOM     15  C   UNL     1      -9.057 -10.547  16.846  0.00  0.00    +0.023 C 
ENDBRANCH   3  12
ENDBRANCH   7   3
ENDBRANCH   9   6
ENDBRANCH  13   9
BRANCH  17  18
ATOM     18  C   UNL     1      -2.423 -10.450  11.168  0.00  0.00    +0.306 C 
BRANCH  18   2
ATOM      2  O   UNL     1      -1.846  -9.914  12.362  0.00  0.00    -0.484 OA
BRANCH   2  19
ATOM     19  C   UNL     1      -2.492 -10.199  13.532  0.00  0.00    +0.121 A 
ATOM     20  C   UNL     1      -3.887 -10.226  13.570  0.00  0.00    +0.045 A 
ATOM     21  C   UNL     1      -1.759 -10.464  14.689  0.00  0.00    +0.045 A 
ATOM     22  C   UNL     1      -4.547 -10.517  14.765  0.00  0.00    +0.004 A 
ATOM     23  C   UNL     1      -2.417 -10.755  15.882  0.00  0.00    +0.004 A 
ATOM     24  C   UNL     1      -3.813 -10.781  15.921  0.00  0.00    +0.000 A 
ENDBRANCH   2  19
ENDBRANCH  18   2
ENDBRANCH  17  18
TORSDOF 7
ENDMDL
