MODEL 1
REMARK VINA RESULT:       5.2      0.000      0.000
REMARK  Name = 11885137
REMARK  5 active torsions:
REMARK  status: ('A' for Active; 'I' for Inactive)
REMARK    1  A    between atoms: S_1  and  N_6
REMARK    2  A    between atoms: S_1  and  C_19
REMARK    3  A    between atoms: O_5  and  C_25
REMARK    4  A    between atoms: O_5  and  C_26
REMARK    5  A    between atoms: C_17  and  C_20
REMARK                            x       y       z     vdW  Elec       q    Type
REMARK                         _______ _______ _______ _____ _____    ______ ____
ROOT
ATOM      4  O   UNL     1       0.367   2.389  25.695  0.00  0.00    -0.267 OA
ATOM      6  N   UNL     1      -4.607   2.520  25.373  0.00  0.00    -0.180 NA
ATOM      7  N   UNL     1      -1.588   3.089  24.633  0.00  0.00    -0.311 N 
ATOM      8  C   UNL     1      -3.305   4.614  25.767  0.00  0.00    +0.025 C 
ATOM      9  C   UNL     1      -3.694   3.836  23.470  0.00  0.00    +0.052 C 
ATOM     10  C   UNL     1      -3.617   5.081  24.351  0.00  0.00    +0.017 C 
ATOM     11  C   UNL     1      -4.412   3.683  26.286  0.00  0.00    +0.114 C 
ATOM     12  C   UNL     1      -4.841   2.932  23.956  0.00  0.00    +0.118 C 
ATOM     13  C   UNL     1      -1.924   3.946  25.778  0.00  0.00    +0.130 C 
ATOM     14  C   UNL     1      -2.382   3.075  23.483  0.00  0.00    +0.026 A 
ATOM     15  C   UNL     1      -1.994   2.376  22.405  0.00  0.00    +0.022 A 
ATOM     16  C   UNL     1      -0.377   2.373  24.713  0.00  0.00    +0.259 A 
ATOM     17  C   UNL     1       0.013   1.569  23.501  0.00  0.00    +0.047 A 
ATOM     18  C   UNL     1      -0.781   1.607  22.421  0.00  0.00    +0.015 A 
ENDROOT
BRANCH  17  20
ATOM     20  C   UNL     1       1.235   0.745  23.493  0.00  0.00    -0.012 A 
ATOM     21  C   UNL     1       1.168  -0.607  23.831  0.00  0.00    +0.012 A 
ATOM     22  C   UNL     1       2.459   1.317  23.148  0.00  0.00    +0.012 A 
ATOM     23  C   UNL     1       2.325  -1.386  23.823  0.00  0.00    +0.046 A 
ATOM     24  C   UNL     1       3.617   0.537  23.140  0.00  0.00    +0.046 A 
ATOM     25  C   UNL     1       3.549  -0.814  23.478  0.00  0.00    +0.120 A 
BRANCH  25   5
ATOM      5  O   UNL     1       4.677  -1.574  23.471  0.00  0.00    -0.495 OA
ATOM     26  C   UNL     1       5.842  -1.014  24.076  0.00  0.00    +0.277 C 
ENDBRANCH  25   5
ENDBRANCH  17  20
BRANCH   6   1
ATOM      1  S   UNL     1      -5.626   1.279  25.962  0.00  0.00    +0.029 S 
ATOM      2  O   UNL     1      -6.306   1.757  27.147  0.00  0.00    -0.158 OA
ATOM      3  O   UNL     1      -4.894   0.032  25.956  0.00  0.00    -0.158 OA
ATOM     19  C   UNL     1      -6.806   1.228  24.637  0.00  0.00    +0.215 C 
ENDBRANCH   6   1
TORSDOF 3
ENDMDL
MODEL 2
REMARK VINA RESULT:       6.5      1.655      2.160
REMARK  Name = 11885137
REMARK  5 active torsions:
REMARK  status: ('A' for Active; 'I' for Inactive)
REMARK    1  A    between atoms: S_1  and  N_6
REMARK    2  A    between atoms: S_1  and  C_19
REMARK    3  A    between atoms: O_5  and  C_25
REMARK    4  A    between atoms: O_5  and  C_26
REMARK    5  A    between atoms: C_17  and  C_20
REMARK                            x       y       z     vdW  Elec       q    Type
REMARK                         _______ _______ _______ _____ _____    ______ ____
ROOT
ATOM      4  O   UNL     1       1.360   2.100  24.923  0.00  0.00    -0.267 OA
ATOM      6  N   UNL     1      -3.423   0.715  24.668  0.00  0.00    -0.180 NA
ATOM      7  N   UNL     1      -0.640   1.889  23.741  0.00  0.00    -0.311 N 
ATOM      8  C   UNL     1      -2.782   3.116  24.422  0.00  0.00    +0.025 C 
ATOM      9  C   UNL     1      -2.791   1.650  22.451  0.00  0.00    +0.052 C 
ATOM     10  C   UNL     1      -3.120   3.059  22.938  0.00  0.00    +0.017 C 
ATOM     11  C   UNL     1      -3.618   2.091  25.206  0.00  0.00    +0.114 C 
ATOM     12  C   UNL     1      -3.670   0.630  23.197  0.00  0.00    +0.118 C 
ATOM     13  C   UNL     1      -1.274   2.900  24.599  0.00  0.00    +0.130 C 
ATOM     14  C   UNL     1      -1.323   1.329  22.658  0.00  0.00    +0.026 A 
ATOM     15  C   UNL     1      -0.686   0.498  21.818  0.00  0.00    +0.022 A 
ATOM     16  C   UNL     1       0.715   1.600  24.001  0.00  0.00    +0.259 A 
ATOM     17  C   UNL     1       1.390   0.635  23.063  0.00  0.00    +0.047 A 
ATOM     18  C   UNL     1       0.689   0.142  22.031  0.00  0.00    +0.015 A 
ENDROOT
BRANCH  17  20
ATOM     20  C   UNL     1       2.791   0.226  23.268  0.00  0.00    -0.012 A 
ATOM     21  C   UNL     1       3.086  -1.081  23.659  0.00  0.00    +0.012 A 
ATOM     22  C   UNL     1       3.822   1.144  23.072  0.00  0.00    +0.012 A 
ATOM     23  C   UNL     1       4.412  -1.468  23.854  0.00  0.00    +0.046 A 
ATOM     24  C   UNL     1       5.149   0.757  23.267  0.00  0.00    +0.046 A 
ATOM     25  C   UNL     1       5.444  -0.549  23.658  0.00  0.00    +0.120 A 
BRANCH  25   5
ATOM      5  O   UNL     1       6.736  -0.927  23.849  0.00  0.00    -0.495 OA
ATOM     26  C   UNL     1       7.679  -0.546  22.848  0.00  0.00    +0.277 C 
ENDBRANCH  25   5
ENDBRANCH  17  20
BRANCH   6   1
ATOM      1  S   UNL     1      -4.093  -0.549  25.605  0.00  0.00    +0.029 S 
ATOM      2  O   UNL     1      -5.355  -0.103  26.156  0.00  0.00    -0.158 OA
ATOM      3  O   UNL     1      -3.055  -1.111  26.441  0.00  0.00    -0.158 OA
ATOM     19  C   UNL     1      -4.442  -1.711  24.310  0.00  0.00    +0.215 C 
ENDBRANCH   6   1
TORSDOF 3
ENDMDL
MODEL 3
REMARK VINA RESULT:       6.7      2.344      3.499
REMARK  Name = 11885137
REMARK  5 active torsions:
REMARK  status: ('A' for Active; 'I' for Inactive)
REMARK    1  A    between atoms: S_1  and  N_6
REMARK    2  A    between atoms: S_1  and  C_19
REMARK    3  A    between atoms: O_5  and  C_25
REMARK    4  A    between atoms: O_5  and  C_26
REMARK    5  A    between atoms: C_17  and  C_20
REMARK                            x       y       z     vdW  Elec       q    Type
REMARK                         _______ _______ _______ _____ _____    ______ ____
ROOT
ATOM      4  O   UNL     1      -0.360   0.377  22.037  0.00  0.00    -0.267 OA
ATOM      6  N   UNL     1      -3.987   1.751  25.168  0.00  0.00    -0.180 NA
ATOM      7  N   UNL     1      -1.953  -0.139  23.660  0.00  0.00    -0.311 N 
ATOM      8  C   UNL     1      -4.465   0.187  23.281  0.00  0.00    +0.025 C 
ATOM      9  C   UNL     1      -3.660  -0.701  25.426  0.00  0.00    +0.052 C 
ATOM     10  C   UNL     1      -4.620  -0.963  24.268  0.00  0.00    +0.017 C 
ATOM     11  C   UNL     1      -4.818   1.525  23.951  0.00  0.00    +0.114 C 
ATOM     12  C   UNL     1      -4.051   0.611  26.131  0.00  0.00    +0.118 C 
ATOM     13  C   UNL     1      -3.038   0.171  22.719  0.00  0.00    +0.130 C 
ATOM     14  C   UNL     1      -2.225  -0.630  24.940  0.00  0.00    +0.026 A 
ATOM     15  C   UNL     1      -1.218  -1.018  25.740  0.00  0.00    +0.022 A 
ATOM     16  C   UNL     1      -0.637  -0.018  23.170  0.00  0.00    +0.259 A 
ATOM     17  C   UNL     1       0.471  -0.426  24.104  0.00  0.00    +0.047 A 
ATOM     18  C   UNL     1       0.148  -0.906  25.315  0.00  0.00    +0.015 A 
ENDROOT
BRANCH  17  20
ATOM     20  C   UNL     1       1.886  -0.298  23.712  0.00  0.00    -0.012 A 
ATOM     21  C   UNL     1       2.346   0.886  23.135  0.00  0.00    +0.012 A 
ATOM     22  C   UNL     1       2.766  -1.360  23.918  0.00  0.00    +0.012 A 
ATOM     23  C   UNL     1       3.685   1.007  22.764  0.00  0.00    +0.046 A 
ATOM     24  C   UNL     1       4.106  -1.239  23.546  0.00  0.00    +0.046 A 
ATOM     25  C   UNL     1       4.565  -0.055  22.969  0.00  0.00    +0.120 A 
BRANCH  25   5
ATOM      5  O   UNL     1       5.871   0.063  22.607  0.00  0.00    -0.495 OA
ATOM     26  C   UNL     1       6.850  -0.327  23.568  0.00  0.00    +0.277 C 
ENDBRANCH  25   5
ENDBRANCH  17  20
BRANCH   6   1
ATOM      1  S   UNL     1      -4.098   3.311  25.860  0.00  0.00    +0.029 S 
ATOM      2  O   UNL     1      -2.906   3.561  26.642  0.00  0.00    -0.158 OA
ATOM      3  O   UNL     1      -5.422   3.480  26.419  0.00  0.00    -0.158 OA
ATOM     19  C   UNL     1      -3.998   4.287  24.382  0.00  0.00    +0.215 C 
ENDBRANCH   6   1
TORSDOF 3
ENDMDL
