MODEL 1
REMARK VINA RESULT:      -5.4      0.000      0.000
REMARK  Name = 28961776
REMARK  10 active torsions:
REMARK  status: ('A' for Active; 'I' for Inactive)
REMARK    1  A    between atoms: O_2  and  C_11
REMARK    2  A    between atoms: O_3  and  C_17
REMARK    3  A    between atoms: O_3  and  C_20
REMARK    4  A    between atoms: O_4  and  C_18
REMARK    5  A    between atoms: N_6  and  C_8
REMARK    6  A    between atoms: N_7  and  C_16
REMARK    7  A    between atoms: C_9  and  C_17
REMARK    8  A    between atoms: C_10  and  C_16
REMARK    9  A    between atoms: C_13  and  C_18
REMARK   10  A    between atoms: C_19  and  C_21
REMARK                            x       y       z     vdW  Elec       q    Type
REMARK                         _______ _______ _______ _____ _____    ______ ____
ROOT
ATOM      1  O   UNL     1       0.700   1.441  23.345  0.00  0.00    -0.365 OA
ATOM      8  C   UNL     1      -0.978  -0.197  23.750  0.00  0.00    +0.118 C 
ATOM     10  C   UNL     1      -0.562   1.254  24.024  0.00  0.00    +0.155 C 
ATOM     11  C   UNL     1       0.350  -0.895  23.502  0.00  0.00    +0.165 C 
ATOM     13  C   UNL     1       1.102   0.195  22.746  0.00  0.00    +0.174 C 
ENDROOT
BRANCH   8   6
ATOM      6  N   UNL     1      -1.828  -0.821  24.750  0.00  0.00    -0.289 NA
ATOM      9  C   UNL     1      -3.048  -0.082  25.095  0.00  0.00    +0.083 C 
ATOM     12  C   UNL     1      -2.234  -2.178  24.389  0.00  0.00    +0.085 C 
ATOM     14  C   UNL     1      -3.793  -1.127  25.923  0.00  0.00    +0.022 C 
ATOM     15  C   UNL     1      -3.433  -2.465  25.286  0.00  0.00    +0.017 C 
BRANCH   9  17
ATOM     17  C   UNL     1      -3.895   0.407  23.916  0.00  0.00    +0.178 C 
BRANCH  17   3
ATOM      3  O   UNL     1      -4.104   1.801  24.057  0.00  0.00    -0.381 OA
ATOM     20  C   UNL     1      -5.299   2.084  24.776  0.00  0.00    +0.194 C 
ENDBRANCH  17   3
ENDBRANCH   9  17
ENDBRANCH   8   6
BRANCH  11   2
ATOM      2  O   UNL     1       1.014  -1.200  24.721  0.00  0.00    -0.388 OA
ATOM     22  H   UNL     1       0.612  -0.656  25.420  0.00  0.00    +0.210 HD
ENDBRANCH  11   2
BRANCH  10  16
ATOM     16  C   UNL     1      -0.352   1.641  25.483  0.00  0.00    +0.137 C 
BRANCH  16   7
ATOM      5  O   UNL     1      -0.880   4.436  24.905  0.00  0.00    -0.276 OA
ATOM      7  N   UNL     1      -1.438   2.438  25.966  0.00  0.00    -0.313 N 
ATOM     19  C   UNL     1      -1.616   3.778  25.636  0.00  0.00    +0.210 C 
ATOM     21  C   UNL     1      -2.852   4.371  26.259  0.00  0.00    +0.109 C 
ATOM     23  H   UNL     1      -2.111   1.995  26.585  0.00  0.00    +0.149 HD
ENDBRANCH  16   7
ENDBRANCH  10  16
BRANCH  13  18
ATOM     18  C   UNL     1       2.616   0.087  22.780  0.00  0.00    +0.190 C 
BRANCH  18   4
ATOM      4  O   UNL     1       3.159   1.360  23.091  0.00  0.00    -0.392 OA
ATOM     24  H   UNL     1       3.038   1.923  22.307  0.00  0.00    +0.210 HD
ENDBRANCH  18   4
ENDBRANCH  13  18
TORSDOF 8
ENDMDL
MODEL 2
REMARK VINA RESULT:      -4.6      1.676      4.593
REMARK  Name = 28961776
REMARK  10 active torsions:
REMARK  status: ('A' for Active; 'I' for Inactive)
REMARK    1  A    between atoms: O_2  and  C_11
REMARK    2  A    between atoms: O_3  and  C_17
REMARK    3  A    between atoms: O_3  and  C_20
REMARK    4  A    between atoms: O_4  and  C_18
REMARK    5  A    between atoms: N_6  and  C_8
REMARK    6  A    between atoms: N_7  and  C_16
REMARK    7  A    between atoms: C_9  and  C_17
REMARK    8  A    between atoms: C_10  and  C_16
REMARK    9  A    between atoms: C_13  and  C_18
REMARK   10  A    between atoms: C_19  and  C_21
REMARK                            x       y       z     vdW  Elec       q    Type
REMARK                         _______ _______ _______ _____ _____    ______ ____
ROOT
ATOM      1  O   UNL     1      -0.460   3.086  25.360  0.00  0.00    -0.365 OA
ATOM      8  C   UNL     1      -2.304   1.585  25.267  0.00  0.00    +0.118 C 
ATOM     10  C   UNL     1      -0.792   1.716  25.046  0.00  0.00    +0.155 C 
ATOM     11  C   UNL     1      -2.806   3.006  25.056  0.00  0.00    +0.165 C 
ATOM     13  C   UNL     1      -1.667   3.802  25.684  0.00  0.00    +0.174 C 
ENDROOT
BRANCH   8   6
ATOM      6  N   UNL     1      -2.982   0.567  24.485  0.00  0.00    -0.289 NA
ATOM      9  C   UNL     1      -2.454  -0.795  24.624  0.00  0.00    +0.083 C 
ATOM     12  C   UNL     1      -4.418   0.502  24.752  0.00  0.00    +0.085 C 
ATOM     14  C   UNL     1      -3.541  -1.599  23.913  0.00  0.00    +0.022 C 
ATOM     15  C   UNL     1      -4.841  -0.862  24.218  0.00  0.00    +0.017 C 
BRANCH   9  17
ATOM     17  C   UNL     1      -2.239  -1.291  26.058  0.00  0.00    +0.178 C 
BRANCH  17   3
ATOM      3  O   UNL     1      -0.846  -1.378  26.302  0.00  0.00    -0.381 OA
ATOM     20  C   UNL     1      -0.145  -1.886  25.172  0.00  0.00    +0.194 C 
ENDBRANCH  17   3
ENDBRANCH   9  17
ENDBRANCH   8   6
BRANCH  11   2
ATOM      2  O   UNL     1      -2.924   3.316  23.675  0.00  0.00    -0.388 OA
ATOM     22  H   UNL     1      -2.716   2.510  23.172  0.00  0.00    +0.210 HD
ENDBRANCH  11   2
BRANCH  10  16
ATOM     16  C   UNL     1      -0.281   1.438  23.637  0.00  0.00    +0.137 C 
BRANCH  16   7
ATOM      5  O   UNL     1       1.346  -0.339  22.017  0.00  0.00    -0.276 OA
ATOM      7  N   UNL     1       1.148   1.344  23.616  0.00  0.00    -0.313 N 
ATOM     19  C   UNL     1       1.850   0.459  22.803  0.00  0.00    +0.210 C 
ATOM     21  C   UNL     1       3.342   0.585  22.960  0.00  0.00    +0.109 C 
ATOM     23  H   UNL     1       1.670   1.960  24.233  0.00  0.00    +0.149 HD
ENDBRANCH  16   7
ENDBRANCH  10  16
BRANCH  13  18
ATOM     18  C   UNL     1      -1.539   5.240  25.215  0.00  0.00    +0.190 C 
BRANCH  18   4
ATOM      4  O   UNL     1      -0.411   5.346  24.362  0.00  0.00    -0.392 OA
ATOM     24  H   UNL     1       0.297   4.806  24.755  0.00  0.00    +0.210 HD
ENDBRANCH  18   4
ENDBRANCH  13  18
TORSDOF 8
ENDMDL
MODEL 3
REMARK VINA RESULT:      -4.5      2.068      2.523
REMARK  Name = 28961776
REMARK  10 active torsions:
REMARK  status: ('A' for Active; 'I' for Inactive)
REMARK    1  A    between atoms: O_2  and  C_11
REMARK    2  A    between atoms: O_3  and  C_17
REMARK    3  A    between atoms: O_3  and  C_20
REMARK    4  A    between atoms: O_4  and  C_18
REMARK    5  A    between atoms: N_6  and  C_8
REMARK    6  A    between atoms: N_7  and  C_16
REMARK    7  A    between atoms: C_9  and  C_17
REMARK    8  A    between atoms: C_10  and  C_16
REMARK    9  A    between atoms: C_13  and  C_18
REMARK   10  A    between atoms: C_19  and  C_21
REMARK                            x       y       z     vdW  Elec       q    Type
REMARK                         _______ _______ _______ _____ _____    ______ ____
ROOT
ATOM      1  O   UNL     1       1.028   2.093  24.292  0.00  0.00    -0.365 OA
ATOM      8  C   UNL     1      -1.188   1.268  24.026  0.00  0.00    +0.118 C 
ATOM     10  C   UNL     1      -0.306   2.231  24.830  0.00  0.00    +0.155 C 
ATOM     11  C   UNL     1      -0.203   0.209  23.557  0.00  0.00    +0.165 C 
ATOM     13  C   UNL     1       1.024   1.071  23.277  0.00  0.00    +0.174 C 
ENDROOT
BRANCH   8   6
ATOM      6  N   UNL     1      -2.367   0.760  24.705  0.00  0.00    -0.289 NA
ATOM      9  C   UNL     1      -3.428   1.743  24.954  0.00  0.00    +0.083 C 
ATOM     12  C   UNL     1      -2.982  -0.372  24.013  0.00  0.00    +0.085 C 
ATOM     14  C   UNL     1      -4.567   0.829  25.404  0.00  0.00    +0.022 C 
ATOM     15  C   UNL     1      -4.389  -0.450  24.593  0.00  0.00    +0.017 C 
BRANCH   9  17
ATOM     17  C   UNL     1      -3.842   2.605  23.757  0.00  0.00    +0.178 C 
BRANCH  17   3
ATOM      3  O   UNL     1      -3.885   3.960  24.170  0.00  0.00    -0.381 OA
ATOM     20  C   UNL     1      -3.306   4.136  25.458  0.00  0.00    +0.194 C 
ENDBRANCH  17   3
ENDBRANCH   9  17
ENDBRANCH   8   6
BRANCH  11   2
ATOM      2  O   UNL     1       0.078  -0.732  24.585  0.00  0.00    -0.388 OA
ATOM     22  H   UNL     1       0.899  -1.195  24.344  0.00  0.00    +0.210 HD
ENDBRANCH  11   2
BRANCH  10  16
ATOM     16  C   UNL     1      -0.216   1.984  26.331  0.00  0.00    +0.137 C 
BRANCH  16   7
ATOM      5  O   UNL     1       0.511   2.265  29.128  0.00  0.00    -0.276 OA
ATOM      7  N   UNL     1       1.013   2.493  26.864  0.00  0.00    -0.313 N 
ATOM     19  C   UNL     1       1.278   2.592  28.227  0.00  0.00    +0.210 C 
ATOM     21  C   UNL     1       2.653   3.135  28.512  0.00  0.00    +0.109 C 
ATOM     23  H   UNL     1       1.723   2.797  26.205  0.00  0.00    +0.149 HD
ENDBRANCH  16   7
ENDBRANCH  10  16
BRANCH  13  18
ATOM     18  C   UNL     1       2.354   0.340  23.295  0.00  0.00    +0.190 C 
BRANCH  18   4
ATOM      4  O   UNL     1       3.395   1.276  23.069  0.00  0.00    -0.392 OA
ATOM     24  H   UNL     1       3.224   1.692  22.207  0.00  0.00    +0.210 HD
ENDBRANCH  18   4
ENDBRANCH  13  18
TORSDOF 8
ENDMDL
MODEL 4
REMARK VINA RESULT:      -4.4      2.112      3.246
REMARK  Name = 28961776
REMARK  10 active torsions:
REMARK  status: ('A' for Active; 'I' for Inactive)
REMARK    1  A    between atoms: O_2  and  C_11
REMARK    2  A    between atoms: O_3  and  C_17
REMARK    3  A    between atoms: O_3  and  C_20
REMARK    4  A    between atoms: O_4  and  C_18
REMARK    5  A    between atoms: N_6  and  C_8
REMARK    6  A    between atoms: N_7  and  C_16
REMARK    7  A    between atoms: C_9  and  C_17
REMARK    8  A    between atoms: C_10  and  C_16
REMARK    9  A    between atoms: C_13  and  C_18
REMARK   10  A    between atoms: C_19  and  C_21
REMARK                            x       y       z     vdW  Elec       q    Type
REMARK                         _______ _______ _______ _____ _____    ______ ____
ROOT
ATOM      1  O   UNL     1      -0.535  -0.217  24.374  0.00  0.00    -0.365 OA
ATOM      8  C   UNL     1      -2.782   0.554  24.510  0.00  0.00    +0.118 C 
ATOM     10  C   UNL     1      -1.312   0.991  24.532  0.00  0.00    +0.155 C 
ATOM     11  C   UNL     1      -2.720  -0.887  24.991  0.00  0.00    +0.165 C 
ATOM     13  C   UNL     1      -1.425  -1.348  24.329  0.00  0.00    +0.174 C 
ENDROOT
BRANCH   8   6
ATOM      6  N   UNL     1      -3.716   1.406  25.225  0.00  0.00    -0.289 NA
ATOM      9  C   UNL     1      -3.922   2.741  24.654  0.00  0.00    +0.083 C 
ATOM     12  C   UNL     1      -5.036   0.798  25.388  0.00  0.00    +0.085 C 
ATOM     14  C   UNL     1      -5.121   3.222  25.469  0.00  0.00    +0.022 C 
ATOM     15  C   UNL     1      -5.952   1.969  25.724  0.00  0.00    +0.017 C 
BRANCH   9  17
ATOM     17  C   UNL     1      -4.211   2.793  23.150  0.00  0.00    +0.178 C 
BRANCH  17   3
ATOM      3  O   UNL     1      -3.030   3.191  22.476  0.00  0.00    -0.381 OA
ATOM     20  C   UNL     1      -2.599   2.207  21.543  0.00  0.00    +0.194 C 
ENDBRANCH  17   3
ENDBRANCH   9  17
ENDBRANCH   8   6
BRANCH  11   2
ATOM      2  O   UNL     1      -2.606  -0.960  26.405  0.00  0.00    -0.388 OA
ATOM     22  H   UNL     1      -1.673  -1.132  26.618  0.00  0.00    +0.210 HD
ENDBRANCH  11   2
BRANCH  10  16
ATOM     16  C   UNL     1      -0.823   1.680  25.801  0.00  0.00    +0.137 C 
BRANCH  16   7
ATOM      5  O   UNL     1      -0.046   3.745  23.914  0.00  0.00    -0.276 OA
ATOM      7  N   UNL     1      -1.204   3.061  25.816  0.00  0.00    -0.313 N 
ATOM     19  C   UNL     1      -0.783   3.986  24.866  0.00  0.00    +0.210 C 
ATOM     21  C   UNL     1      -1.351   5.360  25.103  0.00  0.00    +0.109 C 
ATOM     23  H   UNL     1      -1.813   3.374  26.566  0.00  0.00    +0.149 HD
ENDBRANCH  16   7
ENDBRANCH  10  16
BRANCH  13  18
ATOM     18  C   UNL     1      -0.751  -2.544  24.977  0.00  0.00    +0.190 C 
BRANCH  18   4
ATOM      4  O   UNL     1       0.285  -2.081  25.827  0.00  0.00    -0.392 OA
ATOM     24  H   UNL     1       0.192  -2.551  26.674  0.00  0.00    +0.210 HD
ENDBRANCH  18   4
ENDBRANCH  13  18
TORSDOF 8
ENDMDL
MODEL 5
REMARK VINA RESULT:      -4.0      1.792      5.231
REMARK  Name = 28961776
REMARK  10 active torsions:
REMARK  status: ('A' for Active; 'I' for Inactive)
REMARK    1  A    between atoms: O_2  and  C_11
REMARK    2  A    between atoms: O_3  and  C_17
REMARK    3  A    between atoms: O_3  and  C_20
REMARK    4  A    between atoms: O_4  and  C_18
REMARK    5  A    between atoms: N_6  and  C_8
REMARK    6  A    between atoms: N_7  and  C_16
REMARK    7  A    between atoms: C_9  and  C_17
REMARK    8  A    between atoms: C_10  and  C_16
REMARK    9  A    between atoms: C_13  and  C_18
REMARK   10  A    between atoms: C_19  and  C_21
REMARK                            x       y       z     vdW  Elec       q    Type
REMARK                         _______ _______ _______ _____ _____    ______ ____
ROOT
ATOM      1  O   UNL     1      -3.118   3.504  23.966  0.00  0.00    -0.365 OA
ATOM      8  C   UNL     1      -1.502   1.770  23.751  0.00  0.00    +0.118 C 
ATOM     10  C   UNL     1      -2.984   2.123  23.564  0.00  0.00    +0.155 C 
ATOM     11  C   UNL     1      -1.052   2.740  24.833  0.00  0.00    +0.165 C 
ATOM     13  C   UNL     1      -1.846   3.982  24.444  0.00  0.00    +0.174 C 
ENDROOT
BRANCH   8   6
ATOM      6  N   UNL     1      -1.203   0.372  24.009  0.00  0.00    -0.289 NA
ATOM      9  C   UNL     1      -0.057  -0.177  23.276  0.00  0.00    +0.083 C 
ATOM     12  C   UNL     1      -0.985   0.086  25.426  0.00  0.00    +0.085 C 
ATOM     14  C   UNL     1       0.120  -1.519  23.981  0.00  0.00    +0.022 C 
ATOM     15  C   UNL     1      -0.261  -1.255  25.434  0.00  0.00    +0.017 C 
BRANCH   9  17
ATOM     17  C   UNL     1       1.230   0.653  23.320  0.00  0.00    +0.178 C 
BRANCH  17   3
ATOM      3  O   UNL     1       2.229  -0.021  22.574  0.00  0.00    -0.381 OA
ATOM     20  C   UNL     1       3.484   0.646  22.652  0.00  0.00    +0.194 C 
ENDBRANCH  17   3
ENDBRANCH   9  17
ENDBRANCH   8   6
BRANCH  11   2
ATOM      2  O   UNL     1      -1.436   2.292  26.126  0.00  0.00    -0.388 OA
ATOM     22  H   UNL     1      -1.665   3.076  26.654  0.00  0.00    +0.210 HD
ENDBRANCH  11   2
BRANCH  10  16
ATOM     16  C   UNL     1      -3.987   1.315  24.379  0.00  0.00    +0.137 C 
BRANCH  16   7
ATOM      5  O   UNL     1      -3.863  -1.176  25.864  0.00  0.00    -0.276 OA
ATOM      7  N   UNL     1      -4.121  -0.013  23.861  0.00  0.00    -0.313 N 
ATOM     19  C   UNL     1      -4.048  -1.158  24.650  0.00  0.00    +0.210 C 
ATOM     21  C   UNL     1      -4.248  -2.422  23.857  0.00  0.00    +0.109 C 
ATOM     23  H   UNL     1      -4.275  -0.117  22.863  0.00  0.00    +0.149 HD
ENDBRANCH  16   7
ENDBRANCH  10  16
BRANCH  13  18
ATOM     18  C   UNL     1      -2.074   4.987  25.559  0.00  0.00    +0.190 C 
BRANCH  18   4
ATOM      4  O   UNL     1      -3.090   4.495  26.419  0.00  0.00    -0.392 OA
ATOM     24  H   UNL     1      -2.811   4.688  27.331  0.00  0.00    +0.210 HD
ENDBRANCH  18   4
ENDBRANCH  13  18
TORSDOF 8
ENDMDL
MODEL 6
REMARK VINA RESULT:      -3.7      1.774      4.231
REMARK  Name = 28961776
REMARK  10 active torsions:
REMARK  status: ('A' for Active; 'I' for Inactive)
REMARK    1  A    between atoms: O_2  and  C_11
REMARK    2  A    between atoms: O_3  and  C_17
REMARK    3  A    between atoms: O_3  and  C_20
REMARK    4  A    between atoms: O_4  and  C_18
REMARK    5  A    between atoms: N_6  and  C_8
REMARK    6  A    between atoms: N_7  and  C_16
REMARK    7  A    between atoms: C_9  and  C_17
REMARK    8  A    between atoms: C_10  and  C_16
REMARK    9  A    between atoms: C_13  and  C_18
REMARK   10  A    between atoms: C_19  and  C_21
REMARK                            x       y       z     vdW  Elec       q    Type
REMARK                         _______ _______ _______ _____ _____    ______ ____
ROOT
ATOM      1  O   UNL     1       0.071   0.181  24.996  0.00  0.00    -0.365 OA
ATOM      8  C   UNL     1      -1.740   1.724  25.043  0.00  0.00    +0.118 C 
ATOM     10  C   UNL     1      -1.048   0.592  25.813  0.00  0.00    +0.155 C 
ATOM     11  C   UNL     1      -1.372   1.431  23.597  0.00  0.00    +0.165 C 
ATOM     13  C   UNL     1       0.059   0.931  23.767  0.00  0.00    +0.174 C 
ENDROOT
BRANCH   8   6
ATOM      6  N   UNL     1      -3.159   1.898  25.297  0.00  0.00    -0.289 NA
ATOM      9  C   UNL     1      -3.557   3.221  25.792  0.00  0.00    +0.083 C 
ATOM     12  C   UNL     1      -3.989   1.607  24.129  0.00  0.00    +0.085 C 
ATOM     14  C   UNL     1      -5.077   3.126  25.677  0.00  0.00    +0.022 C 
ATOM     15  C   UNL     1      -5.327   2.268  24.442  0.00  0.00    +0.017 C 
BRANCH   9  17
ATOM     17  C   UNL     1      -3.011   4.423  25.014  0.00  0.00    +0.178 C 
BRANCH  17   3
ATOM      3  O   UNL     1      -1.867   4.916  25.689  0.00  0.00    -0.381 OA
ATOM     20  C   UNL     1      -0.786   5.146  24.792  0.00  0.00    +0.194 C 
ENDBRANCH  17   3
ENDBRANCH   9  17
ENDBRANCH   8   6
BRANCH  11   2
ATOM      2  O   UNL     1      -2.191   0.407  23.048  0.00  0.00    -0.388 OA
ATOM     22  H   UNL     1      -1.846  -0.446  23.360  0.00  0.00    +0.210 HD
ENDBRANCH  11   2
BRANCH  10  16
ATOM     16  C   UNL     1      -1.881  -0.652  26.097  0.00  0.00    +0.137 C 
BRANCH  16   7
ATOM      5  O   UNL     1      -3.409  -3.083  25.666  0.00  0.00    -0.276 OA
ATOM      7  N   UNL     1      -2.753  -0.949  25.000  0.00  0.00    -0.313 N 
ATOM     19  C   UNL     1      -3.450  -2.146  24.873  0.00  0.00    +0.210 C 
ATOM     21  C   UNL     1      -4.314  -2.187  23.641  0.00  0.00    +0.109 C 
ATOM     23  H   UNL     1      -2.861  -0.242  24.278  0.00  0.00    +0.149 HD
ENDBRANCH  16   7
ENDBRANCH  10  16
BRANCH  13  18
ATOM     18  C   UNL     1       0.585   0.060  22.641  0.00  0.00    +0.190 C 
BRANCH  18   4
ATOM      4  O   UNL     1       1.987  -0.093  22.796  0.00  0.00    -0.392 OA
ATOM     24  H   UNL     1       2.130  -0.636  23.590  0.00  0.00    +0.210 HD
ENDBRANCH  18   4
ENDBRANCH  13  18
TORSDOF 8
ENDMDL
MODEL 7
REMARK VINA RESULT:      -3.7      2.218      3.595
REMARK  Name = 28961776
REMARK  10 active torsions:
REMARK  status: ('A' for Active; 'I' for Inactive)
REMARK    1  A    between atoms: O_2  and  C_11
REMARK    2  A    between atoms: O_3  and  C_17
REMARK    3  A    between atoms: O_3  and  C_20
REMARK    4  A    between atoms: O_4  and  C_18
REMARK    5  A    between atoms: N_6  and  C_8
REMARK    6  A    between atoms: N_7  and  C_16
REMARK    7  A    between atoms: C_9  and  C_17
REMARK    8  A    between atoms: C_10  and  C_16
REMARK    9  A    between atoms: C_13  and  C_18
REMARK   10  A    between atoms: C_19  and  C_21
REMARK                            x       y       z     vdW  Elec       q    Type
REMARK                         _______ _______ _______ _____ _____    ______ ____
ROOT
ATOM      1  O   UNL     1       0.905   1.787  24.452  0.00  0.00    -0.365 OA
ATOM      8  C   UNL     1      -1.459   1.996  24.268  0.00  0.00    +0.118 C 
ATOM     10  C   UNL     1      -0.220   2.488  25.028  0.00  0.00    +0.155 C 
ATOM     11  C   UNL     1      -1.041   0.614  23.790  0.00  0.00    +0.165 C 
ATOM     13  C   UNL     1       0.426   0.864  23.457  0.00  0.00    +0.174 C 
ENDROOT
BRANCH   8   6
ATOM      6  N   UNL     1      -2.717   2.046  24.992  0.00  0.00    -0.289 NA
ATOM      9  C   UNL     1      -3.038   3.334  25.617  0.00  0.00    +0.083 C 
ATOM     12  C   UNL     1      -3.865   1.668  24.169  0.00  0.00    +0.085 C 
ATOM     14  C   UNL     1      -4.492   3.103  26.023  0.00  0.00    +0.022 C 
ATOM     15  C   UNL     1      -5.070   2.211  24.930  0.00  0.00    +0.017 C 
BRANCH   9  17
ATOM     17  C   UNL     1      -2.896   4.570  24.723  0.00  0.00    +0.178 C 
BRANCH  17   3
ATOM      3  O   UNL     1      -2.010   5.481  25.348  0.00  0.00    -0.381 OA
ATOM     20  C   UNL     1      -0.757   5.542  24.675  0.00  0.00    +0.194 C 
ENDBRANCH  17   3
ENDBRANCH   9  17
ENDBRANCH   8   6
BRANCH  11   2
ATOM      2  O   UNL     1      -1.156  -0.353  24.825  0.00  0.00    -0.388 OA
ATOM     22  H   UNL     1      -1.682   0.043  25.541  0.00  0.00    +0.210 HD
ENDBRANCH  11   2
BRANCH  10  16
ATOM     16  C   UNL     1      -0.192   2.232  26.530  0.00  0.00    +0.137 C 
BRANCH  16   7
ATOM      5  O   UNL     1       0.528   2.412  29.336  0.00  0.00    -0.276 OA
ATOM      7  N   UNL     1       1.095   2.532  27.080  0.00  0.00    -0.313 N 
ATOM     19  C   UNL     1       1.353   2.598  28.446  0.00  0.00    +0.210 C 
ATOM     21  C   UNL     1       2.795   2.906  28.750  0.00  0.00    +0.109 C 
ATOM     23  H   UNL     1       1.857   2.707  26.430  0.00  0.00    +0.149 HD
ENDBRANCH  16   7
ENDBRANCH  10  16
BRANCH  13  18
ATOM     18  C   UNL     1       1.312  -0.368  23.447  0.00  0.00    +0.190 C 
BRANCH  18   4
ATOM      4  O   UNL     1       2.513  -0.064  22.757  0.00  0.00    -0.392 OA
ATOM     24  H   UNL     1       2.416  -0.400  21.849  0.00  0.00    +0.210 HD
ENDBRANCH  18   4
ENDBRANCH  13  18
TORSDOF 8
ENDMDL
MODEL 8
REMARK VINA RESULT:      -3.6      1.746      4.462
REMARK  Name = 28961776
REMARK  10 active torsions:
REMARK  status: ('A' for Active; 'I' for Inactive)
REMARK    1  A    between atoms: O_2  and  C_11
REMARK    2  A    between atoms: O_3  and  C_17
REMARK    3  A    between atoms: O_3  and  C_20
REMARK    4  A    between atoms: O_4  and  C_18
REMARK    5  A    between atoms: N_6  and  C_8
REMARK    6  A    between atoms: N_7  and  C_16
REMARK    7  A    between atoms: C_9  and  C_17
REMARK    8  A    between atoms: C_10  and  C_16
REMARK    9  A    between atoms: C_13  and  C_18
REMARK   10  A    between atoms: C_19  and  C_21
REMARK                            x       y       z     vdW  Elec       q    Type
REMARK                         _______ _______ _______ _____ _____    ______ ____
ROOT
ATOM      1  O   UNL     1      -1.600   3.682  23.299  0.00  0.00    -0.365 OA
ATOM      8  C   UNL     1      -0.909   1.551  24.101  0.00  0.00    +0.118 C 
ATOM     10  C   UNL     1      -1.762   2.268  23.047  0.00  0.00    +0.155 C 
ATOM     11  C   UNL     1      -0.859   2.554  25.243  0.00  0.00    +0.165 C 
ATOM     13  C   UNL     1      -0.774   3.862  24.465  0.00  0.00    +0.174 C 
ENDROOT
BRANCH   8   6
ATOM      6  N   UNL     1      -1.337   0.213  24.471  0.00  0.00    -0.289 NA
ATOM      9  C   UNL     1      -0.676  -0.884  23.755  0.00  0.00    +0.083 C 
ATOM     12  C   UNL     1      -1.196  -0.058  25.901  0.00  0.00    +0.085 C 
ATOM     14  C   UNL     1      -1.150  -2.086  24.569  0.00  0.00    +0.022 C 
ATOM     15  C   UNL     1      -1.247  -1.578  26.004  0.00  0.00    +0.017 C 
BRANCH   9  17
ATOM     17  C   UNL     1       0.854  -0.821  23.691  0.00  0.00    +0.178 C 
BRANCH  17   3
ATOM      3  O   UNL     1       1.231  -0.254  22.449  0.00  0.00    -0.381 OA
ATOM     20  C   UNL     1       2.601   0.132  22.441  0.00  0.00    +0.194 C 
ENDBRANCH  17   3
ENDBRANCH   9  17
ENDBRANCH   8   6
BRANCH  11   2
ATOM      2  O   UNL     1      -2.048   2.517  26.021  0.00  0.00    -0.388 OA
ATOM     22  H   UNL     1      -2.204   1.593  26.278  0.00  0.00    +0.210 HD
ENDBRANCH  11   2
BRANCH  10  16
ATOM     16  C   UNL     1      -3.258   1.974  23.062  0.00  0.00    +0.137 C 
BRANCH  16   7
ATOM      5  O   UNL     1      -5.442   1.319  24.858  0.00  0.00    -0.276 OA
ATOM      7  N   UNL     1      -3.948   2.860  23.951  0.00  0.00    -0.313 N 
ATOM     19  C   UNL     1      -4.989   2.459  24.782  0.00  0.00    +0.210 C 
ATOM     21  C   UNL     1      -5.520   3.582  25.632  0.00  0.00    +0.109 C 
ATOM     23  H   UNL     1      -3.656   3.833  23.969  0.00  0.00    +0.149 HD
ENDBRANCH  16   7
ENDBRANCH  10  16
BRANCH  13  18
ATOM     18  C   UNL     1      -1.228   5.100  25.216  0.00  0.00    +0.190 C 
BRANCH  18   4
ATOM      4  O   UNL     1      -2.638   5.056  25.363  0.00  0.00    -0.392 OA
ATOM     24  H   UNL     1      -3.020   5.073  24.468  0.00  0.00    +0.210 HD
ENDBRANCH  18   4
ENDBRANCH  13  18
TORSDOF 8
ENDMDL
MODEL 9
REMARK VINA RESULT:      -3.5      1.899      4.402
REMARK  Name = 28961776
REMARK  10 active torsions:
REMARK  status: ('A' for Active; 'I' for Inactive)
REMARK    1  A    between atoms: O_2  and  C_11
REMARK    2  A    between atoms: O_3  and  C_17
REMARK    3  A    between atoms: O_3  and  C_20
REMARK    4  A    between atoms: O_4  and  C_18
REMARK    5  A    between atoms: N_6  and  C_8
REMARK    6  A    between atoms: N_7  and  C_16
REMARK    7  A    between atoms: C_9  and  C_17
REMARK    8  A    between atoms: C_10  and  C_16
REMARK    9  A    between atoms: C_13  and  C_18
REMARK   10  A    between atoms: C_19  and  C_21
REMARK                            x       y       z     vdW  Elec       q    Type
REMARK                         _______ _______ _______ _____ _____    ______ ____
ROOT
ATOM      1  O   UNL     1      -0.361  -1.001  23.474  0.00  0.00    -0.365 OA
ATOM      8  C   UNL     1      -1.699   0.895  24.000  0.00  0.00    +0.118 C 
ATOM     10  C   UNL     1      -0.508   0.404  23.168  0.00  0.00    +0.155 C 
ATOM     11  C   UNL     1      -1.720  -0.071  25.174  0.00  0.00    +0.165 C 
ATOM     13  C   UNL     1      -1.327  -1.369  24.477  0.00  0.00    +0.174 C 
ENDROOT
BRANCH   8   6
ATOM      6  N   UNL     1      -1.695   2.303  24.358  0.00  0.00    -0.289 NA
ATOM      9  C   UNL     1      -2.869   3.070  23.927  0.00  0.00    +0.083 C 
ATOM     12  C   UNL     1      -1.537   2.528  25.794  0.00  0.00    +0.085 C 
ATOM     14  C   UNL     1      -2.656   4.376  24.689  0.00  0.00    +0.022 C 
ATOM     15  C   UNL     1      -2.006   3.963  26.005  0.00  0.00    +0.017 C 
BRANCH   9  17
ATOM     17  C   UNL     1      -4.233   2.451  24.248  0.00  0.00    +0.178 C 
BRANCH  17   3
ATOM      3  O   UNL     1      -4.969   3.364  25.042  0.00  0.00    -0.381 OA
ATOM     20  C   UNL     1      -5.757   2.695  26.021  0.00  0.00    +0.194 C 
ENDBRANCH  17   3
ENDBRANCH   9  17
ENDBRANCH   8   6
BRANCH  11   2
ATOM      2  O   UNL     1      -0.751   0.277  26.153  0.00  0.00    -0.388 OA
ATOM     22  H   UNL     1      -0.500   1.205  26.003  0.00  0.00    +0.210 HD
ENDBRANCH  11   2
BRANCH  10  16
ATOM     16  C   UNL     1       0.836   1.069  23.439  0.00  0.00    +0.137 C 
BRANCH  16   7
ATOM      5  O   UNL     1       3.642   1.533  22.855  0.00  0.00    -0.276 OA
ATOM      7  N   UNL     1       1.896   0.105  23.441  0.00  0.00    -0.313 N 
ATOM     19  C   UNL     1       3.220   0.417  23.148  0.00  0.00    +0.210 C 
ATOM     21  C   UNL     1       4.133  -0.776  23.248  0.00  0.00    +0.109 C 
ATOM     23  H   UNL     1       1.659  -0.856  23.668  0.00  0.00    +0.149 HD
ENDBRANCH  16   7
ENDBRANCH  10  16
BRANCH  13  18
ATOM     18  C   UNL     1      -0.735  -2.440  25.375  0.00  0.00    +0.190 C 
BRANCH  18   4
ATOM      4  O   UNL     1       0.611  -2.102  25.666  0.00  0.00    -0.392 OA
ATOM     24  H   UNL     1       1.128  -2.925  25.627  0.00  0.00    +0.210 HD
ENDBRANCH  18   4
ENDBRANCH  13  18
TORSDOF 8
ENDMDL
MODEL 10
REMARK VINA RESULT:      -3.4      1.873      5.143
REMARK  Name = 28961776
REMARK  10 active torsions:
REMARK  status: ('A' for Active; 'I' for Inactive)
REMARK    1  A    between atoms: O_2  and  C_11
REMARK    2  A    between atoms: O_3  and  C_17
REMARK    3  A    between atoms: O_3  and  C_20
REMARK    4  A    between atoms: O_4  and  C_18
REMARK    5  A    between atoms: N_6  and  C_8
REMARK    6  A    between atoms: N_7  and  C_16
REMARK    7  A    between atoms: C_9  and  C_17
REMARK    8  A    between atoms: C_10  and  C_16
REMARK    9  A    between atoms: C_13  and  C_18
REMARK   10  A    between atoms: C_19  and  C_21
REMARK                            x       y       z     vdW  Elec       q    Type
REMARK                         _______ _______ _______ _____ _____    ______ ____
ROOT
ATOM      1  O   UNL     1      -2.853   3.505  25.376  0.00  0.00    -0.365 OA
ATOM      8  C   UNL     1      -3.444   1.203  25.238  0.00  0.00    +0.118 C 
ATOM     10  C   UNL     1      -2.339   2.226  24.941  0.00  0.00    +0.155 C 
ATOM     11  C   UNL     1      -4.709   2.047  25.207  0.00  0.00    +0.165 C 
ATOM     13  C   UNL     1      -4.204   3.336  25.845  0.00  0.00    +0.174 C 
ENDROOT
BRANCH   8   6
ATOM      6  N   UNL     1      -3.467   0.021  24.396  0.00  0.00    -0.289 NA
ATOM      9  C   UNL     1      -2.359  -0.921  24.594  0.00  0.00    +0.083 C 
ATOM     12  C   UNL     1      -4.708  -0.743  24.516  0.00  0.00    +0.085 C 
ATOM     14  C   UNL     1      -2.848  -2.117  23.781  0.00  0.00    +0.022 C 
ATOM     15  C   UNL     1      -4.364  -2.115  23.949  0.00  0.00    +0.017 C 
BRANCH   9  17
ATOM     17  C   UNL     1      -2.061  -1.314  26.045  0.00  0.00    +0.178 C 
BRANCH  17   3
ATOM      3  O   UNL     1      -0.666  -1.209  26.265  0.00  0.00    -0.381 OA
ATOM     20  C   UNL     1       0.059  -2.185  25.524  0.00  0.00    +0.194 C 
ENDBRANCH  17   3
ENDBRANCH   9  17
ENDBRANCH   8   6
BRANCH  11   2
ATOM      2  O   UNL     1      -5.140   2.289  23.875  0.00  0.00    -0.388 OA
ATOM     22  H   UNL     1      -4.913   1.507  23.344  0.00  0.00    +0.210 HD
ENDBRANCH  11   2
BRANCH  10  16
ATOM     16  C   UNL     1      -1.923   2.378  23.483  0.00  0.00    +0.137 C 
BRANCH  16   7
ATOM      5  O   UNL     1       0.798   1.965  24.407  0.00  0.00    -0.276 OA
ATOM      7  N   UNL     1      -1.020   1.336  23.094  0.00  0.00    -0.313 N 
ATOM     19  C   UNL     1       0.274   1.213  23.590  0.00  0.00    +0.210 C 
ATOM     21  C   UNL     1       0.997   0.015  23.034  0.00  0.00    +0.109 C 
ATOM     23  H   UNL     1      -1.350   0.655  22.416  0.00  0.00    +0.149 HD
ENDBRANCH  16   7
ENDBRANCH  10  16
BRANCH  13  18
ATOM     18  C   UNL     1      -5.006   4.583  25.522  0.00  0.00    +0.190 C 
BRANCH  18   4
ATOM      4  O   UNL     1      -6.378   4.325  25.776  0.00  0.00    -0.392 OA
ATOM     24  H   UNL     1      -6.420   3.543  26.353  0.00  0.00    +0.210 HD
ENDBRANCH  18   4
ENDBRANCH  13  18
TORSDOF 8
ENDMDL
