MODEL 1
REMARK VINA RESULT:       8.7      0.000      0.000
REMARK  Name = 11887647
REMARK  5 active torsions:
REMARK  status: ('A' for Active; 'I' for Inactive)
REMARK    1  A    between atoms: S_2  and  N_6
REMARK    2  A    between atoms: S_2  and  C_19
REMARK    3  A    between atoms: C_17  and  C_20
REMARK    4  A    between atoms: C_23  and  C_29
REMARK    5  A    between atoms: C_27  and  C_32
REMARK                            x       y       z     vdW  Elec       q    Type
REMARK                         _______ _______ _______ _____ _____    ______ ____
ROOT
ATOM      5  O   UNL     1       0.630   1.957  25.915  0.00  0.00    -0.267 OA
ATOM      6  N   UNL     1      -4.245   2.693  25.185  0.00  0.00    -0.176 NA
ATOM      7  N   UNL     1      -1.126   2.986  24.778  0.00  0.00    -0.311 N 
ATOM      8  C   UNL     1      -2.776   4.570  25.931  0.00  0.00    +0.025 C 
ATOM      9  C   UNL     1      -3.018   4.090  23.535  0.00  0.00    +0.052 C 
ATOM     10  C   UNL     1      -2.897   5.216  24.558  0.00  0.00    +0.017 C 
ATOM     11  C   UNL     1      -4.021   3.722  26.241  0.00  0.00    +0.114 C 
ATOM     12  C   UNL     1      -4.296   3.277  23.812  0.00  0.00    +0.119 C 
ATOM     13  C   UNL     1      -1.481   3.749  25.982  0.00  0.00    +0.130 C 
ATOM     14  C   UNL     1      -1.799   3.187  23.571  0.00  0.00    +0.026 A 
ATOM     15  C   UNL     1      -1.382   2.566  22.456  0.00  0.00    +0.022 A 
ATOM     16  C   UNL     1      -0.010   2.132  24.878  0.00  0.00    +0.259 A 
ATOM     17  C   UNL     1       0.410   1.421  23.620  0.00  0.00    +0.047 A 
ATOM     18  C   UNL     1      -0.265   1.666  22.486  0.00  0.00    +0.015 A 
ENDROOT
BRANCH  17  20
ATOM     20  C   UNL     1       1.534   0.468  23.619  0.00  0.00    -0.010 A 
ATOM     23  C   UNL     1       2.825   0.860  23.260  0.00  0.00    -0.040 A 
ATOM     24  C   UNL     1       1.289  -0.858  23.988  0.00  0.00    +0.009 A 
ATOM     27  C   UNL     1       3.867  -0.068  23.270  0.00  0.00    -0.047 A 
ATOM     29  C   UNL     1       3.104   2.276  22.862  0.00  0.00    +0.044 C 
ATOM     30  C   UNL     1       2.332  -1.785  23.997  0.00  0.00    +0.001 A 
ATOM     31  C   UNL     1       3.621  -1.390  23.639  0.00  0.00    +0.003 A 
ATOM     32  C   UNL     1       5.257   0.328  22.889  0.00  0.00    +0.044 C 
ENDBRANCH  17  20
BRANCH   6   2
ATOM      2  S   UNL     1      -5.442   1.522  25.535  0.00  0.00    +0.061 S 
ATOM      3  O   UNL     1      -6.526   1.672  24.586  0.00  0.00    -0.153 OA
ATOM      4  O   UNL     1      -5.674   1.491  26.965  0.00  0.00    -0.153 OA
BRANCH   2  19
ATOM      1 CL   UNL     1      -2.995  -4.100  24.288  0.00  0.00    -0.084 Cl
ATOM     19  C   UNL     1      -4.742  -0.086  25.179  0.00  0.00    +0.106 A 
ATOM     21  C   UNL     1      -3.929  -0.668  26.120  0.00  0.00    +0.030 A 
ATOM     22  C   UNL     1      -5.044  -0.678  23.976  0.00  0.00    +0.030 A 
ATOM     25  C   UNL     1      -3.384  -1.922  25.841  0.00  0.00    +0.022 A 
ATOM     26  C   UNL     1      -4.498  -1.931  23.698  0.00  0.00    +0.022 A 
ATOM     28  C   UNL     1      -3.668  -2.553  24.631  0.00  0.00    +0.041 A 
ENDBRANCH   2  19
ENDBRANCH   6   2
TORSDOF 3
ENDMDL
MODEL 2
REMARK VINA RESULT:       9.9      2.461      4.843
REMARK  Name = 11887647
REMARK  5 active torsions:
REMARK  status: ('A' for Active; 'I' for Inactive)
REMARK    1  A    between atoms: S_2  and  N_6
REMARK    2  A    between atoms: S_2  and  C_19
REMARK    3  A    between atoms: C_17  and  C_20
REMARK    4  A    between atoms: C_23  and  C_29
REMARK    5  A    between atoms: C_27  and  C_32
REMARK                            x       y       z     vdW  Elec       q    Type
REMARK                         _______ _______ _______ _____ _____    ______ ____
ROOT
ATOM      5  O   UNL     1      -0.264  -0.715  22.002  0.00  0.00    -0.267 OA
ATOM      6  N   UNL     1      -4.242  -0.157  24.953  0.00  0.00    -0.176 NA
ATOM      7  N   UNL     1      -1.566  -1.392  23.814  0.00  0.00    -0.311 N 
ATOM      8  C   UNL     1      -3.980  -2.207  23.550  0.00  0.00    +0.025 C 
ATOM      9  C   UNL     1      -2.959  -2.119  25.782  0.00  0.00    +0.052 C 
ATOM     10  C   UNL     1      -3.690  -3.029  24.799  0.00  0.00    +0.017 C 
ATOM     11  C   UNL     1      -4.868  -0.999  23.894  0.00  0.00    +0.114 C 
ATOM     12  C   UNL     1      -3.872  -0.941  26.169  0.00  0.00    +0.119 C 
ATOM     13  C   UNL     1      -2.650  -1.793  22.907  0.00  0.00    +0.130 C 
ATOM     14  C   UNL     1      -1.659  -1.608  25.191  0.00  0.00    +0.026 A 
ATOM     15  C   UNL     1      -0.610  -1.342  25.986  0.00  0.00    +0.022 A 
ATOM     16  C   UNL     1      -0.396  -0.886  23.215  0.00  0.00    +0.259 A 
ATOM     17  C   UNL     1       0.750  -0.563  24.136  0.00  0.00    +0.047 A 
ATOM     18  C   UNL     1       0.608  -0.806  25.448  0.00  0.00    +0.015 A 
ENDROOT
BRANCH  17  20
ATOM     20  C   UNL     1       2.004   0.015  23.623  0.00  0.00    -0.010 A 
ATOM     23  C   UNL     1       3.204  -0.698  23.653  0.00  0.00    -0.040 A 
ATOM     24  C   UNL     1       1.980   1.310  23.098  0.00  0.00    +0.009 A 
ATOM     27  C   UNL     1       4.374  -0.120  23.159  0.00  0.00    -0.047 A 
ATOM     29  C   UNL     1       3.246  -2.086  24.212  0.00  0.00    +0.044 C 
ATOM     30  C   UNL     1       3.150   1.887  22.605  0.00  0.00    +0.001 A 
ATOM     31  C   UNL     1       4.348   1.172  22.635  0.00  0.00    +0.003 A 
ATOM     32  C   UNL     1       5.670  -0.864  23.181  0.00  0.00    +0.044 C 
ENDBRANCH  17  20
BRANCH   6   2
ATOM      2  S   UNL     1      -4.999   1.349  25.246  0.00  0.00    +0.061 S 
ATOM      3  O   UNL     1      -5.462   1.373  26.618  0.00  0.00    -0.153 OA
ATOM      4  O   UNL     1      -5.874   1.665  24.136  0.00  0.00    -0.153 OA
BRANCH   2  19
ATOM      1 CL   UNL     1      -0.573   5.762  24.974  0.00  0.00    -0.084 Cl
ATOM     19  C   UNL     1      -3.733   2.612  25.168  0.00  0.00    +0.106 A 
ATOM     21  C   UNL     1      -3.998   3.838  25.728  0.00  0.00    +0.030 A 
ATOM     22  C   UNL     1      -2.544   2.308  24.551  0.00  0.00    +0.030 A 
ATOM     25  C   UNL     1      -3.010   4.822  25.667  0.00  0.00    +0.022 A 
ATOM     26  C   UNL     1      -1.558   3.292  24.490  0.00  0.00    +0.022 A 
ATOM     28  C   UNL     1      -1.790   4.549  25.048  0.00  0.00    +0.041 A 
ENDBRANCH   2  19
ENDBRANCH   6   2
TORSDOF 3
ENDMDL
