MODEL 1
REMARK VINA RESULT:      15.2      0.000      0.000
REMARK  Name = 11866248
REMARK  6 active torsions:
REMARK  status: ('A' for Active; 'I' for Inactive)
REMARK    1  A    between atoms: S_2  and  N_8
REMARK    2  A    between atoms: S_2  and  C_25
REMARK    3  A    between atoms: C_10  and  C_18
REMARK    4  A    between atoms: C_15  and  C_22
REMARK    5  A    between atoms: C_17  and  C_23
REMARK    6  A    between atoms: C_30  and  C_31
REMARK                            x       y       z     vdW  Elec       q    Type
REMARK                         _______ _______ _______ _____ _____    ______ ____
ROOT
ATOM      1  S   UNL     1      -3.277  -1.256  26.124  0.00  0.00    -0.056 S 
ATOM      3  O   UNL     1       2.346   1.779  23.500  0.00  0.00    -0.461 OA
ATOM      4  O   UNL     1       4.360   2.720  22.909  0.00  0.00    -0.251 OA
ATOM      7  N   UNL     1      -2.875   1.176  25.340  0.00  0.00    -0.228 NA
ATOM      8  N   UNL     1      -5.023   0.881  26.423  0.00  0.00    -0.194 N 
ATOM      9  C   UNL     1       0.632   0.088  24.243  0.00  0.00    +0.045 C 
ATOM     10  C   UNL     1       0.199  -1.410  23.930  0.00  0.00    -0.021 C 
ATOM     11  C   UNL     1       1.746   0.505  23.268  0.00  0.00    +0.184 C 
ATOM     12  C   UNL     1       2.935  -0.427  23.398  0.00  0.00    +0.044 C 
ATOM     13  C   UNL     1       1.446  -2.347  23.892  0.00  0.00    +0.008 C 
ATOM     14  C   UNL     1       2.580  -1.842  22.990  0.00  0.00    +0.008 C 
ATOM     15  C   UNL     1      -0.589   1.075  24.280  0.00  0.00    +0.043 C 
ATOM     16  C   UNL     1      -0.753  -1.913  25.058  0.00  0.00    +0.051 C 
ATOM     17  C   UNL     1       3.970   0.327  22.584  0.00  0.00    +0.101 C 
ATOM     18  C   UNL     1      -0.534  -1.537  22.568  0.00  0.00    +0.012 C 
ATOM     19  C   UNL     1      -1.751   0.442  25.006  0.00  0.00    +0.057 A 
ATOM     20  C   UNL     1      -1.810  -0.899  25.336  0.00  0.00    +0.015 A 
ATOM     21  C   UNL     1       3.629   1.746  23.000  0.00  0.00    +0.311 C 
ATOM     22  C   UNL     1      -0.234   2.423  24.922  0.00  0.00    +0.014 C 
ATOM     23  C   UNL     1       5.397  -0.056  22.927  0.00  0.00    +0.019 C 
ATOM     24  C   UNL     1      -3.738   0.388  25.941  0.00  0.00    +0.178 A 
ATOM     32  H   UNL     1      -5.608   0.126  26.804  0.00  0.00    +0.176 HD
ENDROOT
BRANCH   8   2
ATOM      2  S   UNL     1      -5.825   2.016  25.403  0.00  0.00    +0.074 S 
ATOM      5  O   UNL     1      -6.884   2.666  26.148  0.00  0.00    -0.150 OA
ATOM      6  O   UNL     1      -6.097   1.409  24.113  0.00  0.00    -0.150 OA
BRANCH   2  25
ATOM     25  C   UNL     1      -4.540   3.206  25.147  0.00  0.00    +0.109 A 
ATOM     26  C   UNL     1      -4.124   3.481  23.857  0.00  0.00    +0.029 A 
ATOM     27  C   UNL     1      -3.977   3.836  26.243  0.00  0.00    +0.029 A 
ATOM     28  C   UNL     1      -3.112   4.418  23.656  0.00  0.00    +0.005 A 
ATOM     29  C   UNL     1      -2.965   4.774  26.041  0.00  0.00    +0.005 A 
ATOM     30  C   UNL     1      -2.532   5.065  24.747  0.00  0.00    -0.050 A 
ATOM     31  C   UNL     1      -1.449   6.068  24.531  0.00  0.00    +0.044 C 
ENDBRANCH   2  25
ENDBRANCH   8   2
TORSDOF 2
ENDMDL
MODEL 2
REMARK VINA RESULT:      16.2      2.133      3.912
REMARK  Name = 11866248
REMARK  6 active torsions:
REMARK  status: ('A' for Active; 'I' for Inactive)
REMARK    1  A    between atoms: S_2  and  N_8
REMARK    2  A    between atoms: S_2  and  C_25
REMARK    3  A    between atoms: C_10  and  C_18
REMARK    4  A    between atoms: C_15  and  C_22
REMARK    5  A    between atoms: C_17  and  C_23
REMARK    6  A    between atoms: C_30  and  C_31
REMARK                            x       y       z     vdW  Elec       q    Type
REMARK                         _______ _______ _______ _____ _____    ______ ____
ROOT
ATOM      1  S   UNL     1      -3.329   4.207  26.069  0.00  0.00    -0.056 S 
ATOM      3  O   UNL     1       0.430   0.089  21.992  0.00  0.00    -0.461 OA
ATOM      4  O   UNL     1       1.759  -1.014  20.472  0.00  0.00    -0.251 OA
ATOM      7  N   UNL     1      -4.030   2.246  24.534  0.00  0.00    -0.228 NA
ATOM      8  N   UNL     1      -5.926   3.435  25.463  0.00  0.00    -0.194 N 
ATOM      9  C   UNL     1      -0.312   1.696  23.784  0.00  0.00    +0.045 C 
ATOM     10  C   UNL     1       0.176   2.237  25.199  0.00  0.00    -0.021 C 
ATOM     11  C   UNL     1       0.645   0.589  23.311  0.00  0.00    +0.184 C 
ATOM     12  C   UNL     1       2.061   1.125  23.212  0.00  0.00    +0.044 C 
ATOM     13  C   UNL     1       1.685   2.629  25.148  0.00  0.00    +0.008 C 
ATOM     14  C   UNL     1       2.595   1.537  24.569  0.00  0.00    +0.008 C 
ATOM     15  C   UNL     1      -1.825   1.276  23.787  0.00  0.00    +0.043 C 
ATOM     16  C   UNL     1      -0.645   3.510  25.570  0.00  0.00    +0.051 C 
ATOM     17  C   UNL     1       2.740  -0.016  22.480  0.00  0.00    +0.101 C 
ATOM     18  C   UNL     1      -0.006   1.183  26.324  0.00  0.00    +0.012 C 
ATOM     19  C   UNL     1      -2.647   2.287  24.549  0.00  0.00    +0.057 A 
ATOM     20  C   UNL     1      -2.101   3.272  25.350  0.00  0.00    +0.015 A 
ATOM     21  C   UNL     1       1.630  -0.387  21.513  0.00  0.00    +0.311 C 
ATOM     22  C   UNL     1      -2.386   1.097  22.369  0.00  0.00    +0.014 C 
ATOM     23  C   UNL     1       4.016   0.400  21.773  0.00  0.00    +0.019 C 
ATOM     24  C   UNL     1      -4.495   3.216  25.290  0.00  0.00    +0.178 A 
ATOM     32  H   UNL     1      -6.122   4.185  26.139  0.00  0.00    +0.176 HD
ENDROOT
BRANCH   8   2
ATOM      2  S   UNL     1      -6.893   2.016  25.609  0.00  0.00    +0.074 S 
ATOM      5  O   UNL     1      -7.809   1.942  24.488  0.00  0.00    -0.150 OA
ATOM      6  O   UNL     1      -7.385   1.893  26.969  0.00  0.00    -0.150 OA
BRANCH   2  25
ATOM     25  C   UNL     1      -5.674   0.753  25.390  0.00  0.00    +0.109 A 
ATOM     26  C   UNL     1      -5.598   0.094  24.176  0.00  0.00    +0.029 A 
ATOM     27  C   UNL     1      -4.822   0.449  26.437  0.00  0.00    +0.029 A 
ATOM     28  C   UNL     1      -4.637  -0.902  24.003  0.00  0.00    +0.005 A 
ATOM     29  C   UNL     1      -3.861  -0.547  26.263  0.00  0.00    +0.005 A 
ATOM     30  C   UNL     1      -3.769  -1.222  25.046  0.00  0.00    -0.050 A 
ATOM     31  C   UNL     1      -2.741  -2.288  24.861  0.00  0.00    +0.044 C 
ENDBRANCH   2  25
ENDBRANCH   8   2
TORSDOF 2
ENDMDL
MODEL 3
REMARK VINA RESULT:      17.9      3.289      8.785
REMARK  Name = 11866248
REMARK  6 active torsions:
REMARK  status: ('A' for Active; 'I' for Inactive)
REMARK    1  A    between atoms: S_2  and  N_8
REMARK    2  A    between atoms: S_2  and  C_25
REMARK    3  A    between atoms: C_10  and  C_18
REMARK    4  A    between atoms: C_15  and  C_22
REMARK    5  A    between atoms: C_17  and  C_23
REMARK    6  A    between atoms: C_30  and  C_31
REMARK                            x       y       z     vdW  Elec       q    Type
REMARK                         _______ _______ _______ _____ _____    ______ ____
ROOT
ATOM      1  S   UNL     1       1.740  -1.443  22.701  0.00  0.00    -0.056 S 
ATOM      3  O   UNL     1      -2.931   3.122  24.948  0.00  0.00    -0.461 OA
ATOM      4  O   UNL     1      -4.610   4.629  25.397  0.00  0.00    -0.251 OA
ATOM      7  N   UNL     1       2.022   0.970  23.591  0.00  0.00    -0.228 NA
ATOM      8  N   UNL     1       4.081   0.049  22.705  0.00  0.00    -0.194 N 
ATOM      9  C   UNL     1      -1.750   1.002  24.272  0.00  0.00    +0.045 C 
ATOM     10  C   UNL     1      -1.837  -0.565  24.533  0.00  0.00    -0.021 C 
ATOM     11  C   UNL     1      -2.782   1.718  25.158  0.00  0.00    +0.184 C 
ATOM     12  C   UNL     1      -4.178   1.209  24.856  0.00  0.00    +0.044 C 
ATOM     13  C   UNL     1      -3.307  -1.066  24.391  0.00  0.00    +0.008 C 
ATOM     14  C   UNL     1      -4.324  -0.257  25.208  0.00  0.00    +0.008 C 
ATOM     15  C   UNL     1      -0.288   1.558  24.415  0.00  0.00    +0.043 C 
ATOM     16  C   UNL     1      -0.965  -1.309  23.474  0.00  0.00    +0.051 C 
ATOM     17  C   UNL     1      -5.015   2.225  25.610  0.00  0.00    +0.101 C 
ATOM     18  C   UNL     1      -1.335  -0.953  25.949  0.00  0.00    +0.012 C 
ATOM     19  C   UNL     1       0.696   0.614  23.767  0.00  0.00    +0.057 A 
ATOM     20  C   UNL     1       0.376  -0.668  23.362  0.00  0.00    +0.015 A 
ATOM     21  C   UNL     1      -4.210   3.478  25.317  0.00  0.00    +0.311 C 
ATOM     22  C   UNL     1      -0.137   2.967  23.826  0.00  0.00    +0.014 C 
ATOM     23  C   UNL     1      -6.443   2.318  25.107  0.00  0.00    +0.019 C 
ATOM     24  C   UNL     1       2.662  -0.032  23.029  0.00  0.00    +0.178 A 
ATOM     32  H   UNL     1       4.445  -0.840  22.337  0.00  0.00    +0.176 HD
ENDROOT
BRANCH   8   2
ATOM      2  S   UNL     1       5.074   0.846  23.867  0.00  0.00    +0.074 S 
ATOM      5  O   UNL     1       4.778   0.327  25.188  0.00  0.00    -0.150 OA
ATOM      6  O   UNL     1       5.068   2.276  23.620  0.00  0.00    -0.150 OA
BRANCH   2  25
ATOM     25  C   UNL     1       6.676   0.254  23.404  0.00  0.00    +0.109 A 
ATOM     26  C   UNL     1       7.798   0.941  23.833  0.00  0.00    +0.029 A 
ATOM     27  C   UNL     1       6.775  -0.883  22.623  0.00  0.00    +0.029 A 
ATOM     28  C   UNL     1       9.060   0.475  23.468  0.00  0.00    +0.005 A 
ATOM     29  C   UNL     1       8.038  -1.350  22.259  0.00  0.00    +0.005 A 
ATOM     30  C   UNL     1       9.181  -0.670  22.681  0.00  0.00    -0.050 A 
ATOM     31  C   UNL     1      10.531  -1.169  22.291  0.00  0.00    +0.044 C 
ENDBRANCH   2  25
ENDBRANCH   8   2
TORSDOF 2
ENDMDL
MODEL 4
REMARK VINA RESULT:      18.0      3.448      5.570
REMARK  Name = 11866248
REMARK  6 active torsions:
REMARK  status: ('A' for Active; 'I' for Inactive)
REMARK    1  A    between atoms: S_2  and  N_8
REMARK    2  A    between atoms: S_2  and  C_25
REMARK    3  A    between atoms: C_10  and  C_18
REMARK    4  A    between atoms: C_15  and  C_22
REMARK    5  A    between atoms: C_17  and  C_23
REMARK    6  A    between atoms: C_30  and  C_31
REMARK                            x       y       z     vdW  Elec       q    Type
REMARK                         _______ _______ _______ _____ _____    ______ ____
ROOT
ATOM      1  S   UNL     1       0.742   2.937  24.261  0.00  0.00    -0.056 S 
ATOM      3  O   UNL     1      -4.295  -1.723  23.473  0.00  0.00    -0.461 OA
ATOM      4  O   UNL     1      -5.810  -3.372  22.947  0.00  0.00    -0.251 OA
ATOM      7  N   UNL     1      -1.796   3.238  23.857  0.00  0.00    -0.228 NA
ATOM      8  N   UNL     1      -0.575   5.328  23.753  0.00  0.00    -0.194 N 
ATOM      9  C   UNL     1      -2.130  -0.575  24.059  0.00  0.00    +0.045 C 
ATOM     10  C   UNL     1      -0.902  -0.750  25.053  0.00  0.00    -0.021 C 
ATOM     11  C   UNL     1      -3.184  -1.652  24.366  0.00  0.00    +0.184 C 
ATOM     12  C   UNL     1      -2.580  -3.036  24.220  0.00  0.00    +0.044 C 
ATOM     13  C   UNL     1      -0.383  -2.221  25.035  0.00  0.00    +0.008 C 
ATOM     14  C   UNL     1      -1.483  -3.273  25.239  0.00  0.00    +0.008 C 
ATOM     15  C   UNL     1      -2.697   0.890  24.049  0.00  0.00    +0.043 C 
ATOM     16  C   UNL     1       0.263   0.181  24.595  0.00  0.00    +0.051 C 
ATOM     17  C   UNL     1      -3.829  -3.893  24.285  0.00  0.00    +0.101 C 
ATOM     18  C   UNL     1      -1.276  -0.393  26.517  0.00  0.00    +0.012 C 
ATOM     19  C   UNL     1      -1.564   1.888  24.056  0.00  0.00    +0.057 A 
ATOM     20  C   UNL     1      -0.249   1.553  24.312  0.00  0.00    +0.015 A 
ATOM     21  C   UNL     1      -4.776  -3.014  23.489  0.00  0.00    +0.311 C 
ATOM     22  C   UNL     1      -3.627   1.151  22.856  0.00  0.00    +0.014 C 
ATOM     23  C   UNL     1      -3.646  -5.266  23.664  0.00  0.00    +0.019 C 
ATOM     24  C   UNL     1      -0.654   3.884  23.933  0.00  0.00    +0.178 A 
ATOM     32  H   UNL     1       0.376   5.686  23.913  0.00  0.00    +0.176 HD
ENDROOT
BRANCH   8   2
ATOM      2  S   UNL     1      -1.853   6.245  24.456  0.00  0.00    +0.074 S 
ATOM      5  O   UNL     1      -2.489   7.048  23.430  0.00  0.00    -0.150 OA
ATOM      6  O   UNL     1      -1.399   6.856  25.692  0.00  0.00    -0.150 OA
BRANCH   2  25
ATOM     25  C   UNL     1      -2.982   4.959  24.907  0.00  0.00    +0.109 A 
ATOM     26  C   UNL     1      -3.979   4.597  24.018  0.00  0.00    +0.029 A 
ATOM     27  C   UNL     1      -2.846   4.343  26.137  0.00  0.00    +0.029 A 
ATOM     28  C   UNL     1      -4.869   3.583  24.374  0.00  0.00    +0.005 A 
ATOM     29  C   UNL     1      -3.736   3.329  26.492  0.00  0.00    +0.005 A 
ATOM     30  C   UNL     1      -4.748   2.950  25.610  0.00  0.00    -0.050 A 
ATOM     31  C   UNL     1      -5.700   1.866  25.989  0.00  0.00    +0.044 C 
ENDBRANCH   2  25
ENDBRANCH   8   2
TORSDOF 2
ENDMDL
