MODEL 1
REMARK VINA RESULT:       4.0      0.000      0.000
REMARK  Name = 11882971
REMARK  9 active torsions:
REMARK  status: ('A' for Active; 'I' for Inactive)
REMARK    1  A    between atoms: O_2  and  C_14
REMARK    2  A    between atoms: O_3  and  C_19
REMARK    3  A    between atoms: O_4  and  C_24
REMARK    4  A    between atoms: C_9  and  C_17
REMARK    5  A    between atoms: C_11  and  C_19
REMARK    6  A    between atoms: C_11  and  C_20
REMARK    7  A    between atoms: C_12  and  C_22
REMARK    8  A    between atoms: C_22  and  C_24
REMARK    9  A    between atoms: C_25  and  C_26
REMARK                            x       y       z     vdW  Elec       q    Type
REMARK                         _______ _______ _______ _____ _____    ______ ____
ROOT
ATOM      1  S   UNL     1       0.345   2.039  25.424  0.00  0.00    -0.057 S 
ATOM      6  O   UNL     1       1.553  -0.672  21.822  0.00  0.00    -0.275 OA
ATOM      7  N   UNL     1      -0.554   0.743  23.374  0.00  0.00    -0.229 NA
ATOM      8  N   UNL     1       1.823   0.645  23.766  0.00  0.00    -0.264 N 
ATOM      9  C   UNL     1      -4.120   1.624  24.544  0.00  0.00    -0.019 C 
ATOM     10  C   UNL     1      -3.651   3.000  25.194  0.00  0.00    +0.011 C 
ATOM     11  C   UNL     1      -4.737   3.821  25.991  0.00  0.00    +0.021 C 
ATOM     12  C   UNL     1      -3.033   1.199  23.453  0.00  0.00    +0.055 C 
ATOM     13  C   UNL     1      -5.479   1.829  23.826  0.00  0.00    +0.010 C 
ATOM     14  C   UNL     1      -6.045   3.891  25.152  0.00  0.00    +0.123 C 
ATOM     15  C   UNL     1      -2.303   2.840  25.955  0.00  0.00    +0.049 C 
ATOM     16  C   UNL     1      -6.530   2.524  24.681  0.00  0.00    +0.032 C 
ATOM     17  C   UNL     1      -4.275   0.488  25.586  0.00  0.00    +0.012 C 
ATOM     18  C   UNL     1      -1.635   1.336  23.998  0.00  0.00    +0.058 A 
ATOM     20  C   UNL     1      -4.232   5.280  26.179  0.00  0.00    +0.016 C 
ATOM     21  C   UNL     1      -1.327   2.091  25.112  0.00  0.00    +0.015 A 
ATOM     23  C   UNL     1       0.540   1.039  24.042  0.00  0.00    +0.165 A 
ATOM     26  C   UNL     1       2.245  -0.166  22.699  0.00  0.00    +0.222 C 
ATOM     34  H   UNL     1       2.524   0.996  24.413  0.00  0.00    +0.157 HD
ENDROOT
BRANCH  26  25
ATOM     25  C   UNL     1       3.729  -0.381  22.719  0.00  0.00    +0.075 C 
ATOM     27  C   UNL     1       4.439   0.922  23.094  0.00  0.00    +0.013 C 
ATOM     28  C   UNL     1       4.079  -1.509  23.692  0.00  0.00    +0.013 C 
ATOM     29  C   UNL     1       5.948   0.726  23.219  0.00  0.00    +0.001 C 
ATOM     30  C   UNL     1       5.588  -1.699  23.815  0.00  0.00    +0.001 C 
ATOM     31  C   UNL     1       6.291  -0.399  24.191  0.00  0.00    +0.000 C 
ENDBRANCH  26  25
BRANCH  14   2
ATOM      2  O   UNL     1      -7.088   4.516  25.898  0.00  0.00    -0.391 OA
ATOM     32  H   UNL     1      -7.170   4.053  26.748  0.00  0.00    +0.210 HD
ENDBRANCH  14   2
BRANCH  11  19
ATOM     19  C   UNL     1      -5.024   3.294  27.413  0.00  0.00    +0.165 C 
BRANCH  19   3
ATOM      3  O   UNL     1      -6.134   2.427  27.337  0.00  0.00    -0.394 OA
ATOM     33  H   UNL     1      -5.984   1.690  27.951  0.00  0.00    +0.209 HD
ENDBRANCH  19   3
ENDBRANCH  11  19
BRANCH  12  22
ATOM     22  C   UNL     1      -3.260  -0.186  22.831  0.00  0.00    +0.130 C 
BRANCH  22  24
ATOM      5  O   UNL     1      -2.306  -1.522  24.633  0.00  0.00    -0.251 OA
ATOM     24  C   UNL     1      -3.227  -1.267  23.872  0.00  0.00    +0.305 C 
BRANCH  24   4
ATOM      4  O   UNL     1      -4.401  -1.950  23.854  0.00  0.00    -0.481 OA
ATOM     35  H   UNL     1      -4.535  -2.469  24.675  0.00  0.00    +0.295 HD
ENDBRANCH  24   4
ENDBRANCH  22  24
ENDBRANCH  12  22
TORSDOF 7
ENDMDL
MODEL 2
REMARK VINA RESULT:       4.7      2.256      3.346
REMARK  Name = 11882971
REMARK  9 active torsions:
REMARK  status: ('A' for Active; 'I' for Inactive)
REMARK    1  A    between atoms: O_2  and  C_14
REMARK    2  A    between atoms: O_3  and  C_19
REMARK    3  A    between atoms: O_4  and  C_24
REMARK    4  A    between atoms: C_9  and  C_17
REMARK    5  A    between atoms: C_11  and  C_19
REMARK    6  A    between atoms: C_11  and  C_20
REMARK    7  A    between atoms: C_12  and  C_22
REMARK    8  A    between atoms: C_22  and  C_24
REMARK    9  A    between atoms: C_25  and  C_26
REMARK                            x       y       z     vdW  Elec       q    Type
REMARK                         _______ _______ _______ _____ _____    ______ ____
ROOT
ATOM      1  S   UNL     1      -0.851  -0.811  23.988  0.00  0.00    -0.057 S 
ATOM      6  O   UNL     1       2.888   1.923  23.416  0.00  0.00    -0.275 OA
ATOM      7  N   UNL     1      -0.005   1.633  24.043  0.00  0.00    -0.229 NA
ATOM      8  N   UNL     1       1.616  -0.067  23.500  0.00  0.00    -0.264 N 
ATOM      9  C   UNL     1      -3.658   2.749  24.571  0.00  0.00    -0.019 C 
ATOM     10  C   UNL     1      -4.034   1.414  25.354  0.00  0.00    +0.011 C 
ATOM     11  C   UNL     1      -5.548   1.224  25.757  0.00  0.00    +0.021 C 
ATOM     12  C   UNL     1      -2.074   2.939  24.657  0.00  0.00    +0.055 C 
ATOM     13  C   UNL     1      -4.333   3.961  25.264  0.00  0.00    +0.010 C 
ATOM     14  C   UNL     1      -6.078   2.541  26.391  0.00  0.00    +0.123 C 
ATOM     15  C   UNL     1      -3.404   0.161  24.679  0.00  0.00    +0.049 C 
ATOM     16  C   UNL     1      -5.821   3.771  25.526  0.00  0.00    +0.032 C 
ATOM     17  C   UNL     1      -4.093   2.718  23.086  0.00  0.00    +0.012 C 
ATOM     18  C   UNL     1      -1.355   1.653  24.341  0.00  0.00    +0.058 A 
ATOM     20  C   UNL     1      -5.648   0.116  26.844  0.00  0.00    +0.016 C 
ATOM     21  C   UNL     1      -1.967   0.416  24.374  0.00  0.00    +0.015 A 
ATOM     23  C   UNL     1       0.367   0.389  23.831  0.00  0.00    +0.165 A 
ATOM     26  C   UNL     1       2.775   0.706  23.317  0.00  0.00    +0.222 C 
ATOM     34  H   UNL     1       1.683  -1.075  23.389  0.00  0.00    +0.157 HD
ENDROOT
BRANCH  26  25
ATOM     25  C   UNL     1       3.958  -0.145  22.964  0.00  0.00    +0.075 C 
ATOM     27  C   UNL     1       5.252   0.644  23.185  0.00  0.00    +0.013 C 
ATOM     28  C   UNL     1       3.940  -1.432  23.792  0.00  0.00    +0.013 C 
ATOM     29  C   UNL     1       6.487  -0.215  22.928  0.00  0.00    +0.001 C 
ATOM     30  C   UNL     1       5.179  -2.286  23.533  0.00  0.00    +0.001 C 
ATOM     31  C   UNL     1       6.464  -1.496  23.757  0.00  0.00    +0.000 C 
ENDBRANCH  26  25
BRANCH  14   2
ATOM      2  O   UNL     1      -7.479   2.447  26.650  0.00  0.00    -0.391 OA
ATOM     32  H   UNL     1      -7.596   2.187  27.579  0.00  0.00    +0.210 HD
ENDBRANCH  14   2
BRANCH  11  19
ATOM     19  C   UNL     1      -6.465   0.760  24.605  0.00  0.00    +0.165 C 
BRANCH  19   3
ATOM      3  O   UNL     1      -7.384   1.796  24.340  0.00  0.00    -0.394 OA
ATOM     33  H   UNL     1      -6.880   2.595  24.112  0.00  0.00    +0.209 HD
ENDBRANCH  19   3
ENDBRANCH  11  19
BRANCH  12  22
ATOM     22  C   UNL     1      -1.526   4.108  23.827  0.00  0.00    +0.130 C 
BRANCH  22  24
ATOM      5  O   UNL     1      -1.234   6.280  24.895  0.00  0.00    -0.251 OA
ATOM     24  C   UNL     1      -0.859   5.134  24.696  0.00  0.00    +0.305 C 
BRANCH  24   4
ATOM      4  O   UNL     1       0.258   4.598  25.254  0.00  0.00    -0.481 OA
ATOM     35  H   UNL     1       0.204   3.621  25.315  0.00  0.00    +0.295 HD
ENDBRANCH  24   4
ENDBRANCH  22  24
ENDBRANCH  12  22
TORSDOF 7
ENDMDL
MODEL 3
REMARK VINA RESULT:       5.1      1.395      1.817
REMARK  Name = 11882971
REMARK  9 active torsions:
REMARK  status: ('A' for Active; 'I' for Inactive)
REMARK    1  A    between atoms: O_2  and  C_14
REMARK    2  A    between atoms: O_3  and  C_19
REMARK    3  A    between atoms: O_4  and  C_24
REMARK    4  A    between atoms: C_9  and  C_17
REMARK    5  A    between atoms: C_11  and  C_19
REMARK    6  A    between atoms: C_11  and  C_20
REMARK    7  A    between atoms: C_12  and  C_22
REMARK    8  A    between atoms: C_22  and  C_24
REMARK    9  A    between atoms: C_25  and  C_26
REMARK                            x       y       z     vdW  Elec       q    Type
REMARK                         _______ _______ _______ _____ _____    ______ ____
ROOT
ATOM      1  S   UNL     1       0.632   2.585  24.192  0.00  0.00    -0.057 S 
ATOM      6  O   UNL     1       2.942  -1.264  22.913  0.00  0.00    -0.275 OA
ATOM      7  N   UNL     1       0.388   0.065  23.663  0.00  0.00    -0.229 NA
ATOM      8  N   UNL     1       2.602   1.003  23.490  0.00  0.00    -0.264 N 
ATOM      9  C   UNL     1      -3.292   0.319  24.784  0.00  0.00    -0.019 C 
ATOM     10  C   UNL     1      -3.414   1.833  24.309  0.00  0.00    +0.011 C 
ATOM     11  C   UNL     1      -4.765   2.579  24.636  0.00  0.00    +0.021 C 
ATOM     12  C   UNL     1      -2.078  -0.350  23.989  0.00  0.00    +0.055 C 
ATOM     13  C   UNL     1      -4.593  -0.443  24.419  0.00  0.00    +0.010 C 
ATOM     14  C   UNL     1      -5.962   1.662  24.254  0.00  0.00    +0.123 C 
ATOM     15  C   UNL     1      -2.142   2.650  24.680  0.00  0.00    +0.049 C 
ATOM     16  C   UNL     1      -5.866   0.266  24.860  0.00  0.00    +0.032 C 
ATOM     17  C   UNL     1      -3.047   0.183  26.307  0.00  0.00    +0.012 C 
ATOM     18  C   UNL     1      -0.864   0.542  24.002  0.00  0.00    +0.058 A 
ATOM     20  C   UNL     1      -4.864   3.858  23.755  0.00  0.00    +0.016 C 
ATOM     21  C   UNL     1      -0.918   1.889  24.297  0.00  0.00    +0.015 A 
ATOM     23  C   UNL     1       1.255   1.051  23.736  0.00  0.00    +0.165 A 
ATOM     26  C   UNL     1       3.349  -0.123  23.101  0.00  0.00    +0.222 C 
ATOM     34  H   UNL     1       3.086   1.890  23.600  0.00  0.00    +0.157 HD
ENDROOT
BRANCH  26  25
ATOM     25  C   UNL     1       4.799   0.209  22.920  0.00  0.00    +0.075 C 
ATOM     27  C   UNL     1       5.325   0.942  24.157  0.00  0.00    +0.013 C 
ATOM     28  C   UNL     1       5.597  -1.068  22.646  0.00  0.00    +0.013 C 
ATOM     29  C   UNL     1       6.823   1.216  24.057  0.00  0.00    +0.001 C 
ATOM     30  C   UNL     1       7.094  -0.788  22.549  0.00  0.00    +0.001 C 
ATOM     31  C   UNL     1       7.612  -0.060  23.785  0.00  0.00    +0.000 C 
ENDBRANCH  26  25
BRANCH  14   2
ATOM      2  O   UNL     1      -7.197   2.254  24.655  0.00  0.00    -0.391 OA
ATOM     32  H   UNL     1      -7.009   3.150  24.981  0.00  0.00    +0.210 HD
ENDBRANCH  14   2
BRANCH  11  19
ATOM     19  C   UNL     1      -4.891   3.069  26.095  0.00  0.00    +0.165 C 
BRANCH  19   3
ATOM      3  O   UNL     1      -5.866   4.087  26.126  0.00  0.00    -0.394 OA
ATOM     33  H   UNL     1      -5.481   4.861  26.568  0.00  0.00    +0.209 HD
ENDBRANCH  19   3
ENDBRANCH  11  19
BRANCH  12  22
ATOM     22  C   UNL     1      -1.731  -1.777  24.437  0.00  0.00    +0.130 C 
BRANCH  22  24
ATOM      5  O   UNL     1      -3.581  -3.003  23.426  0.00  0.00    -0.251 OA
ATOM     24  C   UNL     1      -2.939  -2.669  24.410  0.00  0.00    +0.305 C 
BRANCH  24   4
ATOM      4  O   UNL     1      -3.233  -3.070  25.674  0.00  0.00    -0.481 OA
ATOM     35  H   UNL     1      -2.452  -3.019  26.266  0.00  0.00    +0.295 HD
ENDBRANCH  24   4
ENDBRANCH  22  24
ENDBRANCH  12  22
TORSDOF 7
ENDMDL
