MODEL 1
REMARK VINA RESULT:       4.4      0.000      0.000
REMARK  Name = 11867040
REMARK  10 active torsions:
REMARK  status: ('A' for Active; 'I' for Inactive)
REMARK    1  A    between atoms: O_2  and  C_15
REMARK    2  A    between atoms: O_3  and  C_20
REMARK    3  A    between atoms: N_8  and  C_26
REMARK    4  A    between atoms: C_10  and  C_18
REMARK    5  A    between atoms: C_12  and  C_20
REMARK    6  A    between atoms: C_12  and  C_21
REMARK    7  A    between atoms: C_13  and  C_23
REMARK    8  A    between atoms: C_23  and  C_24
REMARK    9  A    between atoms: C_26  and  C_28
REMARK   10  A    between atoms: C_27  and  C_29
REMARK                            x       y       z     vdW  Elec       q    Type
REMARK                         _______ _______ _______ _____ _____    ______ ____
ROOT
ATOM      1  S   UNL     1      -3.204  -2.045  25.156  0.00  0.00    -0.057 S 
ATOM      5  O   UNL     1       1.447  -2.300  25.452  0.00  0.00    -0.276 OA
ATOM      7  N   UNL     1      -1.029  -0.656  25.316  0.00  0.00    -0.229 NA
ATOM      9  N   UNL     1      -0.788  -3.053  25.295  0.00  0.00    -0.265 N 
ATOM     10  C   UNL     1      -3.169   2.513  24.823  0.00  0.00    -0.019 C 
ATOM     11  C   UNL     1      -4.434   1.865  25.541  0.00  0.00    +0.011 C 
ATOM     12  C   UNL     1      -5.765   2.711  25.545  0.00  0.00    +0.021 C 
ATOM     13  C   UNL     1      -1.867   1.723  25.309  0.00  0.00    +0.054 C 
ATOM     14  C   UNL     1      -3.032   3.995  25.257  0.00  0.00    +0.010 C 
ATOM     15  C   UNL     1      -5.442   4.176  25.957  0.00  0.00    +0.123 C 
ATOM     16  C   UNL     1      -4.634   0.383  25.112  0.00  0.00    +0.049 C 
ATOM     17  C   UNL     1      -4.320   4.797  25.132  0.00  0.00    +0.032 C 
ATOM     18  C   UNL     1      -3.260   2.455  23.277  0.00  0.00    +0.012 C 
ATOM     19  C   UNL     1      -2.085   0.233  25.251  0.00  0.00    +0.058 A 
ATOM     21  C   UNL     1      -6.731   2.132  26.619  0.00  0.00    +0.016 C 
ATOM     22  C   UNL     1      -3.336  -0.348  25.182  0.00  0.00    +0.015 A 
ATOM     25  C   UNL     1      -1.499  -1.883  25.267  0.00  0.00    +0.165 A 
ATOM     27  C   UNL     1       0.608  -3.191  25.384  0.00  0.00    +0.216 C 
ATOM     29  C   UNL     1       1.027  -4.641  25.392  0.00  0.00    +0.109 C 
ATOM     36  H   UNL     1      -1.350  -3.899  25.247  0.00  0.00    +0.157 HD
ENDROOT
BRANCH  15   2
ATOM      2  O   UNL     1      -6.603   4.998  25.846  0.00  0.00    -0.391 OA
ATOM     33  H   UNL     1      -6.355   5.807  25.370  0.00  0.00    +0.210 HD
ENDBRANCH  15   2
BRANCH  12  20
ATOM     20  C   UNL     1      -6.552   2.674  24.217  0.00  0.00    +0.165 C 
BRANCH  20   3
ATOM      3  O   UNL     1      -7.544   1.678  24.329  0.00  0.00    -0.394 OA
ATOM     34  H   UNL     1      -7.266   1.052  25.018  0.00  0.00    +0.209 HD
ENDBRANCH  20   3
ENDBRANCH  12  20
BRANCH  13  23
ATOM     23  C   UNL     1      -0.571   2.130  24.596  0.00  0.00    +0.106 C 
BRANCH  23  24
ATOM      4  O   UNL     1      -0.945   0.637  22.729  0.00  0.00    -0.276 OA
ATOM      8  N   UNL     1       1.190   0.840  23.625  0.00  0.00    -0.308 N 
ATOM     24  C   UNL     1      -0.165   1.126  23.542  0.00  0.00    +0.214 C 
ATOM     35  H   UNL     1       1.769   1.333  24.299  0.00  0.00    +0.149 HD
BRANCH   8  26
ATOM     26  C   UNL     1       1.856  -0.091  22.744  0.00  0.00    +0.178 C 
BRANCH  26  28
ATOM      6  O   UNL     1       3.757  -1.281  23.606  0.00  0.00    -0.466 OA
ATOM     28  C   UNL     1       3.319  -0.128  23.065  0.00  0.00    +0.122 A 
ATOM     30  C   UNL     1       4.308   0.787  22.918  0.00  0.00    +0.046 A 
ATOM     31  C   UNL     1       5.476   0.156  23.409  0.00  0.00    +0.041 A 
ATOM     32  C   UNL     1       5.089  -1.100  23.816  0.00  0.00    +0.195 A 
ENDBRANCH  26  28
ENDBRANCH   8  26
ENDBRANCH  23  24
ENDBRANCH  13  23
TORSDOF 7
ENDMDL
MODEL 2
REMARK VINA RESULT:       5.7      2.813      5.557
REMARK  Name = 11867040
REMARK  10 active torsions:
REMARK  status: ('A' for Active; 'I' for Inactive)
REMARK    1  A    between atoms: O_2  and  C_15
REMARK    2  A    between atoms: O_3  and  C_20
REMARK    3  A    between atoms: N_8  and  C_26
REMARK    4  A    between atoms: C_10  and  C_18
REMARK    5  A    between atoms: C_12  and  C_20
REMARK    6  A    between atoms: C_12  and  C_21
REMARK    7  A    between atoms: C_13  and  C_23
REMARK    8  A    between atoms: C_23  and  C_24
REMARK    9  A    between atoms: C_26  and  C_28
REMARK   10  A    between atoms: C_27  and  C_29
REMARK                            x       y       z     vdW  Elec       q    Type
REMARK                         _______ _______ _______ _____ _____    ______ ____
ROOT
ATOM      1  S   UNL     1      -4.059   3.104  25.382  0.00  0.00    -0.057 S 
ATOM      5  O   UNL     1      -0.602   6.057  24.330  0.00  0.00    -0.276 OA
ATOM      7  N   UNL     1      -1.633   3.272  24.502  0.00  0.00    -0.229 NA
ATOM      9  N   UNL     1      -2.731   5.342  25.064  0.00  0.00    -0.265 N 
ATOM     10  C   UNL     1      -1.474  -0.579  24.583  0.00  0.00    -0.019 C 
ATOM     11  C   UNL     1      -3.030  -0.728  24.282  0.00  0.00    +0.011 C 
ATOM     12  C   UNL     1      -3.628  -2.187  24.310  0.00  0.00    +0.021 C 
ATOM     13  C   UNL     1      -1.010   0.865  24.079  0.00  0.00    +0.054 C 
ATOM     14  C   UNL     1      -0.689  -1.650  23.783  0.00  0.00    +0.010 C 
ATOM     15  C   UNL     1      -2.699  -3.138  23.503  0.00  0.00    +0.123 C 
ATOM     16  C   UNL     1      -3.866   0.308  25.088  0.00  0.00    +0.049 C 
ATOM     17  C   UNL     1      -1.239  -3.062  23.936  0.00  0.00    +0.032 C 
ATOM     18  C   UNL     1      -1.134  -0.734  26.086  0.00  0.00    +0.012 C 
ATOM     19  C   UNL     1      -1.971   1.932  24.536  0.00  0.00    +0.058 A 
ATOM     21  C   UNL     1      -5.013  -2.182  23.601  0.00  0.00    +0.016 C 
ATOM     22  C   UNL     1      -3.254   1.662  24.968  0.00  0.00    +0.015 A 
ATOM     25  C   UNL     1      -2.654   3.981  24.933  0.00  0.00    +0.165 A 
ATOM     27  C   UNL     1      -1.727   6.278  24.763  0.00  0.00    +0.216 C 
ATOM     29  C   UNL     1      -2.181   7.692  25.034  0.00  0.00    +0.109 C 
ATOM     36  H   UNL     1      -3.619   5.690  25.416  0.00  0.00    +0.157 HD
ENDROOT
BRANCH  15   2
ATOM      2  O   UNL     1      -3.142  -4.490  23.616  0.00  0.00    -0.391 OA
ATOM     33  H   UNL     1      -3.937  -4.500  24.174  0.00  0.00    +0.210 HD
ENDBRANCH  15   2
BRANCH  12  20
ATOM     20  C   UNL     1      -3.890  -2.746  25.726  0.00  0.00    +0.165 C 
BRANCH  20   3
ATOM      3  O   UNL     1      -3.536  -1.747  26.657  0.00  0.00    -0.394 OA
ATOM     34  H   UNL     1      -2.611  -1.892  26.918  0.00  0.00    +0.209 HD
ENDBRANCH  20   3
ENDBRANCH  12  20
BRANCH  13  23
ATOM     23  C   UNL     1       0.440   1.227  24.427  0.00  0.00    +0.106 C 
BRANCH  23  24
ATOM      4  O   UNL     1       1.145  -0.061  22.505  0.00  0.00    -0.276 OA
ATOM      8  N   UNL     1       2.616   1.458  23.469  0.00  0.00    -0.308 N 
ATOM     24  C   UNL     1       1.408   0.785  23.355  0.00  0.00    +0.214 C 
ATOM     35  H   UNL     1       2.726   2.181  24.174  0.00  0.00    +0.149 HD
BRANCH   8  26
ATOM     26  C   UNL     1       3.732   1.234  22.579  0.00  0.00    +0.178 C 
BRANCH  26  28
ATOM      6  O   UNL     1       4.128  -0.965  23.460  0.00  0.00    -0.466 OA
ATOM     28  C   UNL     1       4.669   0.238  23.189  0.00  0.00    +0.122 A 
ATOM     30  C   UNL     1       5.979   0.309  23.529  0.00  0.00    +0.046 A 
ATOM     31  C   UNL     1       6.295  -0.964  24.063  0.00  0.00    +0.041 A 
ATOM     32  C   UNL     1       5.136  -1.703  23.999  0.00  0.00    +0.195 A 
ENDBRANCH  26  28
ENDBRANCH   8  26
ENDBRANCH  23  24
ENDBRANCH  13  23
TORSDOF 7
ENDMDL
MODEL 3
REMARK VINA RESULT:       6.2      2.513      5.825
REMARK  Name = 11867040
REMARK  10 active torsions:
REMARK  status: ('A' for Active; 'I' for Inactive)
REMARK    1  A    between atoms: O_2  and  C_15
REMARK    2  A    between atoms: O_3  and  C_20
REMARK    3  A    between atoms: N_8  and  C_26
REMARK    4  A    between atoms: C_10  and  C_18
REMARK    5  A    between atoms: C_12  and  C_20
REMARK    6  A    between atoms: C_12  and  C_21
REMARK    7  A    between atoms: C_13  and  C_23
REMARK    8  A    between atoms: C_23  and  C_24
REMARK    9  A    between atoms: C_26  and  C_28
REMARK   10  A    between atoms: C_27  and  C_29
REMARK                            x       y       z     vdW  Elec       q    Type
REMARK                         _______ _______ _______ _____ _____    ______ ____
ROOT
ATOM      1  S   UNL     1       1.705  -1.835  23.627  0.00  0.00    -0.057 S 
ATOM      5  O   UNL     1       4.832   1.623  23.401  0.00  0.00    -0.276 OA
ATOM      7  N   UNL     1       2.007   0.734  23.674  0.00  0.00    -0.229 NA
ATOM      9  N   UNL     1       4.004  -0.591  23.418  0.00  0.00    -0.265 N 
ATOM     10  C   UNL     1      -1.835   1.055  23.692  0.00  0.00    -0.019 C 
ATOM     11  C   UNL     1      -2.024  -0.314  24.481  0.00  0.00    +0.011 C 
ATOM     12  C   UNL     1      -3.504  -0.815  24.701  0.00  0.00    +0.021 C 
ATOM     13  C   UNL     1      -0.351   1.581  23.965  0.00  0.00    +0.054 C 
ATOM     14  C   UNL     1      -2.834   2.108  24.237  0.00  0.00    +0.010 C 
ATOM     15  C   UNL     1      -4.377   0.370  25.203  0.00  0.00    +0.123 C 
ATOM     16  C   UNL     1      -1.063  -1.416  23.948  0.00  0.00    +0.049 C 
ATOM     17  C   UNL     1      -4.271   1.610  24.321  0.00  0.00    +0.032 C 
ATOM     18  C   UNL     1      -2.056   0.905  22.166  0.00  0.00    +0.012 C 
ATOM     19  C   UNL     1       0.656   0.472  23.801  0.00  0.00    +0.058 A 
ATOM     21  C   UNL     1      -3.512  -1.899  25.817  0.00  0.00    +0.016 C 
ATOM     22  C   UNL     1       0.317  -0.867  23.814  0.00  0.00    +0.015 A 
ATOM     25  C   UNL     1       2.655  -0.406  23.568  0.00  0.00    +0.165 A 
ATOM     27  C   UNL     1       4.990   0.408  23.344  0.00  0.00    +0.216 C 
ATOM     29  C   UNL     1       6.370  -0.180  23.181  0.00  0.00    +0.109 C 
ATOM     36  H   UNL     1       4.301  -1.561  23.356  0.00  0.00    +0.157 HD
ENDROOT
BRANCH  15   2
ATOM      2  O   UNL     1      -5.748  -0.016  25.289  0.00  0.00    -0.391 OA
ATOM     33  H   UNL     1      -5.787  -0.986  25.300  0.00  0.00    +0.210 HD
ENDBRANCH  15   2
BRANCH  12  20
ATOM     20  C   UNL     1      -4.144  -1.486  23.467  0.00  0.00    +0.165 C 
BRANCH  20   3
ATOM      3  O   UNL     1      -4.275  -2.863  23.742  0.00  0.00    -0.394 OA
ATOM     34  H   UNL     1      -3.480  -3.152  24.220  0.00  0.00    +0.209 HD
ENDBRANCH  20   3
ENDBRANCH  12  20
BRANCH  13  23
ATOM     23  C   UNL     1       0.045   2.823  23.156  0.00  0.00    +0.106 C 
BRANCH  23  24
ATOM      4  O   UNL     1      -0.193   5.221  23.373  0.00  0.00    -0.276 OA
ATOM      8  N   UNL     1      -1.248   3.822  24.900  0.00  0.00    -0.308 N 
ATOM     24  C   UNL     1      -0.459   4.098  23.792  0.00  0.00    +0.214 C 
ATOM     35  H   UNL     1      -1.456   2.857  25.143  0.00  0.00    +0.149 HD
BRANCH   8  26
ATOM     26  C   UNL     1      -1.862   4.850  25.708  0.00  0.00    +0.178 C 
BRANCH  26  28
ATOM      6  O   UNL     1      -3.762   3.841  26.778  0.00  0.00    -0.466 OA
ATOM     28  C   UNL     1      -3.341   4.625  25.767  0.00  0.00    +0.122 A 
ATOM     30  C   UNL     1      -4.361   5.062  24.989  0.00  0.00    +0.046 A 
ATOM     31  C   UNL     1      -5.531   4.505  25.559  0.00  0.00    +0.041 A 
ATOM     32  C   UNL     1      -5.114   3.770  26.645  0.00  0.00    +0.195 A 
ENDBRANCH  26  28
ENDBRANCH   8  26
ENDBRANCH  23  24
ENDBRANCH  13  23
TORSDOF 7
ENDMDL
MODEL 4
REMARK VINA RESULT:       7.2      3.039      4.676
REMARK  Name = 11867040
REMARK  10 active torsions:
REMARK  status: ('A' for Active; 'I' for Inactive)
REMARK    1  A    between atoms: O_2  and  C_15
REMARK    2  A    between atoms: O_3  and  C_20
REMARK    3  A    between atoms: N_8  and  C_26
REMARK    4  A    between atoms: C_10  and  C_18
REMARK    5  A    between atoms: C_12  and  C_20
REMARK    6  A    between atoms: C_12  and  C_21
REMARK    7  A    between atoms: C_13  and  C_23
REMARK    8  A    between atoms: C_23  and  C_24
REMARK    9  A    between atoms: C_26  and  C_28
REMARK   10  A    between atoms: C_27  and  C_29
REMARK                            x       y       z     vdW  Elec       q    Type
REMARK                         _______ _______ _______ _____ _____    ______ ____
ROOT
ATOM      1  S   UNL     1       1.098  -1.585  23.315  0.00  0.00    -0.057 S 
ATOM      5  O   UNL     1       4.430   1.680  23.461  0.00  0.00    -0.276 OA
ATOM      7  N   UNL     1       1.577   0.910  23.800  0.00  0.00    -0.229 NA
ATOM      9  N   UNL     1       3.455  -0.450  23.147  0.00  0.00    -0.265 N 
ATOM     10  C   UNL     1      -2.224   1.430  24.189  0.00  0.00    -0.019 C 
ATOM     11  C   UNL     1      -2.450  -0.049  24.732  0.00  0.00    +0.011 C 
ATOM     12  C   UNL     1      -3.941  -0.500  24.979  0.00  0.00    +0.021 C 
ATOM     13  C   UNL     1      -0.691   1.816  24.431  0.00  0.00    +0.054 C 
ATOM     14  C   UNL     1      -3.108   2.417  24.995  0.00  0.00    +0.010 C 
ATOM     15  C   UNL     1      -4.694   0.617  25.755  0.00  0.00    +0.123 C 
ATOM     16  C   UNL     1      -1.605  -1.083  23.932  0.00  0.00    +0.049 C 
ATOM     17  C   UNL     1      -4.565   1.990  25.106  0.00  0.00    +0.032 C 
ATOM     18  C   UNL     1      -2.561   1.578  22.685  0.00  0.00    +0.012 C 
ATOM     19  C   UNL     1       0.223   0.703  23.987  0.00  0.00    +0.058 A 
ATOM     21  C   UNL     1      -3.944  -1.770  25.878  0.00  0.00    +0.016 C 
ATOM     22  C   UNL     1      -0.204  -0.594  23.787  0.00  0.00    +0.015 A 
ATOM     25  C   UNL     1       2.137  -0.223  23.438  0.00  0.00    +0.165 A 
ATOM     27  C   UNL     1       4.500   0.490  23.174  0.00  0.00    +0.216 C 
ATOM     29  C   UNL     1       5.822  -0.131  22.795  0.00  0.00    +0.109 C 
ATOM     36  H   UNL     1       3.680  -1.407  22.887  0.00  0.00    +0.157 HD
ENDROOT
BRANCH  15   2
ATOM      2  O   UNL     1      -6.078   0.296  25.882  0.00  0.00    -0.391 OA
ATOM     33  H   UNL     1      -6.593   1.087  25.652  0.00  0.00    +0.210 HD
ENDBRANCH  15   2
BRANCH  12  20
ATOM     20  C   UNL     1      -4.711  -0.896  23.700  0.00  0.00    +0.165 C 
BRANCH  20   3
ATOM      3  O   UNL     1      -4.665  -2.300  23.584  0.00  0.00    -0.394 OA
ATOM     34  H   UNL     1      -3.733  -2.568  23.522  0.00  0.00    +0.209 HD
ENDBRANCH  20   3
ENDBRANCH  12  20
BRANCH  13  23
ATOM     23  C   UNL     1      -0.270   3.163  23.830  0.00  0.00    +0.106 C 
BRANCH  23  24
ATOM      4  O   UNL     1      -0.108   5.364  24.821  0.00  0.00    -0.276 OA
ATOM      8  N   UNL     1       0.776   3.532  25.946  0.00  0.00    -0.308 N 
ATOM     24  C   UNL     1       0.124   4.160  24.894  0.00  0.00    +0.214 C 
ATOM     35  H   UNL     1       0.879   2.521  25.944  0.00  0.00    +0.149 HD
BRANCH   8  26
ATOM     26  C   UNL     1       1.271   4.240  27.104  0.00  0.00    +0.178 C 
BRANCH  26  28
ATOM      6  O   UNL     1       2.868   3.041  28.439  0.00  0.00    -0.466 OA
ATOM     28  C   UNL     1       1.562   3.264  28.202  0.00  0.00    +0.122 A 
ATOM     30  C   UNL     1       0.754   2.547  29.021  0.00  0.00    +0.046 A 
ATOM     31  C   UNL     1       1.629   1.803  29.849  0.00  0.00    +0.041 A 
ATOM     32  C   UNL     1       2.904   2.139  29.456  0.00  0.00    +0.195 A 
ENDBRANCH  26  28
ENDBRANCH   8  26
ENDBRANCH  23  24
ENDBRANCH  13  23
TORSDOF 7
ENDMDL
MODEL 5
REMARK VINA RESULT:       7.5      1.901      2.278
REMARK  Name = 11867040
REMARK  10 active torsions:
REMARK  status: ('A' for Active; 'I' for Inactive)
REMARK    1  A    between atoms: O_2  and  C_15
REMARK    2  A    between atoms: O_3  and  C_20
REMARK    3  A    between atoms: N_8  and  C_26
REMARK    4  A    between atoms: C_10  and  C_18
REMARK    5  A    between atoms: C_12  and  C_20
REMARK    6  A    between atoms: C_12  and  C_21
REMARK    7  A    between atoms: C_13  and  C_23
REMARK    8  A    between atoms: C_23  and  C_24
REMARK    9  A    between atoms: C_26  and  C_28
REMARK   10  A    between atoms: C_27  and  C_29
REMARK                            x       y       z     vdW  Elec       q    Type
REMARK                         _______ _______ _______ _____ _____    ______ ____
ROOT
ATOM      1  S   UNL     1      -4.866  -1.236  24.385  0.00  0.00    -0.057 S 
ATOM      5  O   UNL     1      -1.322  -3.916  22.955  0.00  0.00    -0.276 OA
ATOM      7  N   UNL     1      -2.340  -1.262  23.831  0.00  0.00    -0.229 NA
ATOM      9  N   UNL     1      -3.530  -3.341  23.572  0.00  0.00    -0.265 N 
ATOM     10  C   UNL     1      -2.319   2.559  24.352  0.00  0.00    -0.019 C 
ATOM     11  C   UNL     1      -3.482   2.496  25.437  0.00  0.00    +0.011 C 
ATOM     12  C   UNL     1      -4.031   3.872  25.978  0.00  0.00    +0.021 C 
ATOM     13  C   UNL     1      -1.632   1.117  24.281  0.00  0.00    +0.054 C 
ATOM     14  C   UNL     1      -1.250   3.588  24.799  0.00  0.00    +0.010 C 
ATOM     15  C   UNL     1      -2.833   4.797  26.336  0.00  0.00    +0.123 C 
ATOM     16  C   UNL     1      -4.599   1.497  25.017  0.00  0.00    +0.049 C 
ATOM     17  C   UNL     1      -1.824   4.939  25.202  0.00  0.00    +0.032 C 
ATOM     18  C   UNL     1      -2.831   2.955  22.944  0.00  0.00    +0.012 C 
ATOM     19  C   UNL     1      -2.669   0.026  24.212  0.00  0.00    +0.058 A 
ATOM     21  C   UNL     1      -4.828   3.620  27.290  0.00  0.00    +0.016 C 
ATOM     22  C   UNL     1      -3.990   0.213  24.564  0.00  0.00    +0.015 A 
ATOM     25  C   UNL     1      -3.420  -2.010  23.878  0.00  0.00    +0.165 A 
ATOM     27  C   UNL     1      -2.502  -4.195  23.139  0.00  0.00    +0.216 C 
ATOM     29  C   UNL     1      -3.004  -5.599  22.903  0.00  0.00    +0.109 C 
ATOM     36  H   UNL     1      -4.463  -3.731  23.678  0.00  0.00    +0.157 HD
ENDROOT
BRANCH  15   2
ATOM      2  O   UNL     1      -3.293   6.096  26.707  0.00  0.00    -0.391 OA
ATOM     33  H   UNL     1      -4.046   6.322  26.137  0.00  0.00    +0.210 HD
ENDBRANCH  15   2
BRANCH  12  20
ATOM     20  C   UNL     1      -5.014   4.589  25.027  0.00  0.00    +0.165 C 
BRANCH  20   3
ATOM      3  O   UNL     1      -6.278   4.614  25.650  0.00  0.00    -0.394 OA
ATOM     34  H   UNL     1      -6.416   3.756  26.087  0.00  0.00    +0.209 HD
ENDBRANCH  20   3
ENDBRANCH  12  20
BRANCH  13  23
ATOM     23  C   UNL     1      -0.581   0.965  23.173  0.00  0.00    +0.106 C 
BRANCH  23  24
ATOM      4  O   UNL     1       0.339  -0.861  24.465  0.00  0.00    -0.276 OA
ATOM      8  N   UNL     1       1.402  -0.191  22.509  0.00  0.00    -0.308 N 
ATOM     24  C   UNL     1       0.412  -0.131  23.481  0.00  0.00    +0.214 C 
ATOM     35  H   UNL     1       1.352   0.422  21.701  0.00  0.00    +0.149 HD
BRANCH   8  26
ATOM     26  C   UNL     1       2.488  -1.142  22.546  0.00  0.00    +0.178 C 
BRANCH  26  28
ATOM      6  O   UNL     1       4.513  -1.271  23.832  0.00  0.00    -0.466 OA
ATOM     28  C   UNL     1       3.717  -0.480  23.088  0.00  0.00    +0.122 A 
ATOM     30  C   UNL     1       4.196   0.783  22.975  0.00  0.00    +0.046 A 
ATOM     31  C   UNL     1       5.404   0.791  23.715  0.00  0.00    +0.041 A 
ATOM     32  C   UNL     1       5.553  -0.482  24.216  0.00  0.00    +0.195 A 
ENDBRANCH  26  28
ENDBRANCH   8  26
ENDBRANCH  23  24
ENDBRANCH  13  23
TORSDOF 7
ENDMDL
MODEL 6
REMARK VINA RESULT:       8.3      2.106      4.558
REMARK  Name = 11867040
REMARK  10 active torsions:
REMARK  status: ('A' for Active; 'I' for Inactive)
REMARK    1  A    between atoms: O_2  and  C_15
REMARK    2  A    between atoms: O_3  and  C_20
REMARK    3  A    between atoms: N_8  and  C_26
REMARK    4  A    between atoms: C_10  and  C_18
REMARK    5  A    between atoms: C_12  and  C_20
REMARK    6  A    between atoms: C_12  and  C_21
REMARK    7  A    between atoms: C_13  and  C_23
REMARK    8  A    between atoms: C_23  and  C_24
REMARK    9  A    between atoms: C_26  and  C_28
REMARK   10  A    between atoms: C_27  and  C_29
REMARK                            x       y       z     vdW  Elec       q    Type
REMARK                         _______ _______ _______ _____ _____    ______ ____
ROOT
ATOM      1  S   UNL     1       0.795   2.161  25.598  0.00  0.00    -0.057 S 
ATOM      5  O   UNL     1       2.313   0.279  21.606  0.00  0.00    -0.276 OA
ATOM      7  N   UNL     1       0.099   1.451  23.211  0.00  0.00    -0.229 NA
ATOM      9  N   UNL     1       2.399   1.081  23.827  0.00  0.00    -0.265 N 
ATOM     10  C   UNL     1      -3.539   2.309  24.156  0.00  0.00    -0.019 C 
ATOM     11  C   UNL     1      -3.089   3.455  25.165  0.00  0.00    +0.011 C 
ATOM     12  C   UNL     1      -4.225   4.150  26.011  0.00  0.00    +0.021 C 
ATOM     13  C   UNL     1      -2.345   2.067  23.121  0.00  0.00    +0.054 C 
ATOM     14  C   UNL     1      -4.785   2.780  23.362  0.00  0.00    +0.010 C 
ATOM     15  C   UNL     1      -5.412   4.515  25.074  0.00  0.00    +0.123 C 
ATOM     16  C   UNL     1      -1.857   3.018  26.010  0.00  0.00    +0.049 C 
ATOM     17  C   UNL     1      -5.900   3.337  24.237  0.00  0.00    +0.032 C 
ATOM     18  C   UNL     1      -3.880   0.978  24.870  0.00  0.00    +0.012 C 
ATOM     19  C   UNL     1      -1.022   1.965  23.835  0.00  0.00    +0.058 A 
ATOM     21  C   UNL     1      -3.676   5.481  26.600  0.00  0.00    +0.016 C 
ATOM     22  C   UNL     1      -0.820   2.414  25.125  0.00  0.00    +0.015 A 
ATOM     25  C   UNL     1       1.113   1.498  24.047  0.00  0.00    +0.165 A 
ATOM     27  C   UNL     1       2.912   0.510  22.650  0.00  0.00    +0.216 C 
ATOM     29  C   UNL     1       4.379   0.181  22.781  0.00  0.00    +0.109 C 
ATOM     36  H   UNL     1       3.033   1.210  24.612  0.00  0.00    +0.157 HD
ENDROOT
BRANCH  15   2
ATOM      2  O   UNL     1      -6.509   5.028  25.828  0.00  0.00    -0.391 OA
ATOM     33  H   UNL     1      -6.208   5.167  26.741  0.00  0.00    +0.210 HD
ENDBRANCH  15   2
BRANCH  12  20
ATOM     20  C   UNL     1      -4.714   3.330  27.224  0.00  0.00    +0.165 C 
BRANCH  20   3
ATOM      3  O   UNL     1      -5.897   2.663  26.847  0.00  0.00    -0.394 OA
ATOM     34  H   UNL     1      -5.839   1.745  27.161  0.00  0.00    +0.209 HD
ENDBRANCH  20   3
ENDBRANCH  12  20
BRANCH  13  23
ATOM     23  C   UNL     1      -2.560   0.887  22.164  0.00  0.00    +0.106 C 
BRANCH  23  24
ATOM      4  O   UNL     1      -3.850  -0.919  23.128  0.00  0.00    -0.276 OA
ATOM      8  N   UNL     1      -1.531  -0.951  23.292  0.00  0.00    -0.308 N 
ATOM     24  C   UNL     1      -2.752  -0.416  22.905  0.00  0.00    +0.214 C 
ATOM     35  H   UNL     1      -0.668  -0.490  23.018  0.00  0.00    +0.149 HD
BRANCH   8  26
ATOM     26  C   UNL     1      -1.409  -2.192  24.022  0.00  0.00    +0.178 C 
BRANCH  26  28
ATOM      6  O   UNL     1      -1.443  -1.196  26.208  0.00  0.00    -0.466 OA
ATOM     28  C   UNL     1      -2.054  -2.050  25.366  0.00  0.00    +0.122 A 
ATOM     30  C   UNL     1      -3.154  -2.624  25.913  0.00  0.00    +0.046 A 
ATOM     31  C   UNL     1      -3.245  -2.083  27.218  0.00  0.00    +0.041 A 
ATOM     32  C   UNL     1      -2.181  -1.220  27.349  0.00  0.00    +0.195 A 
ENDBRANCH  26  28
ENDBRANCH   8  26
ENDBRANCH  23  24
ENDBRANCH  13  23
TORSDOF 7
ENDMDL
MODEL 7
REMARK VINA RESULT:       8.4      2.521      3.253
REMARK  Name = 11867040
REMARK  10 active torsions:
REMARK  status: ('A' for Active; 'I' for Inactive)
REMARK    1  A    between atoms: O_2  and  C_15
REMARK    2  A    between atoms: O_3  and  C_20
REMARK    3  A    between atoms: N_8  and  C_26
REMARK    4  A    between atoms: C_10  and  C_18
REMARK    5  A    between atoms: C_12  and  C_20
REMARK    6  A    between atoms: C_12  and  C_21
REMARK    7  A    between atoms: C_13  and  C_23
REMARK    8  A    between atoms: C_23  and  C_24
REMARK    9  A    between atoms: C_26  and  C_28
REMARK   10  A    between atoms: C_27  and  C_29
REMARK                            x       y       z     vdW  Elec       q    Type
REMARK                         _______ _______ _______ _____ _____    ______ ____
ROOT
ATOM      1  S   UNL     1      -3.290  -2.181  25.182  0.00  0.00    -0.057 S 
ATOM      5  O   UNL     1       1.364  -2.459  25.390  0.00  0.00    -0.276 OA
ATOM      7  N   UNL     1      -1.103  -0.803  25.265  0.00  0.00    -0.229 NA
ATOM      9  N   UNL     1      -0.877  -3.202  25.296  0.00  0.00    -0.265 N 
ATOM     10  C   UNL     1      -3.233   2.368  24.740  0.00  0.00    -0.019 C 
ATOM     11  C   UNL     1      -4.487   1.746  25.499  0.00  0.00    +0.011 C 
ATOM     12  C   UNL     1      -5.813   2.600  25.509  0.00  0.00    +0.021 C 
ATOM     13  C   UNL     1      -1.927   1.581  25.219  0.00  0.00    +0.054 C 
ATOM     14  C   UNL     1      -3.078   3.859  25.136  0.00  0.00    +0.010 C 
ATOM     15  C   UNL     1      -5.472   4.072  25.880  0.00  0.00    +0.123 C 
ATOM     16  C   UNL     1      -4.705   0.255  25.109  0.00  0.00    +0.049 C 
ATOM     17  C   UNL     1      -4.363   4.666  25.019  0.00  0.00    +0.032 C 
ATOM     18  C   UNL     1      -3.355   2.274  23.199  0.00  0.00    +0.012 C 
ATOM     19  C   UNL     1      -2.155   0.091  25.200  0.00  0.00    +0.058 A 
ATOM     21  C   UNL     1      -6.760   2.053  26.616  0.00  0.00    +0.016 C 
ATOM     22  C   UNL     1      -3.410  -0.483  25.170  0.00  0.00    +0.015 A 
ATOM     25  C   UNL     1      -1.581  -2.028  25.254  0.00  0.00    +0.165 A 
ATOM     27  C   UNL     1       0.519  -3.347  25.359  0.00  0.00    +0.216 C 
ATOM     29  C   UNL     1       0.929  -4.799  25.394  0.00  0.00    +0.109 C 
ATOM     36  H   UNL     1      -1.446  -4.045  25.279  0.00  0.00    +0.157 HD
ENDROOT
BRANCH  15   2
ATOM      2  O   UNL     1      -6.630   4.899  25.773  0.00  0.00    -0.391 OA
ATOM     33  H   UNL     1      -6.839   5.239  26.658  0.00  0.00    +0.210 HD
ENDBRANCH  15   2
BRANCH  12  20
ATOM     20  C   UNL     1      -6.627   2.538  24.198  0.00  0.00    +0.165 C 
BRANCH  20   3
ATOM      3  O   UNL     1      -7.701   1.646  24.398  0.00  0.00    -0.394 OA
ATOM     34  H   UNL     1      -7.789   1.490  25.354  0.00  0.00    +0.209 HD
ENDBRANCH  20   3
ENDBRANCH  12  20
BRANCH  13  23
ATOM     23  C   UNL     1      -0.643   1.962  24.471  0.00  0.00    +0.106 C 
BRANCH  23  24
ATOM      4  O   UNL     1       0.170   4.219  24.786  0.00  0.00    -0.276 OA
ATOM      8  N   UNL     1       0.754   2.566  26.313  0.00  0.00    -0.308 N 
ATOM     24  C   UNL     1       0.122   3.056  25.178  0.00  0.00    +0.214 C 
ATOM     35  H   UNL     1       0.616   1.598  26.588  0.00  0.00    +0.149 HD
BRANCH   8  26
ATOM     26  C   UNL     1       1.561   3.388  27.184  0.00  0.00    +0.178 C 
BRANCH  26  28
ATOM      6  O   UNL     1       2.783   2.263  28.920  0.00  0.00    -0.466 OA
ATOM     28  C   UNL     1       1.597   2.784  28.554  0.00  0.00    +0.122 A 
ATOM     30  C   UNL     1       0.652   2.653  29.517  0.00  0.00    +0.046 A 
ATOM     31  C   UNL     1       1.300   1.991  30.587  0.00  0.00    +0.041 A 
ATOM     32  C   UNL     1       2.595   1.776  30.176  0.00  0.00    +0.195 A 
ENDBRANCH  26  28
ENDBRANCH   8  26
ENDBRANCH  23  24
ENDBRANCH  13  23
TORSDOF 7
ENDMDL
