MODEL 1
REMARK VINA RESULT:      -3.0      0.000      0.000
REMARK  Name = 40779327
REMARK  6 active torsions:
REMARK  status: ('A' for Active; 'I' for Inactive)
REMARK    1  A    between atoms: N_4  and  C_14
REMARK    2  A    between atoms: N_5  and  C_22
REMARK    3  A    between atoms: C_8  and  C_15
REMARK    4  A    between atoms: C_9  and  C_14
REMARK    5  A    between atoms: C_17  and  C_18
REMARK    6  A    between atoms: C_19  and  C_26
REMARK                            x       y       z     vdW  Elec       q    Type
REMARK                         _______ _______ _______ _____ _____    ______ ____
ROOT
ATOM      3  N   UNL     1      -4.185   3.625  24.298  0.00  0.00    -0.297 NA
ATOM      7  C   UNL     1      -2.035   3.442  25.756  0.00  0.00    +0.002 C 
ATOM      8  C   UNL     1      -1.675   3.372  24.246  0.00  0.00    +0.055 C 
ATOM      9  C   UNL     1      -4.372   2.595  25.353  0.00  0.00    +0.074 C 
ATOM     10  C   UNL     1      -3.044   2.326  26.094  0.00  0.00    +0.024 C 
ATOM     11  C   UNL     1      -2.757   4.789  25.979  0.00  0.00    +0.019 C 
ATOM     12  C   UNL     1      -3.012   3.283  23.455  0.00  0.00    +0.094 C 
ATOM     13  C   UNL     1      -3.910   4.918  24.970  0.00  0.00    +0.085 C 
ENDROOT
BRANCH   8  15
ATOM      5  N   UNL     1      -1.011   1.233  23.052  0.00  0.00    -0.270 N 
ATOM      6  N   UNL     1       0.024   0.428  22.759  0.00  0.00    -0.168 NA
ATOM     15  C   UNL     1      -0.668   2.324  23.796  0.00  0.00    +0.044 A 
ATOM     16  C   UNL     1       0.687   2.224  24.005  0.00  0.00    +0.056 A 
ATOM     19  C   UNL     1       1.058   1.039  23.344  0.00  0.00    +0.128 A 
ATOM     22  C   UNL     1      -2.330   0.888  22.575  0.00  0.00    +0.172 C 
BRANCH  19  26
ATOM      2  O   UNL     1       2.741  -0.807  23.532  0.00  0.00    -0.461 OA
ATOM     26  C   UNL     1       2.424   0.489  23.273  0.00  0.00    +0.155 A 
ATOM     27  C   UNL     1       3.550   1.204  22.938  0.00  0.00    +0.051 A 
ATOM     28  C   UNL     1       4.628   0.289  22.996  0.00  0.00    +0.042 A 
ATOM     29  C   UNL     1       4.085  -0.921  23.362  0.00  0.00    +0.196 A 
ENDBRANCH  19  26
ENDBRANCH   8  15
BRANCH   9  14
ATOM     14  C   UNL     1      -4.991   1.306  24.807  0.00  0.00    +0.123 C 
BRANCH  14   4
ATOM      1  O   UNL     1      -4.509  -1.259  23.536  0.00  0.00    -0.276 OA
ATOM      4  N   UNL     1      -4.367   0.156  25.381  0.00  0.00    -0.314 N 
ATOM     18  C   UNL     1      -4.175  -1.042  24.697  0.00  0.00    +0.216 C 
ATOM     30  H   UNL     1      -4.000   0.253  26.323  0.00  0.00    +0.149 HD
BRANCH  18  17
ATOM     17  C   UNL     1      -3.473  -2.078  25.527  0.00  0.00    +0.075 C 
ATOM     20  C   UNL     1      -2.674  -3.039  24.644  0.00  0.00    +0.013 C 
ATOM     21  C   UNL     1      -2.612  -1.403  26.597  0.00  0.00    +0.013 C 
ATOM     23  C   UNL     1      -1.370  -2.439  24.119  0.00  0.00    +0.001 C 
ATOM     24  C   UNL     1      -1.320  -0.810  26.040  0.00  0.00    +0.001 C 
ATOM     25  C   UNL     1      -0.529  -1.837  25.239  0.00  0.00    +0.000 C 
ENDBRANCH  18  17
ENDBRANCH  14   4
ENDBRANCH   9  14
TORSDOF 5
ENDMDL
MODEL 2
REMARK VINA RESULT:      -2.9      1.281      1.733
REMARK  Name = 40779327
REMARK  6 active torsions:
REMARK  status: ('A' for Active; 'I' for Inactive)
REMARK    1  A    between atoms: N_4  and  C_14
REMARK    2  A    between atoms: N_5  and  C_22
REMARK    3  A    between atoms: C_8  and  C_15
REMARK    4  A    between atoms: C_9  and  C_14
REMARK    5  A    between atoms: C_17  and  C_18
REMARK    6  A    between atoms: C_19  and  C_26
REMARK                            x       y       z     vdW  Elec       q    Type
REMARK                         _______ _______ _______ _____ _____    ______ ____
ROOT
ATOM      3  N   UNL     1      -4.932   3.361  24.136  0.00  0.00    -0.297 NA
ATOM      7  C   UNL     1      -3.320   3.502  26.176  0.00  0.00    +0.002 C 
ATOM      8  C   UNL     1      -2.531   3.666  24.848  0.00  0.00    +0.055 C 
ATOM      9  C   UNL     1      -5.166   2.211  25.049  0.00  0.00    +0.074 C 
ATOM     10  C   UNL     1      -4.087   2.163  26.152  0.00  0.00    +0.024 C 
ATOM     11  C   UNL     1      -4.375   4.628  26.210  0.00  0.00    +0.019 C 
ATOM     12  C   UNL     1      -3.518   3.370  23.683  0.00  0.00    +0.094 C 
ATOM     13  C   UNL     1      -5.182   4.606  24.900  0.00  0.00    +0.085 C 
ENDROOT
BRANCH   8  15
ATOM      5  N   UNL     1      -0.364   2.688  25.736  0.00  0.00    -0.270 N 
ATOM      6  N   UNL     1       0.743   2.008  25.393  0.00  0.00    -0.168 NA
ATOM     15  C   UNL     1      -1.217   2.915  24.695  0.00  0.00    +0.044 A 
ATOM     16  C   UNL     1      -0.625   2.343  23.595  0.00  0.00    +0.056 A 
ATOM     19  C   UNL     1       0.577   1.800  24.084  0.00  0.00    +0.128 A 
ATOM     22  C   UNL     1      -0.543   3.098  27.110  0.00  0.00    +0.172 C 
BRANCH  19  26
ATOM      2  O   UNL     1       2.904   1.365  23.265  0.00  0.00    -0.461 OA
ATOM     26  C   UNL     1       1.577   1.072  23.282  0.00  0.00    +0.155 A 
ATOM     27  C   UNL     1       1.306   0.008  22.454  0.00  0.00    +0.051 A 
ATOM     28  C   UNL     1       2.546  -0.377  21.890  0.00  0.00    +0.042 A 
ATOM     29  C   UNL     1       3.487   0.479  22.414  0.00  0.00    +0.196 A 
ENDBRANCH  19  26
ENDBRANCH   8  15
BRANCH   9  14
ATOM     14  C   UNL     1      -5.274   0.882  24.299  0.00  0.00    +0.123 C 
BRANCH  14   4
ATOM      1  O   UNL     1      -4.373  -1.652  23.206  0.00  0.00    -0.276 OA
ATOM      4  N   UNL     1      -4.547  -0.147  24.975  0.00  0.00    -0.314 N 
ATOM     18  C   UNL     1      -4.153  -1.339  24.372  0.00  0.00    +0.216 C 
ATOM     30  H   UNL     1      -4.263   0.043  25.931  0.00  0.00    +0.149 HD
BRANCH  18  17
ATOM     17  C   UNL     1      -3.382  -2.232  25.301  0.00  0.00    +0.075 C 
ATOM     20  C   UNL     1      -2.334  -3.044  24.538  0.00  0.00    +0.013 C 
ATOM     21  C   UNL     1      -2.780  -1.411  26.443  0.00  0.00    +0.013 C 
ATOM     23  C   UNL     1      -1.101  -2.228  24.147  0.00  0.00    +0.001 C 
ATOM     24  C   UNL     1      -1.554  -0.605  26.019  0.00  0.00    +0.001 C 
ATOM     25  C   UNL     1      -0.511  -1.484  25.338  0.00  0.00    +0.000 C 
ENDBRANCH  18  17
ENDBRANCH  14   4
ENDBRANCH   9  14
TORSDOF 5
ENDMDL
MODEL 3
REMARK VINA RESULT:      -0.6      1.574      4.402
REMARK  Name = 40779327
REMARK  6 active torsions:
REMARK  status: ('A' for Active; 'I' for Inactive)
REMARK    1  A    between atoms: N_4  and  C_14
REMARK    2  A    between atoms: N_5  and  C_22
REMARK    3  A    between atoms: C_8  and  C_15
REMARK    4  A    between atoms: C_9  and  C_14
REMARK    5  A    between atoms: C_17  and  C_18
REMARK    6  A    between atoms: C_19  and  C_26
REMARK                            x       y       z     vdW  Elec       q    Type
REMARK                         _______ _______ _______ _____ _____    ______ ____
ROOT
ATOM      3  N   UNL     1      -3.735  -0.480  25.749  0.00  0.00    -0.297 NA
ATOM      7  C   UNL     1      -2.563  -2.069  24.051  0.00  0.00    +0.002 C 
ATOM      8  C   UNL     1      -1.510  -1.350  24.938  0.00  0.00    +0.055 C 
ATOM      9  C   UNL     1      -4.256  -0.233  24.378  0.00  0.00    +0.074 C 
ATOM     10  C   UNL     1      -3.432  -1.016  23.333  0.00  0.00    +0.024 C 
ATOM     11  C   UNL     1      -3.493  -2.848  25.007  0.00  0.00    +0.019 C 
ATOM     12  C   UNL     1      -2.264  -0.279  25.777  0.00  0.00    +0.094 C 
ATOM     13  C   UNL     1      -4.016  -1.894  26.094  0.00  0.00    +0.085 C 
ENDROOT
BRANCH   8  15
ATOM      5  N   UNL     1      -0.318   0.194  23.314  0.00  0.00    -0.270 N 
ATOM      6  N   UNL     1       0.888   0.553  22.842  0.00  0.00    -0.168 NA
ATOM     15  C   UNL     1      -0.269  -0.785  24.264  0.00  0.00    +0.044 A 
ATOM     16  C   UNL     1       1.063  -1.087  24.423  0.00  0.00    +0.056 A 
ATOM     19  C   UNL     1       1.727  -0.232  23.523  0.00  0.00    +0.128 A 
ATOM     22  C   UNL     1      -1.500   0.845  22.800  0.00  0.00    +0.172 C 
BRANCH  19  26
ATOM      2  O   UNL     1       4.049  -1.160  23.664  0.00  0.00    -0.461 OA
ATOM     26  C   UNL     1       3.185  -0.170  23.318  0.00  0.00    +0.155 A 
ATOM     27  C   UNL     1       3.861   0.886  22.753  0.00  0.00    +0.051 A 
ATOM     28  C   UNL     1       5.229   0.522  22.753  0.00  0.00    +0.042 A 
ATOM     29  C   UNL     1       5.292  -0.731  23.318  0.00  0.00    +0.196 A 
ENDBRANCH  19  26
ENDBRANCH   8  15
BRANCH   9  14
ATOM     14  C   UNL     1      -4.334   1.258  24.043  0.00  0.00    +0.123 C 
BRANCH  14   4
ATOM      1  O   UNL     1      -4.843   3.908  25.113  0.00  0.00    -0.276 OA
ATOM      4  N   UNL     1      -3.493   2.021  24.911  0.00  0.00    -0.314 N 
ATOM     18  C   UNL     1      -3.814   3.292  25.379  0.00  0.00    +0.216 C 
ATOM     30  H   UNL     1      -2.642   1.573  25.239  0.00  0.00    +0.149 HD
BRANCH  18  17
ATOM     17  C   UNL     1      -2.767   3.857  26.294  0.00  0.00    +0.075 C 
ATOM     20  C   UNL     1      -1.464   3.063  26.194  0.00  0.00    +0.013 C 
ATOM     21  C   UNL     1      -2.573   5.350  26.015  0.00  0.00    +0.013 C 
ATOM     23  C   UNL     1      -0.660   3.370  24.930  0.00  0.00    +0.001 C 
ATOM     24  C   UNL     1      -1.772   5.622  24.744  0.00  0.00    +0.001 C 
ATOM     25  C   UNL     1      -0.449   4.867  24.741  0.00  0.00    +0.000 C 
ENDBRANCH  18  17
ENDBRANCH  14   4
ENDBRANCH   9  14
TORSDOF 5
ENDMDL
MODEL 4
REMARK VINA RESULT:       0.5      2.617      3.336
REMARK  Name = 40779327
REMARK  6 active torsions:
REMARK  status: ('A' for Active; 'I' for Inactive)
REMARK    1  A    between atoms: N_4  and  C_14
REMARK    2  A    between atoms: N_5  and  C_22
REMARK    3  A    between atoms: C_8  and  C_15
REMARK    4  A    between atoms: C_9  and  C_14
REMARK    5  A    between atoms: C_17  and  C_18
REMARK    6  A    between atoms: C_19  and  C_26
REMARK                            x       y       z     vdW  Elec       q    Type
REMARK                         _______ _______ _______ _____ _____    ______ ____
ROOT
ATOM      3  N   UNL     1      -4.198   3.201  23.349  0.00  0.00    -0.297 NA
ATOM      7  C   UNL     1      -4.046   3.271  25.948  0.00  0.00    +0.002 C 
ATOM      8  C   UNL     1      -2.724   3.782  25.313  0.00  0.00    +0.055 C 
ATOM      9  C   UNL     1      -4.620   1.894  23.919  0.00  0.00    +0.074 C 
ATOM     10  C   UNL     1      -4.342   1.846  25.437  0.00  0.00    +0.024 C 
ATOM     11  C   UNL     1      -5.175   4.184  25.422  0.00  0.00    +0.019 C 
ATOM     12  C   UNL     1      -2.814   3.522  23.782  0.00  0.00    +0.094 C 
ATOM     13  C   UNL     1      -5.104   4.245  23.887  0.00  0.00    +0.085 C 
ENDROOT
BRANCH   8  15
ATOM      5  N   UNL     1      -0.443   2.679  25.163  0.00  0.00    -0.270 N 
ATOM      6  N   UNL     1       0.642   2.326  25.872  0.00  0.00    -0.168 NA
ATOM     15  C   UNL     1      -1.409   3.296  25.904  0.00  0.00    +0.044 A 
ATOM     16  C   UNL     1      -0.920   3.350  27.187  0.00  0.00    +0.056 A 
ATOM     19  C   UNL     1       0.345   2.738  27.108  0.00  0.00    +0.128 A 
ATOM     22  C   UNL     1      -0.487   2.388  23.749  0.00  0.00    +0.172 C 
BRANCH  19  26
ATOM      2  O   UNL     1       2.624   2.719  28.147  0.00  0.00    -0.461 OA
ATOM     26  C   UNL     1       1.278   2.550  28.233  0.00  0.00    +0.155 A 
ATOM     27  C   UNL     1       0.917   2.183  29.508  0.00  0.00    +0.051 A 
ATOM     28  C   UNL     1       2.119   2.121  30.254  0.00  0.00    +0.042 A 
ATOM     29  C   UNL     1       3.129   2.455  29.381  0.00  0.00    +0.196 A 
ENDBRANCH  19  26
ENDBRANCH   8  15
BRANCH   9  14
ATOM     14  C   UNL     1      -3.990   0.708  23.185  0.00  0.00    +0.123 C 
BRANCH  14   4
ATOM      1  O   UNL     1      -4.794  -2.066  23.475  0.00  0.00    -0.276 OA
ATOM      4  N   UNL     1      -3.479  -0.253  24.112  0.00  0.00    -0.314 N 
ATOM     18  C   UNL     1      -3.924  -1.570  24.185  0.00  0.00    +0.216 C 
ATOM     30  H   UNL     1      -2.710   0.044  24.707  0.00  0.00    +0.149 HD
BRANCH  18  17
ATOM     17  C   UNL     1      -3.203  -2.371  25.230  0.00  0.00    +0.075 C 
ATOM     20  C   UNL     1      -2.016  -3.121  24.624  0.00  0.00    +0.013 C 
ATOM     21  C   UNL     1      -2.799  -1.469  26.399  0.00  0.00    +0.013 C 
ATOM     23  C   UNL     1      -0.810  -2.225  24.343  0.00  0.00    +0.001 C 
ATOM     24  C   UNL     1      -1.595  -0.584  26.084  0.00  0.00    +0.001 C 
ATOM     25  C   UNL     1      -0.419  -1.399  25.562  0.00  0.00    +0.000 C 
ENDBRANCH  18  17
ENDBRANCH  14   4
ENDBRANCH   9  14
TORSDOF 5
ENDMDL
