MODEL 1
REMARK VINA RESULT:      -1.5      0.000      0.000
REMARK  Name = 38030964
REMARK  12 active torsions:
REMARK  status: ('A' for Active; 'I' for Inactive)
REMARK    1  A    between atoms: N_4  and  C_15
REMARK    2  A    between atoms: N_4  and  C_21
REMARK    3  A    between atoms: N_7  and  C_30
REMARK    4  A    between atoms: C_8  and  C_12
REMARK    5  A    between atoms: C_9  and  C_15
REMARK    6  A    between atoms: C_11  and  C_16
REMARK    7  A    between atoms: C_12  and  C_17
REMARK    8  A    between atoms: C_12  and  C_18
REMARK    9  A    between atoms: C_13  and  C_19
REMARK   10  A    between atoms: C_16  and  C_20
REMARK   11  A    between atoms: C_21  and  C_23
REMARK   12  A    between atoms: C_22  and  C_24
REMARK                            x       y       z     vdW  Elec       q    Type
REMARK                         _______ _______ _______ _____ _____    ______ ____
ROOT
ATOM      8  C   UNL     1      -3.574   2.272  24.078  0.00  0.00    +0.000 C 
ATOM      9  C   UNL     1      -4.377   3.493  24.590  0.00  0.00    +0.029 C 
ATOM     10  C   UNL     1      -4.503   1.063  23.886  0.00  0.00    +0.012 C 
ATOM     11  C   UNL     1      -5.219   0.664  25.191  0.00  0.00    +0.024 C 
ATOM     13  C   UNL     1      -5.810   1.867  25.897  0.00  0.00    -0.073 C 
ATOM     14  C   UNL     1      -5.432   3.125  25.606  0.00  0.00    -0.023 C 
ATOM     19  C   UNL     1      -6.883   1.594  26.915  0.00  0.00    +0.039 C 
ENDROOT
BRANCH   8  12
ATOM     12  C   UNL     1      -2.846   2.580  22.766  0.00  0.00    -0.013 C 
ATOM     17  C   UNL     1      -2.476   1.285  22.046  0.00  0.00    +0.007 C 
ATOM     18  C   UNL     1      -3.707   3.468  21.874  0.00  0.00    +0.007 C 
ENDBRANCH   8  12
BRANCH   9  15
ATOM     15  C   UNL     1      -3.447   4.558  25.183  0.00  0.00    +0.089 C 
BRANCH  15   4
ATOM      4  N   UNL     1      -2.823   4.071  26.402  0.00  0.00    -0.305 NA
ATOM     31  H   UNL     1      -2.711   4.835  27.067  0.00  0.00    +0.123 HD
BRANCH   4  21
ATOM     21  C   UNL     1      -1.518   3.483  26.124  0.00  0.00    +0.170 C 
BRANCH  21  23
ATOM     23  C   UNL     1      -0.805   4.252  25.099  0.00  0.00    -0.090 C 
ATOM     27  C   UNL     1      -0.228   4.883  24.256  0.00  0.00    +0.005 C 
ENDBRANCH  21  23
ENDBRANCH   4  21
ENDBRANCH  15   4
ENDBRANCH   9  15
BRANCH  11  16
ATOM     16  C   UNL     1      -4.279  -0.111  26.121  0.00  0.00    +0.105 C 
BRANCH  16  20
ATOM      1  O   UNL     1      -2.061  -0.060  25.104  0.00  0.00    -0.420 OA
ATOM      5  N   UNL     1      -3.133  -2.009  24.865  0.00  0.00    -0.112 NA
ATOM      6  N   UNL     1      -1.901  -2.121  24.248  0.00  0.00    -0.107 NA
ATOM     20  C   UNL     1      -3.182  -0.790  25.351  0.00  0.00    +0.218 A 
ATOM     22  C   UNL     1      -1.311  -0.961  24.413  0.00  0.00    +0.248 A 
BRANCH  22  24
ATOM     24  C   UNL     1      -0.020  -0.503  23.983  0.00  0.00    +0.039 A 
ATOM     25  C   UNL     1       0.279   0.859  24.004  0.00  0.00    +0.015 A 
ATOM     26  C   UNL     1       0.934  -1.421  23.544  0.00  0.00    +0.015 A 
ATOM     28  C   UNL     1       1.534   1.302  23.585  0.00  0.00    +0.033 A 
ATOM     29  C   UNL     1       2.188  -0.977  23.123  0.00  0.00    +0.033 A 
ATOM     30  C   UNL     1       2.487   0.385  23.145  0.00  0.00    +0.126 A 
BRANCH  30   7
ATOM      2  O   UNL     1       3.909   1.219  21.532  0.00  0.00    -0.126 OA
ATOM      3  O   UNL     1       4.712   0.844  23.539  0.00  0.00    -0.126 OA
ATOM      7  N   UNL     1       3.765   0.838  22.718  0.00  0.00    +0.056 N 
ENDBRANCH  30   7
ENDBRANCH  22  24
ENDBRANCH  16  20
ENDBRANCH  11  16
TORSDOF 9
ENDMDL
MODEL 2
REMARK VINA RESULT:      -0.2     14.937     16.633
REMARK  Name = 38030964
REMARK  12 active torsions:
REMARK  status: ('A' for Active; 'I' for Inactive)
REMARK    1  A    between atoms: N_4  and  C_15
REMARK    2  A    between atoms: N_4  and  C_21
REMARK    3  A    between atoms: N_7  and  C_30
REMARK    4  A    between atoms: C_8  and  C_12
REMARK    5  A    between atoms: C_9  and  C_15
REMARK    6  A    between atoms: C_11  and  C_16
REMARK    7  A    between atoms: C_12  and  C_17
REMARK    8  A    between atoms: C_12  and  C_18
REMARK    9  A    between atoms: C_13  and  C_19
REMARK   10  A    between atoms: C_16  and  C_20
REMARK   11  A    between atoms: C_21  and  C_23
REMARK   12  A    between atoms: C_22  and  C_24
REMARK                            x       y       z     vdW  Elec       q    Type
REMARK                         _______ _______ _______ _____ _____    ______ ____
ROOT
ATOM      8  C   UNL     1      -8.605  -9.878  11.600  0.00  0.00    +0.000 C 
ATOM      9  C   UNL     1      -9.090 -10.145  13.047  0.00  0.00    +0.029 C 
ATOM     10  C   UNL     1      -7.408 -10.781  11.262  0.00  0.00    +0.012 C 
ATOM     11  C   UNL     1      -6.223 -10.563  12.223  0.00  0.00    +0.024 C 
ATOM     13  C   UNL     1      -6.669 -10.545  13.670  0.00  0.00    -0.073 C 
ATOM     14  C   UNL     1      -7.956 -10.371  14.020  0.00  0.00    -0.023 C 
ATOM     19  C   UNL     1      -5.607 -10.778  14.708  0.00  0.00    +0.039 C 
ENDROOT
BRANCH   8  12
ATOM     12  C   UNL     1      -9.723 -10.095  10.576  0.00  0.00    -0.013 C 
ATOM     17  C   UNL     1     -10.483  -8.793  10.336  0.00  0.00    +0.007 C 
ATOM     18  C   UNL     1      -9.153 -10.637   9.271  0.00  0.00    +0.007 C 
ENDBRANCH   8  12
BRANCH   9  15
ATOM     15  C   UNL     1      -9.977  -9.001  13.553  0.00  0.00    +0.089 C 
BRANCH  15   4
ATOM      4  N   UNL     1     -10.640  -9.377  14.790  0.00  0.00    -0.305 NA
ATOM     31  H   UNL     1     -11.633  -9.537  14.621  0.00  0.00    +0.123 HD
BRANCH   4  21
ATOM     21  C   UNL     1     -10.489  -8.338  15.802  0.00  0.00    +0.170 C 
BRANCH  21  23
ATOM     23  C   UNL     1      -9.346  -8.620  16.676  0.00  0.00    -0.090 C 
ATOM     27  C   UNL     1      -8.410  -8.859  17.389  0.00  0.00    +0.005 C 
ENDBRANCH  21  23
ENDBRANCH   4  21
ENDBRANCH  15   4
ENDBRANCH   9  15
BRANCH  11  16
ATOM     16  C   UNL     1      -5.454  -9.285  11.869  0.00  0.00    +0.105 C 
BRANCH  16  20
ATOM      1  O   UNL     1      -3.074  -8.753  11.777  0.00  0.00    -0.420 OA
ATOM      5  N   UNL     1      -3.651 -10.577  10.618  0.00  0.00    -0.112 NA
ATOM      6  N   UNL     1      -2.287 -10.396  10.480  0.00  0.00    -0.107 NA
ATOM     20  C   UNL     1      -4.068  -9.596  11.383  0.00  0.00    +0.218 A 
ATOM     22  C   UNL     1      -1.996  -9.321  11.172  0.00  0.00    +0.248 A 
BRANCH  22  24
ATOM     24  C   UNL     1      -0.738  -8.663  11.386  0.00  0.00    +0.039 A 
ATOM     25  C   UNL     1       0.387  -9.060  10.664  0.00  0.00    +0.015 A 
ATOM     26  C   UNL     1      -0.642  -7.629  12.316  0.00  0.00    +0.015 A 
ATOM     28  C   UNL     1       1.610  -8.422  10.874  0.00  0.00    +0.033 A 
ATOM     29  C   UNL     1       0.581  -6.991  12.526  0.00  0.00    +0.033 A 
ATOM     30  C   UNL     1       1.707  -7.388  11.804  0.00  0.00    +0.126 A 
BRANCH  30   7
ATOM      2  O   UNL     1       2.956  -5.530  12.354  0.00  0.00    -0.126 OA
ATOM      3  O   UNL     1       4.012  -7.390  11.861  0.00  0.00    -0.126 OA
ATOM      7  N   UNL     1       2.952  -6.738  12.017  0.00  0.00    +0.056 N 
ENDBRANCH  30   7
ENDBRANCH  22  24
ENDBRANCH  16  20
ENDBRANCH  11  16
TORSDOF 9
ENDMDL
MODEL 3
REMARK VINA RESULT:       1.2      1.985      3.088
REMARK  Name = 38030964
REMARK  12 active torsions:
REMARK  status: ('A' for Active; 'I' for Inactive)
REMARK    1  A    between atoms: N_4  and  C_15
REMARK    2  A    between atoms: N_4  and  C_21
REMARK    3  A    between atoms: N_7  and  C_30
REMARK    4  A    between atoms: C_8  and  C_12
REMARK    5  A    between atoms: C_9  and  C_15
REMARK    6  A    between atoms: C_11  and  C_16
REMARK    7  A    between atoms: C_12  and  C_17
REMARK    8  A    between atoms: C_12  and  C_18
REMARK    9  A    between atoms: C_13  and  C_19
REMARK   10  A    between atoms: C_16  and  C_20
REMARK   11  A    between atoms: C_21  and  C_23
REMARK   12  A    between atoms: C_22  and  C_24
REMARK                            x       y       z     vdW  Elec       q    Type
REMARK                         _______ _______ _______ _____ _____    ______ ____
ROOT
ATOM      8  C   UNL     1      -1.828   3.853  24.780  0.00  0.00    +0.000 C 
ATOM      9  C   UNL     1      -2.027   3.375  26.240  0.00  0.00    +0.029 C 
ATOM     10  C   UNL     1      -3.082   4.589  24.283  0.00  0.00    +0.012 C 
ATOM     11  C   UNL     1      -4.340   3.701  24.339  0.00  0.00    +0.024 C 
ATOM     13  C   UNL     1      -4.460   2.980  25.666  0.00  0.00    -0.073 C 
ATOM     14  C   UNL     1      -3.420   2.857  26.510  0.00  0.00    -0.023 C 
ATOM     19  C   UNL     1      -5.819   2.445  26.025  0.00  0.00    +0.039 C 
ENDROOT
BRANCH   8  12
ATOM     12  C   UNL     1      -0.604   4.763  24.641  0.00  0.00    -0.013 C 
ATOM     17  C   UNL     1      -0.006   4.640  23.242  0.00  0.00    +0.007 C 
ATOM     18  C   UNL     1      -0.978   6.210  24.945  0.00  0.00    +0.007 C 
ENDBRANCH   8  12
BRANCH   9  15
ATOM     15  C   UNL     1      -1.000   2.300  26.615  0.00  0.00    +0.089 C 
BRANCH  15   4
ATOM      4  N   UNL     1       0.222   2.909  27.110  0.00  0.00    -0.305 NA
ATOM     31  H   UNL     1       0.988   2.736  26.460  0.00  0.00    +0.123 HD
BRANCH   4  21
ATOM     21  C   UNL     1       0.579   2.379  28.421  0.00  0.00    +0.170 C 
BRANCH  21  23
ATOM     23  C   UNL     1       1.949   2.753  28.782  0.00  0.00    -0.090 C 
ATOM     27  C   UNL     1       3.074   3.060  29.071  0.00  0.00    +0.005 C 
ENDBRANCH  21  23
ENDBRANCH   4  21
ENDBRANCH  15   4
ENDBRANCH   9  15
BRANCH  11  16
ATOM     16  C   UNL     1      -4.368   2.709  23.171  0.00  0.00    +0.105 C 
BRANCH  16  20
ATOM      1  O   UNL     1      -2.100   1.809  23.146  0.00  0.00    -0.420 OA
ATOM      5  N   UNL     1      -3.659   0.346  23.806  0.00  0.00    -0.112 NA
ATOM      6  N   UNL     1      -2.433  -0.292  23.840  0.00  0.00    -0.107 NA
ATOM     20  C   UNL     1      -3.416   1.569  23.396  0.00  0.00    +0.218 A 
ATOM     22  C   UNL     1      -1.554   0.600  23.447  0.00  0.00    +0.248 A 
BRANCH  22  24
ATOM     24  C   UNL     1      -0.131   0.497  23.289  0.00  0.00    +0.039 A 
ATOM     25  C   UNL     1       0.409  -0.492  22.467  0.00  0.00    +0.015 A 
ATOM     26  C   UNL     1       0.711   1.385  23.958  0.00  0.00    +0.015 A 
ATOM     28  C   UNL     1       1.792  -0.592  22.315  0.00  0.00    +0.033 A 
ATOM     29  C   UNL     1       2.094   1.285  23.807  0.00  0.00    +0.033 A 
ATOM     30  C   UNL     1       2.634   0.296  22.985  0.00  0.00    +0.126 A 
BRANCH  30   7
ATOM      2  O   UNL     1       4.676  -0.613  23.552  0.00  0.00    -0.126 OA
ATOM      3  O   UNL     1       4.613   0.911  21.973  0.00  0.00    -0.126 OA
ATOM      7  N   UNL     1       4.043   0.193  22.829  0.00  0.00    +0.056 N 
ENDBRANCH  30   7
ENDBRANCH  22  24
ENDBRANCH  16  20
ENDBRANCH  11  16
TORSDOF 9
ENDMDL
MODEL 4
REMARK VINA RESULT:       1.2      1.577      3.252
REMARK  Name = 38030964
REMARK  12 active torsions:
REMARK  status: ('A' for Active; 'I' for Inactive)
REMARK    1  A    between atoms: N_4  and  C_15
REMARK    2  A    between atoms: N_4  and  C_21
REMARK    3  A    between atoms: N_7  and  C_30
REMARK    4  A    between atoms: C_8  and  C_12
REMARK    5  A    between atoms: C_9  and  C_15
REMARK    6  A    between atoms: C_11  and  C_16
REMARK    7  A    between atoms: C_12  and  C_17
REMARK    8  A    between atoms: C_12  and  C_18
REMARK    9  A    between atoms: C_13  and  C_19
REMARK   10  A    between atoms: C_16  and  C_20
REMARK   11  A    between atoms: C_21  and  C_23
REMARK   12  A    between atoms: C_22  and  C_24
REMARK                            x       y       z     vdW  Elec       q    Type
REMARK                         _______ _______ _______ _____ _____    ______ ____
ROOT
ATOM      8  C   UNL     1      -1.976   3.907  24.782  0.00  0.00    +0.000 C 
ATOM      9  C   UNL     1      -2.296   3.139  26.090  0.00  0.00    +0.029 C 
ATOM     10  C   UNL     1      -3.256   4.527  24.200  0.00  0.00    +0.012 C 
ATOM     11  C   UNL     1      -4.331   3.466  23.893  0.00  0.00    +0.024 C 
ATOM     13  C   UNL     1      -4.511   2.499  25.045  0.00  0.00    -0.073 C 
ATOM     14  C   UNL     1      -3.598   2.377  26.026  0.00  0.00    -0.023 C 
ATOM     19  C   UNL     1      -5.790   1.709  25.071  0.00  0.00    +0.039 C 
ENDROOT
BRANCH   8  12
ATOM     12  C   UNL     1      -0.927   4.999  25.007  0.00  0.00    -0.013 C 
ATOM     17  C   UNL     1       0.147   4.936  23.924  0.00  0.00    +0.007 C 
ATOM     18  C   UNL     1      -1.586   6.374  25.036  0.00  0.00    +0.007 C 
ENDBRANCH   8  12
BRANCH   9  15
ATOM     15  C   UNL     1      -1.159   2.178  26.459  0.00  0.00    +0.089 C 
BRANCH  15   4
ATOM      4  N   UNL     1      -1.246   0.958  25.677  0.00  0.00    -0.305 NA
ATOM     31  H   UNL     1      -2.092   0.967  25.106  0.00  0.00    +0.123 HD
BRANCH   4  21
ATOM     21  C   UNL     1      -1.265  -0.218  26.539  0.00  0.00    +0.170 C 
BRANCH  21  23
ATOM     23  C   UNL     1      -2.427  -1.062  26.249  0.00  0.00    -0.090 C 
ATOM     27  C   UNL     1      -3.382  -1.752  26.017  0.00  0.00    +0.005 C 
ENDBRANCH  21  23
ENDBRANCH   4  21
ENDBRANCH  15   4
ENDBRANCH   9  15
BRANCH  11  16
ATOM     16  C   UNL     1      -4.012   2.718  22.593  0.00  0.00    +0.105 C 
BRANCH  16  20
ATOM      1  O   UNL     1      -1.722   1.891  22.754  0.00  0.00    -0.420 OA
ATOM      5  N   UNL     1      -3.286   0.331  23.108  0.00  0.00    -0.112 NA
ATOM      6  N   UNL     1      -2.048  -0.271  23.230  0.00  0.00    -0.107 NA
ATOM     20  C   UNL     1      -3.048   1.591  22.831  0.00  0.00    +0.218 A 
ATOM     22  C   UNL     1      -1.166   0.676  23.015  0.00  0.00    +0.248 A 
BRANCH  22  24
ATOM     24  C   UNL     1       0.268   0.630  23.012  0.00  0.00    +0.039 A 
ATOM     25  C   UNL     1       0.998   1.588  23.716  0.00  0.00    +0.015 A 
ATOM     26  C   UNL     1       0.932  -0.372  22.306  0.00  0.00    +0.015 A 
ATOM     28  C   UNL     1       2.392   1.543  23.712  0.00  0.00    +0.033 A 
ATOM     29  C   UNL     1       2.327  -0.417  22.301  0.00  0.00    +0.033 A 
ATOM     30  C   UNL     1       3.056   0.542  23.004  0.00  0.00    +0.126 A 
BRANCH  30   7
ATOM      2  O   UNL     1       5.097   0.821  24.042  0.00  0.00    -0.126 OA
ATOM      3  O   UNL     1       5.070   0.134  21.957  0.00  0.00    -0.126 OA
ATOM      7  N   UNL     1       4.476   0.497  23.001  0.00  0.00    +0.056 N 
ENDBRANCH  30   7
ENDBRANCH  22  24
ENDBRANCH  16  20
ENDBRANCH  11  16
TORSDOF 9
ENDMDL
MODEL 5
REMARK VINA RESULT:       1.7      1.925      3.959
REMARK  Name = 38030964
REMARK  12 active torsions:
REMARK  status: ('A' for Active; 'I' for Inactive)
REMARK    1  A    between atoms: N_4  and  C_15
REMARK    2  A    between atoms: N_4  and  C_21
REMARK    3  A    between atoms: N_7  and  C_30
REMARK    4  A    between atoms: C_8  and  C_12
REMARK    5  A    between atoms: C_9  and  C_15
REMARK    6  A    between atoms: C_11  and  C_16
REMARK    7  A    between atoms: C_12  and  C_17
REMARK    8  A    between atoms: C_12  and  C_18
REMARK    9  A    between atoms: C_13  and  C_19
REMARK   10  A    between atoms: C_16  and  C_20
REMARK   11  A    between atoms: C_21  and  C_23
REMARK   12  A    between atoms: C_22  and  C_24
REMARK                            x       y       z     vdW  Elec       q    Type
REMARK                         _______ _______ _______ _____ _____    ______ ____
ROOT
ATOM      8  C   UNL     1      -2.611   1.655  25.685  0.00  0.00    +0.000 C 
ATOM      9  C   UNL     1      -3.990   1.089  26.108  0.00  0.00    +0.029 C 
ATOM     10  C   UNL     1      -2.518   3.150  26.031  0.00  0.00    +0.012 C 
ATOM     11  C   UNL     1      -3.619   3.978  25.340  0.00  0.00    +0.024 C 
ATOM     13  C   UNL     1      -4.982   3.333  25.486  0.00  0.00    -0.073 C 
ATOM     14  C   UNL     1      -5.129   2.045  25.843  0.00  0.00    -0.023 C 
ATOM     19  C   UNL     1      -6.177   4.217  25.256  0.00  0.00    +0.039 C 
ENDROOT
BRANCH   8  12
ATOM     12  C   UNL     1      -1.457   0.897  26.349  0.00  0.00    -0.013 C 
ATOM     17  C   UNL     1      -1.107  -0.350  25.542  0.00  0.00    +0.007 C 
ATOM     18  C   UNL     1      -0.241   1.804  26.499  0.00  0.00    +0.007 C 
ENDBRANCH   8  12
BRANCH   9  15
ATOM     15  C   UNL     1      -4.274  -0.249  25.415  0.00  0.00    +0.089 C 
BRANCH  15   4
ATOM      4  N   UNL     1      -4.277  -0.087  23.971  0.00  0.00    -0.305 NA
ATOM     31  H   UNL     1      -5.156   0.331  23.667  0.00  0.00    +0.123 HD
BRANCH   4  21
ATOM     21  C   UNL     1      -4.101  -1.370  23.299  0.00  0.00    +0.170 C 
BRANCH  21  23
ATOM     23  C   UNL     1      -3.676  -2.403  24.248  0.00  0.00    -0.090 C 
ATOM     27  C   UNL     1      -3.327  -3.245  25.029  0.00  0.00    +0.005 C 
ENDBRANCH  21  23
ENDBRANCH   4  21
ENDBRANCH  15   4
ENDBRANCH   9  15
BRANCH  11  16
ATOM     16  C   UNL     1      -3.282   4.222  23.864  0.00  0.00    +0.105 C 
BRANCH  16  20
ATOM      1  O   UNL     1      -1.330   2.791  23.547  0.00  0.00    -0.420 OA
ATOM      5  N   UNL     1      -3.150   2.121  22.430  0.00  0.00    -0.112 NA
ATOM      6  N   UNL     1      -2.130   1.227  22.161  0.00  0.00    -0.107 NA
ATOM     20  C   UNL     1      -2.638   3.016  23.242  0.00  0.00    +0.218 A 
ATOM     22  C   UNL     1      -1.089   1.657  22.833  0.00  0.00    +0.248 A 
BRANCH  22  24
ATOM     24  C   UNL     1       0.241   1.127  22.930  0.00  0.00    +0.039 A 
ATOM     25  C   UNL     1       1.254   1.889  23.511  0.00  0.00    +0.015 A 
ATOM     26  C   UNL     1       0.520  -0.149  22.442  0.00  0.00    +0.015 A 
ATOM     28  C   UNL     1       2.548   1.373  23.604  0.00  0.00    +0.033 A 
ATOM     29  C   UNL     1       1.813  -0.665  22.534  0.00  0.00    +0.033 A 
ATOM     30  C   UNL     1       2.827   0.097  23.115  0.00  0.00    +0.126 A 
BRANCH  30   7
ATOM      2  O   UNL     1       4.309  -1.567  23.707  0.00  0.00    -0.126 OA
ATOM      3  O   UNL     1       5.104   0.264  22.794  0.00  0.00    -0.126 OA
ATOM      7  N   UNL     1       4.144  -0.427  23.210  0.00  0.00    +0.056 N 
ENDBRANCH  30   7
ENDBRANCH  22  24
ENDBRANCH  16  20
ENDBRANCH  11  16
TORSDOF 9
ENDMDL
MODEL 6
REMARK VINA RESULT:       2.3      2.144      3.215
REMARK  Name = 38030964
REMARK  12 active torsions:
REMARK  status: ('A' for Active; 'I' for Inactive)
REMARK    1  A    between atoms: N_4  and  C_15
REMARK    2  A    between atoms: N_4  and  C_21
REMARK    3  A    between atoms: N_7  and  C_30
REMARK    4  A    between atoms: C_8  and  C_12
REMARK    5  A    between atoms: C_9  and  C_15
REMARK    6  A    between atoms: C_11  and  C_16
REMARK    7  A    between atoms: C_12  and  C_17
REMARK    8  A    between atoms: C_12  and  C_18
REMARK    9  A    between atoms: C_13  and  C_19
REMARK   10  A    between atoms: C_16  and  C_20
REMARK   11  A    between atoms: C_21  and  C_23
REMARK   12  A    between atoms: C_22  and  C_24
REMARK                            x       y       z     vdW  Elec       q    Type
REMARK                         _______ _______ _______ _____ _____    ______ ____
ROOT
ATOM      8  C   UNL     1      -3.513   2.053  25.235  0.00  0.00    +0.000 C 
ATOM      9  C   UNL     1      -2.401   1.630  26.228  0.00  0.00    +0.029 C 
ATOM     10  C   UNL     1      -4.672   1.045  25.269  0.00  0.00    +0.012 C 
ATOM     11  C   UNL     1      -4.215  -0.382  24.911  0.00  0.00    +0.024 C 
ATOM     13  C   UNL     1      -2.957  -0.774  25.658  0.00  0.00    -0.073 C 
ATOM     14  C   UNL     1      -2.166   0.137  26.252  0.00  0.00    -0.023 C 
ATOM     19  C   UNL     1      -2.652  -2.244  25.747  0.00  0.00    +0.039 C 
ENDROOT
BRANCH   8  12
ATOM     12  C   UNL     1      -4.039   3.459  25.537  0.00  0.00    -0.013 C 
ATOM     17  C   UNL     1      -3.527   4.453  24.498  0.00  0.00    +0.007 C 
ATOM     18  C   UNL     1      -5.563   3.460  25.582  0.00  0.00    +0.007 C 
ENDBRANCH   8  12
BRANCH   9  15
ATOM     15  C   UNL     1      -1.082   2.350  25.921  0.00  0.00    +0.089 C 
BRANCH  15   4
ATOM      4  N   UNL     1       0.006   1.775  26.694  0.00  0.00    -0.305 NA
ATOM     31  H   UNL     1      -0.366   1.250  27.486  0.00  0.00    +0.123 HD
BRANCH   4  21
ATOM     21  C   UNL     1       0.903   2.814  27.189  0.00  0.00    +0.170 C 
BRANCH  21  23
ATOM     23  C   UNL     1       1.290   2.553  28.578  0.00  0.00    -0.090 C 
ATOM     27  C   UNL     1       1.609   2.332  29.714  0.00  0.00    +0.005 C 
ENDBRANCH  21  23
ENDBRANCH   4  21
ENDBRANCH  15   4
ENDBRANCH   9  15
BRANCH  11  16
ATOM     16  C   UNL     1      -4.027  -0.538  23.398  0.00  0.00    +0.105 C 
BRANCH  16  20
ATOM      1  O   UNL     1      -1.633  -0.100  23.215  0.00  0.00    -0.420 OA
ATOM      5  N   UNL     1      -2.921   1.408  22.181  0.00  0.00    -0.112 NA
ATOM      6  N   UNL     1      -1.601   1.776  21.997  0.00  0.00    -0.107 NA
ATOM     20  C   UNL     1      -2.891   0.308  22.897  0.00  0.00    +0.218 A 
ATOM     22  C   UNL     1      -0.886   0.868  22.618  0.00  0.00    +0.248 A 
BRANCH  22  24
ATOM     24  C   UNL     1       0.536   0.741  22.761  0.00  0.00    +0.039 A 
ATOM     25  C   UNL     1       1.247   1.676  23.513  0.00  0.00    +0.015 A 
ATOM     26  C   UNL     1       1.207  -0.317  22.147  0.00  0.00    +0.015 A 
ATOM     28  C   UNL     1       2.630   1.552  23.650  0.00  0.00    +0.033 A 
ATOM     29  C   UNL     1       2.590  -0.440  22.283  0.00  0.00    +0.033 A 
ATOM     30  C   UNL     1       3.301   0.495  23.035  0.00  0.00    +0.126 A 
BRANCH  30   7
ATOM      2  O   UNL     1       5.242   0.696  24.264  0.00  0.00    -0.126 OA
ATOM      3  O   UNL     1       5.380  -0.063  22.209  0.00  0.00    -0.126 OA
ATOM      7  N   UNL     1       4.709   0.370  23.176  0.00  0.00    +0.056 N 
ENDBRANCH  30   7
ENDBRANCH  22  24
ENDBRANCH  16  20
ENDBRANCH  11  16
TORSDOF 9
ENDMDL
