MODEL 1
REMARK VINA RESULT:      -6.9      0.000      0.000
REMARK  Name = 75368547
REMARK  5 active torsions:
REMARK  status: ('A' for Active; 'I' for Inactive)
REMARK    1  A    between atoms: N_3  and  C_10
REMARK    2  A    between atoms: C_10  and  C_12
REMARK    3  A    between atoms: C_12  and  C_13
REMARK    4  A    between atoms: C_13  and  C_14
REMARK    5  A    between atoms: C_13  and  C_15
REMARK                            x       y       z     vdW  Elec       q    Type
REMARK                         _______ _______ _______ _____ _____    ______ ____
ROOT
ATOM      1  O   UNL     1      -1.704   5.615  25.359  0.00  0.00    -0.253 OA
ATOM      2  N   UNL     1      -2.366   3.490  24.599  0.00  0.00    -0.279 N 
ATOM      3  N   UNL     1      -3.852   1.109  24.409  0.00  0.00    -0.299 NA
ATOM      4  N   UNL     1      -0.184   3.870  24.971  0.00  0.00    -0.297 N 
ATOM      5  C   UNL     1      -1.704   2.282  24.151  0.00  0.00    +0.109 C 
ATOM      6  C   UNL     1      -2.408   1.049  24.715  0.00  0.00    +0.108 C 
ATOM      7  C   UNL     1      -3.806   3.595  24.481  0.00  0.00    +0.125 C 
ATOM      8  C   UNL     1      -4.467   2.315  25.001  0.00  0.00    +0.103 C 
ATOM      9  C   UNL     1      -0.262   2.470  24.618  0.00  0.00    +0.129 C 
ATOM     11  C   UNL     1      -1.457   4.467  25.014  0.00  0.00    +0.303 C 
ATOM     16  H   UNL     1       0.672   4.345  25.239  0.00  0.00    +0.150 HD
ENDROOT
BRANCH   3  10
ATOM     10  C   UNL     1      -4.526  -0.095  24.892  0.00  0.00    +0.085 C 
BRANCH  10  12
ATOM     12  C   UNL     1      -3.539  -0.984  25.652  0.00  0.00    +0.018 C 
BRANCH  12  13
ATOM     13  C   UNL     1      -3.305  -2.349  24.979  0.00  0.00    -0.016 C 
ATOM     14  C   UNL     1      -1.856  -2.535  24.524  0.00  0.00    +0.007 C 
ATOM     15  C   UNL     1      -4.246  -2.506  23.782  0.00  0.00    +0.007 C 
ENDBRANCH  12  13
ENDBRANCH  10  12
ENDBRANCH   3  10
TORSDOF 3
ENDMDL
MODEL 2
REMARK VINA RESULT:      -5.7      2.654      4.264
REMARK  Name = 75368547
REMARK  5 active torsions:
REMARK  status: ('A' for Active; 'I' for Inactive)
REMARK    1  A    between atoms: N_3  and  C_10
REMARK    2  A    between atoms: C_10  and  C_12
REMARK    3  A    between atoms: C_12  and  C_13
REMARK    4  A    between atoms: C_13  and  C_14
REMARK    5  A    between atoms: C_13  and  C_15
REMARK                            x       y       z     vdW  Elec       q    Type
REMARK                         _______ _______ _______ _____ _____    ______ ____
ROOT
ATOM      1  O   UNL     1       1.511  -0.419  22.714  0.00  0.00    -0.253 OA
ATOM      2  N   UNL     1      -0.238  -0.022  24.237  0.00  0.00    -0.279 N 
ATOM      3  N   UNL     1      -2.836  -0.006  25.313  0.00  0.00    -0.299 NA
ATOM      4  N   UNL     1       1.220   1.634  23.814  0.00  0.00    -0.297 N 
ATOM      5  C   UNL     1      -0.614   1.038  25.150  0.00  0.00    +0.109 C 
ATOM      6  C   UNL     1      -2.123   1.270  25.102  0.00  0.00    +0.108 C 
ATOM      7  C   UNL     1      -0.972  -1.270  24.258  0.00  0.00    +0.125 C 
ATOM      8  C   UNL     1      -2.477  -0.990  24.271  0.00  0.00    +0.103 C 
ATOM      9  C   UNL     1       0.234   2.222  24.693  0.00  0.00    +0.129 C 
ATOM     11  C   UNL     1       0.903   0.300  23.496  0.00  0.00    +0.303 C 
ATOM     16  H   UNL     1       1.998   2.141  23.406  0.00  0.00    +0.150 HD
ENDROOT
BRANCH   3  10
ATOM     10  C   UNL     1      -4.281   0.214  25.329  0.00  0.00    +0.085 C 
BRANCH  10  12
ATOM     12  C   UNL     1      -4.648   1.378  24.406  0.00  0.00    +0.018 C 
BRANCH  12  13
ATOM     13  C   UNL     1      -5.571   2.416  25.071  0.00  0.00    -0.016 C 
ATOM     14  C   UNL     1      -4.821   3.685  25.481  0.00  0.00    +0.007 C 
ATOM     15  C   UNL     1      -6.249   1.799  26.298  0.00  0.00    +0.007 C 
ENDBRANCH  12  13
ENDBRANCH  10  12
ENDBRANCH   3  10
TORSDOF 3
ENDMDL
MODEL 3
REMARK VINA RESULT:      -5.6      1.196      2.557
REMARK  Name = 75368547
REMARK  5 active torsions:
REMARK  status: ('A' for Active; 'I' for Inactive)
REMARK    1  A    between atoms: N_3  and  C_10
REMARK    2  A    between atoms: C_10  and  C_12
REMARK    3  A    between atoms: C_12  and  C_13
REMARK    4  A    between atoms: C_13  and  C_14
REMARK    5  A    between atoms: C_13  and  C_15
REMARK                            x       y       z     vdW  Elec       q    Type
REMARK                         _______ _______ _______ _____ _____    ______ ____
ROOT
ATOM      1  O   UNL     1      -0.783   5.301  25.020  0.00  0.00    -0.253 OA
ATOM      2  N   UNL     1      -1.455   3.048  25.118  0.00  0.00    -0.279 N 
ATOM      3  N   UNL     1      -1.459   0.281  24.617  0.00  0.00    -0.299 NA
ATOM      4  N   UNL     1      -3.022   4.629  24.818  0.00  0.00    -0.297 N 
ATOM      5  C   UNL     1      -2.711   2.329  25.159  0.00  0.00    +0.109 C 
ATOM      6  C   UNL     1      -2.644   1.091  24.267  0.00  0.00    +0.108 C 
ATOM      7  C   UNL     1      -0.215   2.323  25.302  0.00  0.00    +0.125 C 
ATOM      8  C   UNL     1      -0.216   1.059  24.437  0.00  0.00    +0.103 C 
ATOM      9  C   UNL     1      -3.737   3.375  24.731  0.00  0.00    +0.129 C 
ATOM     11  C   UNL     1      -1.641   4.428  24.993  0.00  0.00    +0.303 C 
ATOM     16  H   UNL     1      -3.447   5.540  24.683  0.00  0.00    +0.150 HD
ENDROOT
BRANCH   3  10
ATOM     10  C   UNL     1      -1.418  -0.938  23.811  0.00  0.00    +0.085 C 
BRANCH  10  12
ATOM     12  C   UNL     1      -1.632  -2.166  24.697  0.00  0.00    +0.018 C 
BRANCH  12  13
ATOM     13  C   UNL     1      -3.112  -2.414  25.048  0.00  0.00    -0.016 C 
ATOM     14  C   UNL     1      -4.040  -2.189  23.853  0.00  0.00    +0.007 C 
ATOM     15  C   UNL     1      -3.531  -1.503  26.206  0.00  0.00    +0.007 C 
ENDBRANCH  12  13
ENDBRANCH  10  12
ENDBRANCH   3  10
TORSDOF 3
ENDMDL
MODEL 4
REMARK VINA RESULT:      -5.2      2.843      5.370
REMARK  Name = 75368547
REMARK  5 active torsions:
REMARK  status: ('A' for Active; 'I' for Inactive)
REMARK    1  A    between atoms: N_3  and  C_10
REMARK    2  A    between atoms: C_10  and  C_12
REMARK    3  A    between atoms: C_12  and  C_13
REMARK    4  A    between atoms: C_13  and  C_14
REMARK    5  A    between atoms: C_13  and  C_15
REMARK                            x       y       z     vdW  Elec       q    Type
REMARK                         _______ _______ _______ _____ _____    ______ ____
ROOT
ATOM      1  O   UNL     1      -0.871  -2.818  25.366  0.00  0.00    -0.253 OA
ATOM      2  N   UNL     1      -1.734  -0.934  24.252  0.00  0.00    -0.279 N 
ATOM      3  N   UNL     1      -2.180   1.768  23.612  0.00  0.00    -0.299 NA
ATOM      4  N   UNL     1      -3.139  -2.596  24.808  0.00  0.00    -0.297 N 
ATOM      5  C   UNL     1      -3.001  -0.552  23.665  0.00  0.00    +0.109 C 
ATOM      6  C   UNL     1      -3.319   0.907  23.992  0.00  0.00    +0.108 C 
ATOM      7  C   UNL     1      -0.579  -0.081  24.065  0.00  0.00    +0.125 C 
ATOM      8  C   UNL     1      -0.957   1.377  24.343  0.00  0.00    +0.103 C 
ATOM      9  C   UNL     1      -3.984  -1.568  24.241  0.00  0.00    +0.129 C 
ATOM     11  C   UNL     1      -1.793  -2.189  24.865  0.00  0.00    +0.303 C 
ATOM     16  H   UNL     1      -3.482  -3.468  25.196  0.00  0.00    +0.150 HD
ENDROOT
BRANCH   3  10
ATOM     10  C   UNL     1      -2.497   3.172  23.864  0.00  0.00    +0.085 C 
BRANCH  10  12
ATOM     12  C   UNL     1      -4.012   3.362  23.969  0.00  0.00    +0.018 C 
BRANCH  12  13
ATOM     13  C   UNL     1      -4.468   3.877  25.347  0.00  0.00    -0.016 C 
ATOM     14  C   UNL     1      -3.299   4.070  26.314  0.00  0.00    +0.007 C 
ATOM     15  C   UNL     1      -5.485   2.907  25.954  0.00  0.00    +0.007 C 
ENDBRANCH  12  13
ENDBRANCH  10  12
ENDBRANCH   3  10
TORSDOF 3
ENDMDL
MODEL 5
REMARK VINA RESULT:      -4.9      1.923      2.550
REMARK  Name = 75368547
REMARK  5 active torsions:
REMARK  status: ('A' for Active; 'I' for Inactive)
REMARK    1  A    between atoms: N_3  and  C_10
REMARK    2  A    between atoms: C_10  and  C_12
REMARK    3  A    between atoms: C_12  and  C_13
REMARK    4  A    between atoms: C_13  and  C_14
REMARK    5  A    between atoms: C_13  and  C_15
REMARK                            x       y       z     vdW  Elec       q    Type
REMARK                         _______ _______ _______ _____ _____    ______ ____
ROOT
ATOM      1  O   UNL     1      -5.451   3.958  25.328  0.00  0.00    -0.253 OA
ATOM      2  N   UNL     1      -3.411   3.002  24.651  0.00  0.00    -0.279 N 
ATOM      3  N   UNL     1      -1.574   1.046  23.806  0.00  0.00    -0.299 NA
ATOM      4  N   UNL     1      -3.418   4.389  26.418  0.00  0.00    -0.297 N 
ATOM      5  C   UNL     1      -2.014   3.151  25.004  0.00  0.00    +0.109 C 
ATOM      6  C   UNL     1      -1.332   1.785  25.063  0.00  0.00    +0.108 C 
ATOM      7  C   UNL     1      -3.772   2.174  23.519  0.00  0.00    +0.125 C 
ATOM      8  C   UNL     1      -3.021   0.841  23.586  0.00  0.00    +0.103 C 
ATOM      9  C   UNL     1      -2.058   3.906  26.330  0.00  0.00    +0.129 C 
ATOM     11  C   UNL     1      -4.243   3.800  25.441  0.00  0.00    +0.303 C 
ATOM     16  H   UNL     1      -3.759   5.009  27.145  0.00  0.00    +0.150 HD
ENDROOT
BRANCH   3  10
ATOM     10  C   UNL     1      -0.876  -0.238  23.828  0.00  0.00    +0.085 C 
BRANCH  10  12
ATOM     12  C   UNL     1      -0.865  -0.810  25.247  0.00  0.00    +0.018 C 
BRANCH  12  13
ATOM     13  C   UNL     1      -1.884  -1.947  25.454  0.00  0.00    -0.016 C 
ATOM     14  C   UNL     1      -2.167  -2.719  24.164  0.00  0.00    +0.007 C 
ATOM     15  C   UNL     1      -3.191  -1.377  26.012  0.00  0.00    +0.007 C 
ENDBRANCH  12  13
ENDBRANCH  10  12
ENDBRANCH   3  10
TORSDOF 3
ENDMDL
MODEL 6
REMARK VINA RESULT:      -4.9      1.655      2.205
REMARK  Name = 75368547
REMARK  5 active torsions:
REMARK  status: ('A' for Active; 'I' for Inactive)
REMARK    1  A    between atoms: N_3  and  C_10
REMARK    2  A    between atoms: C_10  and  C_12
REMARK    3  A    between atoms: C_12  and  C_13
REMARK    4  A    between atoms: C_13  and  C_14
REMARK    5  A    between atoms: C_13  and  C_15
REMARK                            x       y       z     vdW  Elec       q    Type
REMARK                         _______ _______ _______ _____ _____    ______ ____
ROOT
ATOM      1  O   UNL     1       0.794   2.907  26.788  0.00  0.00    -0.253 OA
ATOM      2  N   UNL     1      -0.998   2.748  25.271  0.00  0.00    -0.279 N 
ATOM      3  N   UNL     1      -3.627   2.414  24.332  0.00  0.00    -0.299 NA
ATOM      4  N   UNL     1       0.912   1.662  24.802  0.00  0.00    -0.297 N 
ATOM      5  C   UNL     1      -1.206   2.198  23.948  0.00  0.00    +0.109 C 
ATOM      6  C   UNL     1      -2.563   1.500  23.870  0.00  0.00    +0.108 C 
ATOM      7  C   UNL     1      -2.043   3.542  25.882  0.00  0.00    +0.125 C 
ATOM      8  C   UNL     1      -3.393   2.834  25.729  0.00  0.00    +0.103 C 
ATOM      9  C   UNL     1      -0.000   1.285  23.745  0.00  0.00    +0.129 C 
ATOM     11  C   UNL     1       0.292   2.498  25.749  0.00  0.00    +0.303 C 
ATOM     16  H   UNL     1       1.856   1.303  24.898  0.00  0.00    +0.150 HD
ENDROOT
BRANCH   3  10
ATOM     10  C   UNL     1      -4.937   1.777  24.206  0.00  0.00    +0.085 C 
BRANCH  10  12
ATOM     12  C   UNL     1      -5.008   0.535  25.097  0.00  0.00    +0.018 C 
BRANCH  12  13
ATOM     13  C   UNL     1      -3.937  -0.520  24.760  0.00  0.00    -0.016 C 
ATOM     14  C   UNL     1      -4.475  -1.628  23.853  0.00  0.00    +0.007 C 
ATOM     15  C   UNL     1      -3.386  -1.131  26.051  0.00  0.00    +0.007 C 
ENDBRANCH  12  13
ENDBRANCH  10  12
ENDBRANCH   3  10
TORSDOF 3
ENDMDL
MODEL 7
REMARK VINA RESULT:      -4.8      2.835      5.783
REMARK  Name = 75368547
REMARK  5 active torsions:
REMARK  status: ('A' for Active; 'I' for Inactive)
REMARK    1  A    between atoms: N_3  and  C_10
REMARK    2  A    between atoms: C_10  and  C_12
REMARK    3  A    between atoms: C_12  and  C_13
REMARK    4  A    between atoms: C_13  and  C_14
REMARK    5  A    between atoms: C_13  and  C_15
REMARK                            x       y       z     vdW  Elec       q    Type
REMARK                         _______ _______ _______ _____ _____    ______ ____
ROOT
ATOM      1  O   UNL     1      -2.634  -3.267  24.964  0.00  0.00    -0.253 OA
ATOM      2  N   UNL     1      -2.168  -1.078  24.239  0.00  0.00    -0.279 N 
ATOM      3  N   UNL     1      -0.975   1.467  24.156  0.00  0.00    -0.299 NA
ATOM      4  N   UNL     1      -4.312  -1.725  24.405  0.00  0.00    -0.297 N 
ATOM      5  C   UNL     1      -2.927   0.036  23.711  0.00  0.00    +0.109 C 
ATOM      6  C   UNL     1      -2.439   1.349  24.322  0.00  0.00    +0.108 C 
ATOM      7  C   UNL     1      -0.722  -1.004  24.261  0.00  0.00    +0.125 C 
ATOM      8  C   UNL     1      -0.277   0.349  24.823  0.00  0.00    +0.103 C 
ATOM      9  C   UNL     1      -4.373  -0.327  24.040  0.00  0.00    +0.129 C 
ATOM     11  C   UNL     1      -2.985  -2.160  24.580  0.00  0.00    +0.303 C 
ATOM     16  H   UNL     1      -5.125  -2.302  24.597  0.00  0.00    +0.150 HD
ENDROOT
BRANCH   3  10
ATOM     10  C   UNL     1      -0.505   2.747  24.684  0.00  0.00    +0.085 C 
BRANCH  10  12
ATOM     12  C   UNL     1      -1.214   3.069  26.001  0.00  0.00    +0.018 C 
BRANCH  12  13
ATOM     13  C   UNL     1      -2.039   4.369  25.947  0.00  0.00    -0.016 C 
ATOM     14  C   UNL     1      -3.502   4.117  25.578  0.00  0.00    +0.007 C 
ATOM     15  C   UNL     1      -1.414   5.340  24.943  0.00  0.00    +0.007 C 
ENDBRANCH  12  13
ENDBRANCH  10  12
ENDBRANCH   3  10
TORSDOF 3
ENDMDL
MODEL 8
REMARK VINA RESULT:      -4.8      2.712      4.292
REMARK  Name = 75368547
REMARK  5 active torsions:
REMARK  status: ('A' for Active; 'I' for Inactive)
REMARK    1  A    between atoms: N_3  and  C_10
REMARK    2  A    between atoms: C_10  and  C_12
REMARK    3  A    between atoms: C_12  and  C_13
REMARK    4  A    between atoms: C_13  and  C_14
REMARK    5  A    between atoms: C_13  and  C_15
REMARK                            x       y       z     vdW  Elec       q    Type
REMARK                         _______ _______ _______ _____ _____    ______ ____
ROOT
ATOM      1  O   UNL     1      -6.053   2.091  26.174  0.00  0.00    -0.253 OA
ATOM      2  N   UNL     1      -4.158   1.574  24.881  0.00  0.00    -0.279 N 
ATOM      3  N   UNL     1      -1.763   0.317  24.109  0.00  0.00    -0.299 NA
ATOM      4  N   UNL     1      -4.677   3.733  25.217  0.00  0.00    -0.297 N 
ATOM      5  C   UNL     1      -3.209   2.309  24.070  0.00  0.00    +0.109 C 
ATOM      6  C   UNL     1      -1.793   1.782  24.300  0.00  0.00    +0.108 C 
ATOM      7  C   UNL     1      -4.119   0.127  24.882  0.00  0.00    +0.125 C 
ATOM      8  C   UNL     1      -2.676  -0.357  25.054  0.00  0.00    +0.103 C 
ATOM      9  C   UNL     1      -3.430   3.761  24.485  0.00  0.00    +0.129 C 
ATOM     11  C   UNL     1      -5.084   2.417  25.503  0.00  0.00    +0.303 C 
ATOM     16  H   UNL     1      -5.158   4.559  25.559  0.00  0.00    +0.150 HD
ENDROOT
BRANCH   3  10
ATOM     10  C   UNL     1      -0.401  -0.190  24.268  0.00  0.00    +0.085 C 
BRANCH  10  12
ATOM     12  C   UNL     1       0.591   0.726  23.547  0.00  0.00    +0.018 C 
BRANCH  12  13
ATOM     13  C   UNL     1       1.780  -0.031  22.927  0.00  0.00    -0.016 C 
ATOM     14  C   UNL     1       3.056   0.813  22.894  0.00  0.00    +0.007 C 
ATOM     15  C   UNL     1       1.425  -0.485  21.509  0.00  0.00    +0.007 C 
ENDBRANCH  12  13
ENDBRANCH  10  12
ENDBRANCH   3  10
TORSDOF 3
ENDMDL
MODEL 9
REMARK VINA RESULT:      -4.0     15.719     17.387
REMARK  Name = 75368547
REMARK  5 active torsions:
REMARK  status: ('A' for Active; 'I' for Inactive)
REMARK    1  A    between atoms: N_3  and  C_10
REMARK    2  A    between atoms: C_10  and  C_12
REMARK    3  A    between atoms: C_12  and  C_13
REMARK    4  A    between atoms: C_13  and  C_14
REMARK    5  A    between atoms: C_13  and  C_15
REMARK                            x       y       z     vdW  Elec       q    Type
REMARK                         _______ _______ _______ _____ _____    ______ ____
ROOT
ATOM      1  O   UNL     1      -6.956  -7.843   8.854  0.00  0.00    -0.253 OA
ATOM      2  N   UNL     1      -6.052  -9.367  10.400  0.00  0.00    -0.279 N 
ATOM      3  N   UNL     1      -5.470 -10.571  12.874  0.00  0.00    -0.299 NA
ATOM      4  N   UNL     1      -4.726  -8.567   8.773  0.00  0.00    -0.297 N 
ATOM      5  C   UNL     1      -4.808 -10.093  10.553  0.00  0.00    +0.109 C 
ATOM      6  C   UNL     1      -4.368 -10.091  12.016  0.00  0.00    +0.108 C 
ATOM      7  C   UNL     1      -7.156  -9.657  11.291  0.00  0.00    +0.125 C 
ATOM      8  C   UNL     1      -6.660  -9.705  12.739  0.00  0.00    +0.103 C 
ATOM      9  C   UNL     1      -3.857  -9.380   9.595  0.00  0.00    +0.129 C 
ATOM     11  C   UNL     1      -6.033  -8.515   9.292  0.00  0.00    +0.303 C 
ATOM     16  H   UNL     1      -4.416  -8.029   7.971  0.00  0.00    +0.150 HD
ENDROOT
BRANCH   3  10
ATOM     10  C   UNL     1      -5.041 -10.631  14.271  0.00  0.00    +0.085 C 
BRANCH  10  12
ATOM     12  C   UNL     1      -3.514 -10.693  14.351  0.00  0.00    +0.018 C 
BRANCH  12  13
ATOM     13  C   UNL     1      -2.955 -10.213  15.704  0.00  0.00    -0.016 C 
ATOM     14  C   UNL     1      -1.489 -10.605  15.902  0.00  0.00    +0.007 C 
ATOM     15  C   UNL     1      -3.800 -10.781  16.847  0.00  0.00    +0.007 C 
ENDBRANCH  12  13
ENDBRANCH  10  12
ENDBRANCH   3  10
TORSDOF 3
ENDMDL
MODEL 10
REMARK VINA RESULT:      -3.9     14.576     16.403
REMARK  Name = 75368547
REMARK  5 active torsions:
REMARK  status: ('A' for Active; 'I' for Inactive)
REMARK    1  A    between atoms: N_3  and  C_10
REMARK    2  A    between atoms: C_10  and  C_12
REMARK    3  A    between atoms: C_12  and  C_13
REMARK    4  A    between atoms: C_13  and  C_14
REMARK    5  A    between atoms: C_13  and  C_15
REMARK                            x       y       z     vdW  Elec       q    Type
REMARK                         _______ _______ _______ _____ _____    ______ ____
ROOT
ATOM      1  O   UNL     1      -8.573 -10.561  17.467  0.00  0.00    -0.253 OA
ATOM      2  N   UNL     1      -6.842 -10.086  15.947  0.00  0.00    -0.279 N 
ATOM      3  N   UNL     1      -5.331 -10.152  13.576  0.00  0.00    -0.299 NA
ATOM      4  N   UNL     1      -6.308 -10.555  18.079  0.00  0.00    -0.297 N 
ATOM      5  C   UNL     1      -5.411  -9.877  16.020  0.00  0.00    +0.109 C 
ATOM      6  C   UNL     1      -4.712 -10.569  14.851  0.00  0.00    +0.108 C 
ATOM      7  C   UNL     1      -7.531  -9.848  14.697  0.00  0.00    +0.125 C 
ATOM      8  C   UNL     1      -6.765 -10.507  13.545  0.00  0.00    +0.103 C 
ATOM      9  C   UNL     1      -5.039 -10.414  17.400  0.00  0.00    +0.129 C 
ATOM     11  C   UNL     1      -7.391 -10.413  17.191  0.00  0.00    +0.303 C 
ATOM     16  H   UNL     1      -6.409 -10.809  19.056  0.00  0.00    +0.150 HD
ENDROOT
BRANCH   3  10
ATOM     10  C   UNL     1      -4.632 -10.761  12.446  0.00  0.00    +0.085 C 
BRANCH  10  12
ATOM     12  C   UNL     1      -3.132 -10.471  12.534  0.00  0.00    +0.018 C 
BRANCH  12  13
ATOM     13  C   UNL     1      -2.499 -10.118  11.175  0.00  0.00    -0.016 C 
ATOM     14  C   UNL     1      -1.189  -9.341  11.326  0.00  0.00    +0.007 C 
ATOM     15  C   UNL     1      -3.488  -9.304  10.337  0.00  0.00    +0.007 C 
ENDBRANCH  12  13
ENDBRANCH  10  12
ENDBRANCH   3  10
TORSDOF 3
ENDMDL
