MODEL 1
REMARK VINA RESULT:      -3.4      0.000      0.000
REMARK  Name = 45783492
REMARK  10 active torsions:
REMARK  status: ('A' for Active; 'I' for Inactive)
REMARK    1  A    between atoms: O_2  and  C_28
REMARK    2  A    between atoms: O_2  and  C_29
REMARK    3  A    between atoms: N_3  and  C_12
REMARK    4  A    between atoms: N_7  and  C_26
REMARK    5  A    between atoms: N_7  and  C_27
REMARK    6  A    between atoms: C_8  and  C_13
REMARK    7  A    between atoms: C_12  and  C_14
REMARK    8  A    between atoms: C_15  and  C_19
REMARK    9  A    between atoms: C_17  and  C_22
REMARK   10  A    between atoms: C_27  and  C_28
REMARK                            x       y       z     vdW  Elec       q    Type
REMARK                         _______ _______ _______ _____ _____    ______ ____
ROOT
ATOM      1  O   UNL     1      -2.024   2.900  25.293  0.00  0.00    -0.336 OA
ATOM      4  N   UNL     1      -1.805   1.493  23.564  0.00  0.00    -0.190 NA
ATOM      5  N   UNL     1      -0.648   2.714  25.114  0.00  0.00    -0.056 NA
ATOM     13  C   UNL     1      -2.633   2.146  24.341  0.00  0.00    +0.245 A 
ATOM     17  C   UNL     1      -0.599   1.873  24.077  0.00  0.00    +0.204 A 
ENDROOT
BRANCH  17  22
ATOM      6  N   UNL     1       2.981   1.773  23.075  0.00  0.00    -0.240 NA
ATOM     22  C   UNL     1       0.637   1.392  23.531  0.00  0.00    +0.041 A 
ATOM     23  C   UNL     1       0.720   0.134  22.944  0.00  0.00    +0.016 A 
ATOM     24  C   UNL     1       1.786   2.165  23.571  0.00  0.00    +0.124 A 
ATOM     25  C   UNL     1       1.932  -0.305  22.423  0.00  0.00    +0.044 A 
ATOM     26  C   UNL     1       3.022   0.544  22.513  0.00  0.00    +0.119 A 
BRANCH  26   7
ATOM      7  N   UNL     1       4.250   0.082  21.977  0.00  0.00    -0.327 N 
ATOM     30  H   UNL     1       4.203  -0.395  21.084  0.00  0.00    +0.148 HD
BRANCH   7  27
ATOM     27  C   UNL     1       5.497   0.263  22.645  0.00  0.00    +0.131 C 
BRANCH  27  28
ATOM     28  C   UNL     1       5.290   0.241  24.149  0.00  0.00    +0.178 C 
BRANCH  28   2
ATOM      2  O   UNL     1       5.544  -1.068  24.643  0.00  0.00    -0.381 OA
ATOM     29  C   UNL     1       4.718  -2.034  24.008  0.00  0.00    +0.194 C 
ENDBRANCH  28   2
ENDBRANCH  27  28
ENDBRANCH   7  27
ENDBRANCH  26   7
ENDBRANCH  17  22
BRANCH  13   8
ATOM      3  N   UNL     1      -4.745   1.346  25.384  0.00  0.00    -0.287 NA
ATOM      8  C   UNL     1      -4.147   2.177  24.321  0.00  0.00    +0.146 C 
ATOM      9  C   UNL     1      -4.716   3.588  24.559  0.00  0.00    +0.030 C 
ATOM     10  C   UNL     1      -5.669   3.437  25.737  0.00  0.00    +0.017 C 
ATOM     11  C   UNL     1      -6.027   1.966  25.721  0.00  0.00    +0.085 C 
BRANCH   3  12
ATOM     12  C   UNL     1      -4.895  -0.053  25.004  0.00  0.00    +0.120 C 
BRANCH  12  14
ATOM     14  C   UNL     1      -3.594  -0.805  25.108  0.00  0.00    -0.030 A 
ATOM     15  C   UNL     1      -3.351  -1.929  24.319  0.00  0.00    -0.046 A 
ATOM     16  C   UNL     1      -2.628  -0.363  26.011  0.00  0.00    +0.005 A 
ATOM     18  C   UNL     1      -2.139  -2.609  24.431  0.00  0.00    +0.003 A 
ATOM     19  C   UNL     1      -4.371  -2.421  23.345  0.00  0.00    +0.044 C 
ATOM     20  C   UNL     1      -1.416  -1.044  26.123  0.00  0.00    +0.000 A 
ATOM     21  C   UNL     1      -1.171  -2.168  25.334  0.00  0.00    +0.000 A 
ENDBRANCH  12  14
ENDBRANCH   3  12
ENDBRANCH  13   8
TORSDOF 8
ENDMDL
MODEL 2
REMARK VINA RESULT:      -1.3     15.817     19.091
REMARK  Name = 45783492
REMARK  10 active torsions:
REMARK  status: ('A' for Active; 'I' for Inactive)
REMARK    1  A    between atoms: O_2  and  C_28
REMARK    2  A    between atoms: O_2  and  C_29
REMARK    3  A    between atoms: N_3  and  C_12
REMARK    4  A    between atoms: N_7  and  C_26
REMARK    5  A    between atoms: N_7  and  C_27
REMARK    6  A    between atoms: C_8  and  C_13
REMARK    7  A    between atoms: C_12  and  C_14
REMARK    8  A    between atoms: C_15  and  C_19
REMARK    9  A    between atoms: C_17  and  C_22
REMARK   10  A    between atoms: C_27  and  C_28
REMARK                            x       y       z     vdW  Elec       q    Type
REMARK                         _______ _______ _______ _____ _____    ______ ____
ROOT
ATOM      1  O   UNL     1      15.053  -7.384  27.502  0.00  0.00    -0.336 OA
ATOM      4  N   UNL     1      17.070  -6.469  27.167  0.00  0.00    -0.190 NA
ATOM      5  N   UNL     1      14.897  -6.469  26.453  0.00  0.00    -0.056 NA
ATOM     13  C   UNL     1      16.361  -7.321  27.864  0.00  0.00    +0.245 A 
ATOM     17  C   UNL     1      16.128  -5.971  26.314  0.00  0.00    +0.204 A 
ENDROOT
BRANCH  17  22
ATOM      6  N   UNL     1      17.201  -4.442  23.098  0.00  0.00    -0.240 NA
ATOM     22  C   UNL     1      16.451  -4.974  25.335  0.00  0.00    +0.041 A 
ATOM     23  C   UNL     1      16.343  -3.618  25.629  0.00  0.00    +0.016 A 
ATOM     24  C   UNL     1      16.881  -5.330  24.066  0.00  0.00    +0.124 A 
ATOM     25  C   UNL     1      16.663  -2.675  24.659  0.00  0.00    +0.044 A 
ATOM     26  C   UNL     1      17.083  -3.134  23.421  0.00  0.00    +0.119 A 
BRANCH  26   7
ATOM      7  N   UNL     1      17.405  -2.160  22.443  0.00  0.00    -0.327 N 
ATOM     30  H   UNL     1      18.251  -2.320  21.907  0.00  0.00    +0.148 HD
BRANCH   7  27
ATOM     27  C   UNL     1      16.600  -1.007  22.211  0.00  0.00    +0.131 C 
BRANCH  27  28
ATOM     28  C   UNL     1      15.144  -1.319  22.513  0.00  0.00    +0.178 C 
BRANCH  28   2
ATOM      2  O   UNL     1      14.807  -2.585  21.962  0.00  0.00    -0.381 OA
ATOM     29  C   UNL     1      13.407  -2.825  22.024  0.00  0.00    +0.194 C 
ENDBRANCH  28   2
ENDBRANCH  27  28
ENDBRANCH   7  27
ENDBRANCH  26   7
ENDBRANCH  17  22
BRANCH  13   8
ATOM      3  N   UNL     1      16.416  -7.703  30.322  0.00  0.00    -0.287 NA
ATOM      8  C   UNL     1      16.793  -8.230  28.996  0.00  0.00    +0.146 C 
ATOM      9  C   UNL     1      16.134  -9.621  28.926  0.00  0.00    +0.030 C 
ATOM     10  C   UNL     1      15.464  -9.811  30.279  0.00  0.00    +0.017 C 
ATOM     11  C   UNL     1      16.221  -8.865  31.189  0.00  0.00    +0.085 C 
BRANCH   3  12
ATOM     12  C   UNL     1      17.394  -6.769  30.868  0.00  0.00    +0.120 C 
BRANCH  12  14
ATOM     14  C   UNL     1      16.907  -5.346  30.804  0.00  0.00    -0.030 A 
ATOM     15  C   UNL     1      15.970  -4.867  31.719  0.00  0.00    -0.046 A 
ATOM     16  C   UNL     1      17.405  -4.505  29.809  0.00  0.00    +0.005 A 
ATOM     18  C   UNL     1      15.533  -3.544  31.640  0.00  0.00    +0.003 A 
ATOM     19  C   UNL     1      15.421  -5.749  32.792  0.00  0.00    +0.044 C 
ATOM     20  C   UNL     1      16.968  -3.183  29.731  0.00  0.00    +0.000 A 
ATOM     21  C   UNL     1      16.032  -2.702  30.646  0.00  0.00    +0.000 A 
ENDBRANCH  12  14
ENDBRANCH   3  12
ENDBRANCH  13   8
TORSDOF 8
ENDMDL
MODEL 3
REMARK VINA RESULT:      -0.2      1.895      3.413
REMARK  Name = 45783492
REMARK  10 active torsions:
REMARK  status: ('A' for Active; 'I' for Inactive)
REMARK    1  A    between atoms: O_2  and  C_28
REMARK    2  A    between atoms: O_2  and  C_29
REMARK    3  A    between atoms: N_3  and  C_12
REMARK    4  A    between atoms: N_7  and  C_26
REMARK    5  A    between atoms: N_7  and  C_27
REMARK    6  A    between atoms: C_8  and  C_13
REMARK    7  A    between atoms: C_12  and  C_14
REMARK    8  A    between atoms: C_15  and  C_19
REMARK    9  A    between atoms: C_17  and  C_22
REMARK   10  A    between atoms: C_27  and  C_28
REMARK                            x       y       z     vdW  Elec       q    Type
REMARK                         _______ _______ _______ _____ _____    ______ ____
ROOT
ATOM      1  O   UNL     1      -3.397   1.387  22.995  0.00  0.00    -0.336 OA
ATOM      4  N   UNL     1      -1.841   0.949  24.545  0.00  0.00    -0.190 NA
ATOM      5  N   UNL     1      -2.181   1.279  22.307  0.00  0.00    -0.056 NA
ATOM     13  C   UNL     1      -3.107   1.180  24.306  0.00  0.00    +0.245 A 
ATOM     17  C   UNL     1      -1.313   1.021  23.289  0.00  0.00    +0.204 A 
ENDROOT
BRANCH  17  22
ATOM      6  N   UNL     1       2.370   1.494  23.493  0.00  0.00    -0.240 NA
ATOM     22  C   UNL     1       0.088   0.829  23.049  0.00  0.00    +0.041 A 
ATOM     23  C   UNL     1       0.538  -0.159  22.178  0.00  0.00    +0.016 A 
ATOM     24  C   UNL     1       1.037   1.621  23.675  0.00  0.00    +0.124 A 
ATOM     25  C   UNL     1       1.902  -0.321  21.965  0.00  0.00    +0.044 A 
ATOM     26  C   UNL     1       2.769   0.523  22.640  0.00  0.00    +0.119 A 
BRANCH  26   7
ATOM      7  N   UNL     1       4.156   0.345  22.413  0.00  0.00    -0.327 N 
ATOM     30  H   UNL     1       4.416  -0.154  21.569  0.00  0.00    +0.148 HD
BRANCH   7  27
ATOM     27  C   UNL     1       5.152   0.829  23.311  0.00  0.00    +0.131 C 
BRANCH  27  28
ATOM     28  C   UNL     1       6.090  -0.300  23.705  0.00  0.00    +0.178 C 
BRANCH  28   2
ATOM      2  O   UNL     1       5.436  -1.159  24.629  0.00  0.00    -0.381 OA
ATOM     29  C   UNL     1       4.654  -2.142  23.965  0.00  0.00    +0.194 C 
ENDBRANCH  28   2
ENDBRANCH  27  28
ENDBRANCH   7  27
ENDBRANCH  26   7
ENDBRANCH  17  22
BRANCH  13   8
ATOM      3  N   UNL     1      -4.855   2.596  25.369  0.00  0.00    -0.287 NA
ATOM      8  C   UNL     1      -4.271   1.244  25.273  0.00  0.00    +0.146 C 
ATOM      9  C   UNL     1      -5.445   0.340  24.852  0.00  0.00    +0.030 C 
ATOM     10  C   UNL     1      -6.655   1.261  24.796  0.00  0.00    +0.017 C 
ATOM     11  C   UNL     1      -6.269   2.414  25.699  0.00  0.00    +0.085 C 
BRANCH   3  12
ATOM     12  C   UNL     1      -4.172   3.450  26.333  0.00  0.00    +0.120 C 
BRANCH  12  14
ATOM     14  C   UNL     1      -2.800   3.847  25.856  0.00  0.00    -0.030 A 
ATOM     15  C   UNL     1      -2.639   4.681  24.750  0.00  0.00    -0.046 A 
ATOM     16  C   UNL     1      -1.682   3.367  26.538  0.00  0.00    +0.005 A 
ATOM     18  C   UNL     1      -1.358   5.037  24.326  0.00  0.00    +0.003 A 
ATOM     19  C   UNL     1      -3.821   5.208  24.004  0.00  0.00    +0.044 C 
ATOM     20  C   UNL     1      -0.402   3.722  26.114  0.00  0.00    +0.000 A 
ATOM     21  C   UNL     1      -0.239   4.557  25.008  0.00  0.00    +0.000 A 
ENDBRANCH  12  14
ENDBRANCH   3  12
ENDBRANCH  13   8
TORSDOF 8
ENDMDL
