MODEL 1
REMARK VINA RESULT:      -4.9      0.000      0.000
REMARK  Name = 51137102
REMARK  3 active torsions:
REMARK  status: ('A' for Active; 'I' for Inactive)
REMARK    1  A    between atoms: N_3  and  C_11
REMARK    2  A    between atoms: C_6  and  C_10
REMARK    3  A    between atoms: C_11  and  C_12
REMARK                            x       y       z     vdW  Elec       q    Type
REMARK                         _______ _______ _______ _____ _____    ______ ____
ROOT
ATOM      3  N   UNL     1       0.744  -0.511  23.822  0.00  0.00    -0.297 NA
ATOM      6  C   UNL     1      -1.117  -0.036  25.167  0.00  0.00    +0.070 C 
ATOM      7  C   UNL     1      -1.240  -1.463  24.604  0.00  0.00    +0.028 C 
ATOM      8  C   UNL     1      -0.036   0.630  24.307  0.00  0.00    +0.096 C 
ATOM      9  C   UNL     1      -0.251  -1.516  23.448  0.00  0.00    +0.085 C 
ENDROOT
BRANCH   6  10
ATOM      2  F   UNL     1      -6.314   5.024  25.584  0.00  0.00    -0.205 F 
ATOM      4  N   UNL     1      -2.416   2.100  25.401  0.00  0.00    -0.341 N 
ATOM      5  N   UNL     1      -3.624   0.267  25.053  0.00  0.00    -0.232 NA
ATOM     10  C   UNL     1      -2.409   0.748  25.200  0.00  0.00    +0.113 A 
ATOM     13  C   UNL     1      -3.721   2.521  25.379  0.00  0.00    +0.069 A 
ATOM     14  C   UNL     1      -4.455   1.358  25.160  0.00  0.00    +0.089 A 
ATOM     17  C   UNL     1      -4.304   3.780  25.528  0.00  0.00    +0.066 A 
ATOM     18  C   UNL     1      -5.856   1.437  25.083  0.00  0.00    +0.032 A 
ATOM     19  C   UNL     1      -5.699   3.839  25.448  0.00  0.00    +0.125 A 
ATOM     20  C   UNL     1      -6.463   2.691  25.230  0.00  0.00    +0.040 A 
ATOM     24  H   UNL     1      -1.605   2.689  25.539  0.00  0.00    +0.167 HD
ENDBRANCH   6  10
BRANCH   3  11
ATOM     11  C   UNL     1       1.618  -0.157  22.715  0.00  0.00    +0.122 C 
BRANCH  11  12
ATOM      1  F   UNL     1       3.387   2.049  22.546  0.00  0.00    -0.205 F 
ATOM     12  C   UNL     1       3.072  -0.237  23.100  0.00  0.00    +0.002 A 
ATOM     15  C   UNL     1       3.888   0.889  22.992  0.00  0.00    +0.128 A 
ATOM     16  C   UNL     1       3.602  -1.440  23.566  0.00  0.00    +0.008 A 
ATOM     21  C   UNL     1       5.233   0.813  23.350  0.00  0.00    +0.038 A 
ATOM     22  C   UNL     1       4.948  -1.517  23.924  0.00  0.00    +0.000 A 
ATOM     23  C   UNL     1       5.764  -0.391  23.815  0.00  0.00    +0.003 A 
ENDBRANCH  11  12
ENDBRANCH   3  11
TORSDOF 3
ENDMDL
MODEL 2
REMARK VINA RESULT:      -3.1      2.382      7.582
REMARK  Name = 51137102
REMARK  3 active torsions:
REMARK  status: ('A' for Active; 'I' for Inactive)
REMARK    1  A    between atoms: N_3  and  C_11
REMARK    2  A    between atoms: C_6  and  C_10
REMARK    3  A    between atoms: C_11  and  C_12
REMARK                            x       y       z     vdW  Elec       q    Type
REMARK                         _______ _______ _______ _____ _____    ______ ____
ROOT
ATOM      3  N   UNL     1      -3.636   1.679  25.268  0.00  0.00    -0.297 NA
ATOM      6  C   UNL     1      -1.396   2.132  24.740  0.00  0.00    +0.070 C 
ATOM      7  C   UNL     1      -2.317   2.982  23.848  0.00  0.00    +0.028 C 
ATOM      8  C   UNL     1      -2.314   1.052  25.329  0.00  0.00    +0.096 C 
ATOM      9  C   UNL     1      -3.687   2.326  23.957  0.00  0.00    +0.085 C 
ENDROOT
BRANCH   6  10
ATOM      2  F   UNL     1       5.256   0.410  22.381  0.00  0.00    -0.205 F 
ATOM      4  N   UNL     1       1.080   1.968  24.358  0.00  0.00    -0.341 N 
ATOM      5  N   UNL     1      -0.183   0.649  23.092  0.00  0.00    -0.232 NA
ATOM     10  C   UNL     1      -0.186   1.559  24.041  0.00  0.00    +0.113 A 
ATOM     13  C   UNL     1       1.957   1.276  23.563  0.00  0.00    +0.069 A 
ATOM     14  C   UNL     1       1.144   0.459  22.782  0.00  0.00    +0.089 A 
ATOM     17  C   UNL     1       3.348   1.294  23.464  0.00  0.00    +0.066 A 
ATOM     18  C   UNL     1       1.737  -0.397  21.839  0.00  0.00    +0.032 A 
ATOM     19  C   UNL     1       3.922   0.435  22.520  0.00  0.00    +0.125 A 
ATOM     20  C   UNL     1       3.133  -0.395  21.721  0.00  0.00    +0.040 A 
ATOM     24  H   UNL     1       1.328   2.657  25.056  0.00  0.00    +0.167 HD
ENDBRANCH   6  10
BRANCH   3  11
ATOM     11  C   UNL     1      -4.714   0.721  25.457  0.00  0.00    +0.122 C 
BRANCH  11  12
ATOM      1  F   UNL     1      -3.368  -1.072  27.188  0.00  0.00    -0.205 F 
ATOM     12  C   UNL     1      -4.307  -0.669  25.046  0.00  0.00    +0.002 A 
ATOM     15  C   UNL     1      -3.647  -1.501  25.949  0.00  0.00    +0.128 A 
ATOM     16  C   UNL     1      -4.593  -1.125  23.759  0.00  0.00    +0.008 A 
ATOM     21  C   UNL     1      -3.272  -2.788  25.567  0.00  0.00    +0.038 A 
ATOM     22  C   UNL     1      -4.219  -2.412  23.376  0.00  0.00    +0.000 A 
ATOM     23  C   UNL     1      -3.557  -3.244  24.280  0.00  0.00    +0.003 A 
ENDBRANCH  11  12
ENDBRANCH   3  11
TORSDOF 3
ENDMDL
MODEL 3
REMARK VINA RESULT:      -2.9     16.835     18.603
REMARK  Name = 51137102
REMARK  3 active torsions:
REMARK  status: ('A' for Active; 'I' for Inactive)
REMARK    1  A    between atoms: N_3  and  C_11
REMARK    2  A    between atoms: C_6  and  C_10
REMARK    3  A    between atoms: C_11  and  C_12
REMARK                            x       y       z     vdW  Elec       q    Type
REMARK                         _______ _______ _______ _____ _____    ______ ____
ROOT
ATOM      3  N   UNL     1      16.217 -10.592  28.015  0.00  0.00    -0.297 NA
ATOM      6  C   UNL     1      14.519 -10.289  29.603  0.00  0.00    +0.070 C 
ATOM      7  C   UNL     1      13.905 -10.781  28.281  0.00  0.00    +0.028 C 
ATOM      8  C   UNL     1      15.931  -9.820  29.226  0.00  0.00    +0.096 C 
ATOM      9  C   UNL     1      14.983 -10.539  27.233  0.00  0.00    +0.085 C 
ENDROOT
BRANCH   6  10
ATOM      2  F   UNL     1      11.684  -4.145  32.248  0.00  0.00    -0.205 F 
ATOM      4  N   UNL     1      13.989  -7.898  30.155  0.00  0.00    -0.341 N 
ATOM      5  N   UNL     1      12.715  -9.425  31.148  0.00  0.00    -0.232 NA
ATOM     10  C   UNL     1      13.718  -9.228  30.321  0.00  0.00    +0.113 A 
ATOM     13  C   UNL     1      13.104  -7.190  30.926  0.00  0.00    +0.069 A 
ATOM     14  C   UNL     1      12.319  -8.166  31.535  0.00  0.00    +0.089 A 
ATOM     17  C   UNL     1      12.926  -5.822  31.135  0.00  0.00    +0.066 A 
ATOM     18  C   UNL     1      11.293  -7.771  32.410  0.00  0.00    +0.032 A 
ATOM     19  C   UNL     1      11.900  -5.448  32.009  0.00  0.00    +0.125 A 
ATOM     20  C   UNL     1      11.097  -6.403  32.637  0.00  0.00    +0.040 A 
ATOM     24  H   UNL     1      14.713  -7.504  29.569  0.00  0.00    +0.167 HD
ENDBRANCH   6  10
BRANCH   3  11
ATOM     11  C   UNL     1      17.361 -10.070  27.282  0.00  0.00    +0.122 C 
BRANCH  11  12
ATOM      1  F   UNL     1      16.636  -9.253  24.668  0.00  0.00    -0.205 F 
ATOM     12  C   UNL     1      17.169  -8.627  26.895  0.00  0.00    +0.002 A 
ATOM     15  C   UNL     1      16.812  -8.295  25.589  0.00  0.00    +0.128 A 
ATOM     16  C   UNL     1      17.349  -7.623  27.846  0.00  0.00    +0.008 A 
ATOM     21  C   UNL     1      16.634  -6.958  25.234  0.00  0.00    +0.038 A 
ATOM     22  C   UNL     1      17.171  -6.286  27.491  0.00  0.00    +0.000 A 
ATOM     23  C   UNL     1      16.814  -5.953  26.184  0.00  0.00    +0.003 A 
ENDBRANCH  11  12
ENDBRANCH   3  11
TORSDOF 3
ENDMDL
MODEL 4
REMARK VINA RESULT:      -2.8      1.697      7.697
REMARK  Name = 51137102
REMARK  3 active torsions:
REMARK  status: ('A' for Active; 'I' for Inactive)
REMARK    1  A    between atoms: N_3  and  C_11
REMARK    2  A    between atoms: C_6  and  C_10
REMARK    3  A    between atoms: C_11  and  C_12
REMARK                            x       y       z     vdW  Elec       q    Type
REMARK                         _______ _______ _______ _____ _____    ______ ____
ROOT
ATOM      3  N   UNL     1      -2.921  -0.063  24.551  0.00  0.00    -0.297 NA
ATOM      6  C   UNL     1      -0.912  -0.831  23.617  0.00  0.00    +0.070 C 
ATOM      7  C   UNL     1      -1.263  -1.680  24.853  0.00  0.00    +0.028 C 
ATOM      8  C   UNL     1      -1.803   0.412  23.734  0.00  0.00    +0.096 C 
ATOM      9  C   UNL     1      -2.303  -0.863  25.608  0.00  0.00    +0.085 C 
ENDROOT
BRANCH   6  10
ATOM      2  F   UNL     1       6.352  -0.732  23.569  0.00  0.00    -0.205 F 
ATOM      4  N   UNL     1       1.528  -1.380  23.848  0.00  0.00    -0.341 N 
ATOM      5  N   UNL     1       1.062   0.622  23.002  0.00  0.00    -0.232 NA
ATOM     10  C   UNL     1       0.554  -0.495  23.474  0.00  0.00    +0.113 A 
ATOM     13  C   UNL     1       2.743  -0.796  23.600  0.00  0.00    +0.069 A 
ATOM     14  C   UNL     1       2.425   0.452  23.072  0.00  0.00    +0.089 A 
ATOM     17  C   UNL     1       4.053  -1.240  23.785  0.00  0.00    +0.066 A 
ATOM     18  C   UNL     1       3.464   1.325  22.703  0.00  0.00    +0.032 A 
ATOM     19  C   UNL     1       5.074  -0.359  23.412  0.00  0.00    +0.125 A 
ATOM     20  C   UNL     1       4.787   0.901  22.882  0.00  0.00    +0.040 A 
ATOM     24  H   UNL     1       1.380  -2.302  24.237  0.00  0.00    +0.167 HD
ENDBRANCH   6  10
BRANCH   3  11
ATOM     11  C   UNL     1      -3.726   1.027  25.079  0.00  0.00    +0.122 C 
BRANCH  11  12
ATOM      1  F   UNL     1      -4.835   3.498  24.249  0.00  0.00    -0.205 F 
ATOM     12  C   UNL     1      -2.961   2.324  25.112  0.00  0.00    +0.002 A 
ATOM     15  C   UNL     1      -3.568   3.505  24.689  0.00  0.00    +0.128 A 
ATOM     16  C   UNL     1      -1.643   2.342  25.568  0.00  0.00    +0.008 A 
ATOM     21  C   UNL     1      -2.859   4.705  24.721  0.00  0.00    +0.038 A 
ATOM     22  C   UNL     1      -0.932   3.541  25.600  0.00  0.00    +0.000 A 
ATOM     23  C   UNL     1      -1.540   4.724  25.176  0.00  0.00    +0.003 A 
ENDBRANCH  11  12
ENDBRANCH   3  11
TORSDOF 3
ENDMDL
MODEL 5
REMARK VINA RESULT:      -2.3      1.224      2.037
REMARK  Name = 51137102
REMARK  3 active torsions:
REMARK  status: ('A' for Active; 'I' for Inactive)
REMARK    1  A    between atoms: N_3  and  C_11
REMARK    2  A    between atoms: C_6  and  C_10
REMARK    3  A    between atoms: C_11  and  C_12
REMARK                            x       y       z     vdW  Elec       q    Type
REMARK                         _______ _______ _______ _____ _____    ______ ____
ROOT
ATOM      3  N   UNL     1       0.841  -0.660  23.627  0.00  0.00    -0.297 NA
ATOM      6  C   UNL     1      -0.747   0.202  25.121  0.00  0.00    +0.070 C 
ATOM      7  C   UNL     1      -1.300  -1.074  24.462  0.00  0.00    +0.028 C 
ATOM      8  C   UNL     1       0.445   0.607  24.245  0.00  0.00    +0.096 C 
ATOM      9  C   UNL     1      -0.416  -1.302  23.243  0.00  0.00    +0.085 C 
ENDROOT
BRANCH   6  10
ATOM      2  F   UNL     1      -6.677   4.382  25.498  0.00  0.00    -0.205 F 
ATOM      4  N   UNL     1      -3.087   1.111  25.065  0.00  0.00    -0.341 N 
ATOM      5  N   UNL     1      -1.505   2.550  25.671  0.00  0.00    -0.232 NA
ATOM     10  C   UNL     1      -1.754   1.315  25.297  0.00  0.00    +0.113 A 
ATOM     13  C   UNL     1      -3.739   2.292  25.306  0.00  0.00    +0.069 A 
ATOM     14  C   UNL     1      -2.730   3.174  25.683  0.00  0.00    +0.089 A 
ATOM     17  C   UNL     1      -5.085   2.654  25.230  0.00  0.00    +0.066 A 
ATOM     18  C   UNL     1      -3.064   4.500  26.006  0.00  0.00    +0.032 A 
ATOM     19  C   UNL     1      -5.399   3.978  25.555  0.00  0.00    +0.125 A 
ATOM     20  C   UNL     1      -4.409   4.887  25.935  0.00  0.00    +0.040 A 
ATOM     24  H   UNL     1      -3.517   0.245  24.769  0.00  0.00    +0.167 HD
ENDBRANCH   6  10
BRANCH   3  11
ATOM     11  C   UNL     1       1.735  -0.471  22.495  0.00  0.00    +0.122 C 
BRANCH  11  12
ATOM      1  F   UNL     1       3.281  -2.293  24.017  0.00  0.00    -0.205 F 
ATOM     12  C   UNL     1       3.146  -0.184  22.937  0.00  0.00    +0.002 A 
ATOM     15  C   UNL     1       3.851  -1.126  23.685  0.00  0.00    +0.128 A 
ATOM     16  C   UNL     1       3.748   1.027  22.596  0.00  0.00    +0.008 A 
ATOM     21  C   UNL     1       5.157  -0.859  24.092  0.00  0.00    +0.038 A 
ATOM     22  C   UNL     1       5.054   1.296  23.003  0.00  0.00    +0.000 A 
ATOM     23  C   UNL     1       5.760   0.352  23.752  0.00  0.00    +0.003 A 
ENDBRANCH  11  12
ENDBRANCH   3  11
TORSDOF 3
ENDMDL
MODEL 6
REMARK VINA RESULT:      -1.8      1.451      8.677
REMARK  Name = 51137102
REMARK  3 active torsions:
REMARK  status: ('A' for Active; 'I' for Inactive)
REMARK    1  A    between atoms: N_3  and  C_11
REMARK    2  A    between atoms: C_6  and  C_10
REMARK    3  A    between atoms: C_11  and  C_12
REMARK                            x       y       z     vdW  Elec       q    Type
REMARK                         _______ _______ _______ _____ _____    ______ ____
ROOT
ATOM      3  N   UNL     1      -1.675   1.365  24.100  0.00  0.00    -0.297 NA
ATOM      6  C   UNL     1       0.094   0.159  23.145  0.00  0.00    +0.070 C 
ATOM      7  C   UNL     1      -0.809  -0.798  23.943  0.00  0.00    +0.028 C 
ATOM      8  C   UNL     1      -0.304   1.561  23.624  0.00  0.00    +0.096 C 
ATOM      9  C   UNL     1      -1.641   0.106  24.843  0.00  0.00    +0.085 C 
ENDROOT
BRANCH   6  10
ATOM      2  F   UNL     1       7.350   0.469  23.328  0.00  0.00    -0.205 F 
ATOM      4  N   UNL     1       2.499   0.871  23.036  0.00  0.00    -0.341 N 
ATOM      5  N   UNL     1       2.143  -1.247  23.610  0.00  0.00    -0.232 NA
ATOM     10  C   UNL     1       1.576  -0.109  23.274  0.00  0.00    +0.113 A 
ATOM     13  C   UNL     1       3.744   0.330  23.232  0.00  0.00    +0.069 A 
ATOM     14  C   UNL     1       3.494  -0.992  23.590  0.00  0.00    +0.089 A 
ATOM     17  C   UNL     1       5.027   0.868  23.131  0.00  0.00    +0.066 A 
ATOM     18  C   UNL     1       4.577  -1.844  23.865  0.00  0.00    +0.032 A 
ATOM     19  C   UNL     1       6.094   0.006  23.410  0.00  0.00    +0.125 A 
ATOM     20  C   UNL     1       5.876  -1.326  23.769  0.00  0.00    +0.040 A 
ATOM     24  H   UNL     1       2.303   1.825  22.765  0.00  0.00    +0.167 HD
ENDBRANCH   6  10
BRANCH   3  11
ATOM     11  C   UNL     1      -2.145   2.476  24.913  0.00  0.00    +0.122 C 
BRANCH  11  12
ATOM      1  F   UNL     1      -3.591   4.572  26.154  0.00  0.00    -0.205 F 
ATOM     12  C   UNL     1      -3.642   2.455  25.082  0.00  0.00    +0.002 A 
ATOM     15  C   UNL     1      -4.290   3.521  25.703  0.00  0.00    +0.128 A 
ATOM     16  C   UNL     1      -4.378   1.366  24.616  0.00  0.00    +0.008 A 
ATOM     21  C   UNL     1      -5.676   3.500  25.857  0.00  0.00    +0.038 A 
ATOM     22  C   UNL     1      -5.764   1.344  24.770  0.00  0.00    +0.000 A 
ATOM     23  C   UNL     1      -6.413   2.411  25.392  0.00  0.00    +0.003 A 
ENDBRANCH  11  12
ENDBRANCH   3  11
TORSDOF 3
ENDMDL
MODEL 7
REMARK VINA RESULT:      -1.6     16.212     18.351
REMARK  Name = 51137102
REMARK  3 active torsions:
REMARK  status: ('A' for Active; 'I' for Inactive)
REMARK    1  A    between atoms: N_3  and  C_11
REMARK    2  A    between atoms: C_6  and  C_10
REMARK    3  A    between atoms: C_11  and  C_12
REMARK                            x       y       z     vdW  Elec       q    Type
REMARK                         _______ _______ _______ _____ _____    ______ ____
ROOT
ATOM      3  N   UNL     1      15.944 -10.293  29.532  0.00  0.00    -0.297 NA
ATOM      6  C   UNL     1      14.241  -9.828  31.076  0.00  0.00    +0.070 C 
ATOM      7  C   UNL     1      13.707 -10.780  29.992  0.00  0.00    +0.028 C 
ATOM      8  C   UNL     1      15.540  -9.260  30.489  0.00  0.00    +0.096 C 
ATOM      9  C   UNL     1      14.709 -10.678  28.850  0.00  0.00    +0.085 C 
ENDROOT
BRANCH   6  10
ATOM      2  F   UNL     1      10.860  -3.645  32.843  0.00  0.00    -0.205 F 
ATOM      4  N   UNL     1      13.633  -7.434  31.526  0.00  0.00    -0.341 N 
ATOM      5  N   UNL     1      12.032  -8.927  31.910  0.00  0.00    -0.232 NA
ATOM     10  C   UNL     1      13.272  -8.753  31.511  0.00  0.00    +0.113 A 
ATOM     13  C   UNL     1      12.554  -6.709  31.962  0.00  0.00    +0.069 A 
ATOM     14  C   UNL     1      11.568  -7.664  32.194  0.00  0.00    +0.089 A 
ATOM     17  C   UNL     1      12.361  -5.342  32.166  0.00  0.00    +0.066 A 
ATOM     18  C   UNL     1      10.308  -7.249  32.660  0.00  0.00    +0.032 A 
ATOM     19  C   UNL     1      11.102  -4.947  32.629  0.00  0.00    +0.125 A 
ATOM     20  C   UNL     1      10.092  -5.881  32.873  0.00  0.00    +0.040 A 
ATOM     24  H   UNL     1      14.533  -7.057  31.261  0.00  0.00    +0.167 HD
ENDBRANCH   6  10
BRANCH   3  11
ATOM     11  C   UNL     1      16.965  -9.825  28.608  0.00  0.00    +0.122 C 
BRANCH  11  12
ATOM      1  F   UNL     1      15.474  -7.606  27.670  0.00  0.00    -0.205 F 
ATOM     12  C   UNL     1      16.443  -9.721  27.199  0.00  0.00    +0.002 A 
ATOM     15  C   UNL     1      15.715  -8.600  26.803  0.00  0.00    +0.128 A 
ATOM     16  C   UNL     1      16.688 -10.750  26.290  0.00  0.00    +0.008 A 
ATOM     21  C   UNL     1      15.233  -8.506  25.498  0.00  0.00    +0.038 A 
ATOM     22  C   UNL     1      16.206 -10.657  24.985  0.00  0.00    +0.000 A 
ATOM     23  C   UNL     1      15.477  -9.534  24.588  0.00  0.00    +0.003 A 
ENDBRANCH  11  12
ENDBRANCH   3  11
TORSDOF 3
ENDMDL
MODEL 8
REMARK VINA RESULT:      -1.5      3.408      6.882
REMARK  Name = 51137102
REMARK  3 active torsions:
REMARK  status: ('A' for Active; 'I' for Inactive)
REMARK    1  A    between atoms: N_3  and  C_11
REMARK    2  A    between atoms: C_6  and  C_10
REMARK    3  A    between atoms: C_11  and  C_12
REMARK                            x       y       z     vdW  Elec       q    Type
REMARK                         _______ _______ _______ _____ _____    ______ ____
ROOT
ATOM      3  N   UNL     1      -0.329   3.641  25.305  0.00  0.00    -0.297 NA
ATOM      6  C   UNL     1      -0.233   1.299  25.226  0.00  0.00    +0.070 C 
ATOM      7  C   UNL     1       0.541   1.887  24.033  0.00  0.00    +0.028 C 
ATOM      8  C   UNL     1      -1.080   2.466  25.753  0.00  0.00    +0.096 C 
ATOM      9  C   UNL     1       0.072   3.332  23.933  0.00  0.00    +0.085 C 
ENDROOT
BRANCH   6  10
ATOM      2  F   UNL     1      -5.400  -3.495  23.463  0.00  0.00    -0.205 F 
ATOM      4  N   UNL     1      -2.375   0.168  24.564  0.00  0.00    -0.341 N 
ATOM      5  N   UNL     1      -0.641  -1.176  24.920  0.00  0.00    -0.232 NA
ATOM     10  C   UNL     1      -1.055   0.071  24.908  0.00  0.00    +0.113 A 
ATOM     13  C   UNL     1      -2.843  -1.101  24.338  0.00  0.00    +0.069 A 
ATOM     14  C   UNL     1      -1.742  -1.921  24.566  0.00  0.00    +0.089 A 
ATOM     17  C   UNL     1      -4.096  -1.586  23.963  0.00  0.00    +0.066 A 
ATOM     18  C   UNL     1      -1.881  -3.312  24.418  0.00  0.00    +0.032 A 
ATOM     19  C   UNL     1      -4.217  -2.972  23.820  0.00  0.00    +0.125 A 
ATOM     20  C   UNL     1      -3.131  -3.822  24.044  0.00  0.00    +0.040 A 
ATOM     24  H   UNL     1      -2.912   1.021  24.488  0.00  0.00    +0.167 HD
ENDBRANCH   6  10
BRANCH   3  11
ATOM     11  C   UNL     1      -1.111   4.865  25.392  0.00  0.00    +0.122 C 
BRANCH  11  12
ATOM      1  F   UNL     1      -2.727   4.172  27.614  0.00  0.00    -0.205 F 
ATOM     12  C   UNL     1      -2.589   4.596  25.282  0.00  0.00    +0.002 A 
ATOM     15  C   UNL     1      -3.325   4.259  26.417  0.00  0.00    +0.128 A 
ATOM     16  C   UNL     1      -3.221   4.685  24.042  0.00  0.00    +0.008 A 
ATOM     21  C   UNL     1      -4.693   4.012  26.313  0.00  0.00    +0.038 A 
ATOM     22  C   UNL     1      -4.589   4.437  23.937  0.00  0.00    +0.000 A 
ATOM     23  C   UNL     1      -5.326   4.100  25.073  0.00  0.00    +0.003 A 
ENDBRANCH  11  12
ENDBRANCH   3  11
TORSDOF 3
ENDMDL
MODEL 9
REMARK VINA RESULT:      -1.2      1.804      7.790
REMARK  Name = 51137102
REMARK  3 active torsions:
REMARK  status: ('A' for Active; 'I' for Inactive)
REMARK    1  A    between atoms: N_3  and  C_11
REMARK    2  A    between atoms: C_6  and  C_10
REMARK    3  A    between atoms: C_11  and  C_12
REMARK                            x       y       z     vdW  Elec       q    Type
REMARK                         _______ _______ _______ _____ _____    ______ ____
ROOT
ATOM      3  N   UNL     1      -4.132  -0.720  24.960  0.00  0.00    -0.297 NA
ATOM      6  C   UNL     1      -1.922  -1.361  24.504  0.00  0.00    +0.070 C 
ATOM      7  C   UNL     1      -2.063  -1.026  26.000  0.00  0.00    +0.028 C 
ATOM      8  C   UNL     1      -3.175  -0.762  23.851  0.00  0.00    +0.096 C 
ATOM      9  C   UNL     1      -3.362  -0.237  26.105  0.00  0.00    +0.085 C 
ENDROOT
BRANCH   6  10
ATOM      2  F   UNL     1       4.356   1.870  22.796  0.00  0.00    -0.205 F 
ATOM      4  N   UNL     1       0.156   0.047  24.473  0.00  0.00    -0.341 N 
ATOM      5  N   UNL     1      -0.143  -1.275  22.711  0.00  0.00    -0.232 NA
ATOM     10  C   UNL     1      -0.639  -0.885  23.865  0.00  0.00    +0.113 A 
ATOM     13  C   UNL     1       1.236   0.273  23.659  0.00  0.00    +0.069 A 
ATOM     14  C   UNL     1       1.025  -0.564  22.566  0.00  0.00    +0.089 A 
ATOM     17  C   UNL     1       2.344   1.111  23.781  0.00  0.00    +0.066 A 
ATOM     18  C   UNL     1       1.967  -0.578  21.523  0.00  0.00    +0.032 A 
ATOM     19  C   UNL     1       3.271   1.084  22.733  0.00  0.00    +0.125 A 
ATOM     20  C   UNL     1       3.088   0.257  21.623  0.00  0.00    +0.040 A 
ATOM     24  H   UNL     1      -0.018   0.492  25.364  0.00  0.00    +0.167 HD
ENDBRANCH   6  10
BRANCH   3  11
ATOM     11  C   UNL     1      -5.282   0.122  24.669  0.00  0.00    +0.122 C 
BRANCH  11  12
ATOM      1  F   UNL     1      -6.443   1.867  26.574  0.00  0.00    -0.205 F 
ATOM     12  C   UNL     1      -4.941   1.587  24.757  0.00  0.00    +0.002 A 
ATOM     15  C   UNL     1      -5.551   2.389  25.720  0.00  0.00    +0.128 A 
ATOM     16  C   UNL     1      -4.015   2.139  23.873  0.00  0.00    +0.008 A 
ATOM     21  C   UNL     1      -5.234   3.745  25.801  0.00  0.00    +0.038 A 
ATOM     22  C   UNL     1      -3.697   3.495  23.954  0.00  0.00    +0.000 A 
ATOM     23  C   UNL     1      -4.307   4.298  24.917  0.00  0.00    +0.003 A 
ENDBRANCH  11  12
ENDBRANCH   3  11
TORSDOF 3
ENDMDL
