MODEL 1
REMARK VINA RESULT:       4.5      0.000      0.000
REMARK  Name = 26763540
REMARK  9 active torsions:
REMARK  status: ('A' for Active; 'I' for Inactive)
REMARK    1  A    between atoms: O_2  and  C_15
REMARK    2  A    between atoms: O_3  and  C_20
REMARK    3  A    between atoms: N_8  and  C_26
REMARK    4  A    between atoms: C_10  and  C_18
REMARK    5  A    between atoms: C_12  and  C_20
REMARK    6  A    between atoms: C_12  and  C_21
REMARK    7  A    between atoms: C_13  and  C_23
REMARK    8  A    between atoms: C_23  and  C_24
REMARK    9  A    between atoms: C_29  and  C_30
REMARK                            x       y       z     vdW  Elec       q    Type
REMARK                         _______ _______ _______ _____ _____    ______ ____
ROOT
ATOM      1  S   UNL     1       0.436   2.089  25.822  0.00  0.00    -0.057 S 
ATOM      5  O   UNL     1       2.016  -0.096  21.996  0.00  0.00    -0.266 OA
ATOM      7  N   UNL     1      -0.255   1.199  23.494  0.00  0.00    -0.229 NA
ATOM      9  N   UNL     1       2.046   0.882  24.141  0.00  0.00    -0.258 N 
ATOM     10  C   UNL     1      -3.896   2.119  24.365  0.00  0.00    -0.019 C 
ATOM     11  C   UNL     1      -3.450   3.340  25.286  0.00  0.00    +0.011 C 
ATOM     12  C   UNL     1      -4.588   4.096  26.073  0.00  0.00    +0.021 C 
ATOM     13  C   UNL     1      -2.701   1.799  23.354  0.00  0.00    +0.054 C 
ATOM     14  C   UNL     1      -5.141   2.528  23.536  0.00  0.00    +0.010 C 
ATOM     15  C   UNL     1      -5.774   4.385  25.109  0.00  0.00    +0.123 C 
ATOM     16  C   UNL     1      -2.219   2.969  26.163  0.00  0.00    +0.049 C 
ATOM     17  C   UNL     1      -6.258   3.146  24.364  0.00  0.00    +0.032 C 
ATOM     18  C   UNL     1      -4.236   0.847  25.179  0.00  0.00    +0.012 C 
ATOM     19  C   UNL     1      -1.378   1.756  24.076  0.00  0.00    +0.058 A 
ATOM     21  C   UNL     1      -4.042   5.468  26.560  0.00  0.00    +0.016 C 
ATOM     22  C   UNL     1      -1.180   2.302  25.327  0.00  0.00    +0.015 A 
ATOM     25  C   UNL     1       0.758   1.311  24.325  0.00  0.00    +0.165 A 
ATOM     29  C   UNL     1       2.608   0.218  23.022  0.00  0.00    +0.285 C 
ATOM     37  H   UNL     1       2.668   1.079  24.921  0.00  0.00    +0.157 HD
ENDROOT
BRANCH  29  30
ATOM      6  O   UNL     1       4.424  -1.235  23.757  0.00  0.00    -0.458 OA
ATOM     30  C   UNL     1       4.058  -0.098  23.109  0.00  0.00    +0.189 A 
ATOM     31  C   UNL     1       5.167   0.566  22.636  0.00  0.00    +0.054 A 
ATOM     32  C   UNL     1       6.284  -0.213  23.019  0.00  0.00    +0.042 A 
ATOM     33  C   UNL     1       5.780  -1.298  23.698  0.00  0.00    +0.196 A 
ENDBRANCH  29  30
BRANCH  15   2
ATOM      2  O   UNL     1      -6.874   4.952  25.821  0.00  0.00    -0.391 OA
ATOM     34  H   UNL     1      -6.817   5.918  25.730  0.00  0.00    +0.210 HD
ENDBRANCH  15   2
BRANCH  12  20
ATOM     20  C   UNL     1      -5.077   3.369  27.345  0.00  0.00    +0.165 C 
BRANCH  20   3
ATOM      3  O   UNL     1      -6.201   2.592  26.994  0.00  0.00    -0.394 OA
ATOM     35  H   UNL     1      -6.035   1.685  27.303  0.00  0.00    +0.209 HD
ENDBRANCH  20   3
ENDBRANCH  12  20
BRANCH  13  23
ATOM     23  C   UNL     1      -2.912   0.548  22.491  0.00  0.00    +0.106 C 
BRANCH  23  24
ATOM      4  O   UNL     1      -4.375  -1.145  23.417  0.00  0.00    -0.276 OA
ATOM      8  N   UNL     1      -2.120  -1.155  23.971  0.00  0.00    -0.312 N 
ATOM     24  C   UNL     1      -3.248  -0.665  23.327  0.00  0.00    +0.214 C 
ATOM     36  H   UNL     1      -1.224  -0.691  23.845  0.00  0.00    +0.149 HD
BRANCH   8  26
ATOM     26  C   UNL     1      -2.160  -2.304  24.829  0.00  0.00    +0.073 C 
ATOM     27  C   UNL     1      -3.217  -2.447  25.886  0.00  0.00    +0.024 C 
ATOM     28  C   UNL     1      -3.231  -3.346  24.684  0.00  0.00    +0.024 C 
ENDBRANCH   8  26
ENDBRANCH  23  24
ENDBRANCH  13  23
TORSDOF 7
ENDMDL
