MODEL 1
REMARK VINA RESULT:      -5.3      0.000      0.000
REMARK  Name = 45784236
REMARK  3 active torsions:
REMARK  status: ('A' for Active; 'I' for Inactive)
REMARK    1  A    between atoms: N_2  and  C_11
REMARK    2  A    between atoms: C_6  and  C_10
REMARK    3  A    between atoms: C_11  and  C_13
REMARK                            x       y       z     vdW  Elec       q    Type
REMARK                         _______ _______ _______ _____ _____    ______ ____
ROOT
ATOM      2  N   UNL     1       0.669  -0.559  23.722  0.00  0.00    -0.296 NA
ATOM      6  C   UNL     1      -1.164  -0.082  25.104  0.00  0.00    +0.070 C 
ATOM      7  C   UNL     1      -1.313  -1.498  24.521  0.00  0.00    +0.028 C 
ATOM      8  C   UNL     1      -0.089   0.584  24.235  0.00  0.00    +0.096 C 
ATOM      9  C   UNL     1      -0.344  -1.546  23.348  0.00  0.00    +0.085 C 
ENDROOT
BRANCH   6  10
ATOM      1  F   UNL     1      -6.289   5.044  25.586  0.00  0.00    -0.205 F 
ATOM      3  N   UNL     1      -2.431   2.073  25.325  0.00  0.00    -0.341 N 
ATOM      4  N   UNL     1      -3.670   0.244  25.092  0.00  0.00    -0.232 NA
ATOM     10  C   UNL     1      -2.446   0.716  25.169  0.00  0.00    +0.113 A 
ATOM     12  C   UNL     1      -3.731   2.507  25.349  0.00  0.00    +0.069 A 
ATOM     14  C   UNL     1      -4.486   1.347  25.201  0.00  0.00    +0.089 A 
ATOM     15  C   UNL     1      -4.296   3.777  25.482  0.00  0.00    +0.066 A 
ATOM     16  C   UNL     1      -5.888   1.439  25.183  0.00  0.00    +0.032 A 
ATOM     18  C   UNL     1      -5.692   3.850  25.462  0.00  0.00    +0.125 A 
ATOM     19  C   UNL     1      -6.476   2.703  25.315  0.00  0.00    +0.040 A 
ATOM     23  H   UNL     1      -1.609   2.657  25.408  0.00  0.00    +0.167 HD
ENDBRANCH   6  10
BRANCH   2  11
ATOM     11  C   UNL     1       1.531  -0.198  22.606  0.00  0.00    +0.139 C 
BRANCH  11  13
ATOM      5  N   UNL     1       3.470  -1.330  23.541  0.00  0.00    -0.259 NA
ATOM     13  C   UNL     1       2.983  -0.191  22.999  0.00  0.00    +0.055 A 
ATOM     17  C   UNL     1       3.738   0.952  22.790  0.00  0.00    +0.024 A 
ATOM     20  C   UNL     1       5.077   0.926  23.162  0.00  0.00    +0.003 A 
ATOM     21  C   UNL     1       4.776  -1.319  23.891  0.00  0.00    +0.111 A 
ATOM     22  C   UNL     1       5.613  -0.228  23.725  0.00  0.00    +0.020 A 
ENDBRANCH  11  13
ENDBRANCH   2  11
TORSDOF 3
ENDMDL
MODEL 2
REMARK VINA RESULT:      -3.9     15.577     18.269
REMARK  Name = 45784236
REMARK  3 active torsions:
REMARK  status: ('A' for Active; 'I' for Inactive)
REMARK    1  A    between atoms: N_2  and  C_11
REMARK    2  A    between atoms: C_6  and  C_10
REMARK    3  A    between atoms: C_11  and  C_13
REMARK                            x       y       z     vdW  Elec       q    Type
REMARK                         _______ _______ _______ _____ _____    ______ ____
ROOT
ATOM      2  N   UNL     1      -9.336  -9.742  12.295  0.00  0.00    -0.296 NA
ATOM      6  C   UNL     1      -7.256  -9.187  11.366  0.00  0.00    +0.070 C 
ATOM      7  C   UNL     1      -7.989 -10.168  10.436  0.00  0.00    +0.028 C 
ATOM      8  C   UNL     1      -8.006  -9.282  12.700  0.00  0.00    +0.096 C 
ATOM      9  C   UNL     1      -9.087 -10.781  11.296  0.00  0.00    +0.085 C 
ENDROOT
BRANCH   6  10
ATOM      1  F   UNL     1      -0.016  -9.288  10.778  0.00  0.00    -0.205 F 
ATOM      3  N   UNL     1      -4.868  -8.806  10.695  0.00  0.00    -0.341 N 
ATOM      4  N   UNL     1      -5.185 -10.233  12.367  0.00  0.00    -0.232 NA
ATOM     10  C   UNL     1      -5.771  -9.433  11.505  0.00  0.00    +0.113 A 
ATOM     12  C   UNL     1      -3.615  -9.228  11.058  0.00  0.00    +0.069 A 
ATOM     14  C   UNL     1      -3.839 -10.118  12.104  0.00  0.00    +0.089 A 
ATOM     15  C   UNL     1      -2.342  -8.916  10.577  0.00  0.00    +0.066 A 
ATOM     16  C   UNL     1      -2.742 -10.744  12.719  0.00  0.00    +0.032 A 
ATOM     18  C   UNL     1      -1.262  -9.548  11.199  0.00  0.00    +0.125 A 
ATOM     19  C   UNL     1      -1.456 -10.447  12.252  0.00  0.00    +0.040 A 
ATOM     23  H   UNL     1      -5.081  -8.147   9.958  0.00  0.00    +0.167 HD
ENDBRANCH   6  10
BRANCH   2  11
ATOM     11  C   UNL     1     -10.122 -10.230  13.418  0.00  0.00    +0.139 C 
BRANCH  11  13
ATOM      5  N   UNL     1     -10.646  -8.226  14.695  0.00  0.00    -0.259 NA
ATOM     13  C   UNL     1      -9.937  -9.376  14.644  0.00  0.00    +0.055 A 
ATOM     17  C   UNL     1      -9.073  -9.798  15.642  0.00  0.00    +0.024 A 
ATOM     20  C   UNL     1      -8.925  -8.988  16.762  0.00  0.00    +0.003 A 
ATOM     21  C   UNL     1     -10.477  -7.464  15.798  0.00  0.00    +0.111 A 
ATOM     22  C   UNL     1      -9.637  -7.796  16.849  0.00  0.00    +0.020 A 
ENDBRANCH  11  13
ENDBRANCH   2  11
TORSDOF 3
ENDMDL
MODEL 3
REMARK VINA RESULT:      -3.4     14.592     16.832
REMARK  Name = 45784236
REMARK  3 active torsions:
REMARK  status: ('A' for Active; 'I' for Inactive)
REMARK    1  A    between atoms: N_2  and  C_11
REMARK    2  A    between atoms: C_6  and  C_10
REMARK    3  A    between atoms: C_11  and  C_13
REMARK                            x       y       z     vdW  Elec       q    Type
REMARK                         _______ _______ _______ _____ _____    ______ ____
ROOT
ATOM      2  N   UNL     1      -2.972 -10.759  15.579  0.00  0.00    -0.296 NA
ATOM      6  C   UNL     1      -3.494 -10.781  13.293  0.00  0.00    +0.070 C 
ATOM      7  C   UNL     1      -2.111 -10.138  13.500  0.00  0.00    +0.028 C 
ATOM      8  C   UNL     1      -4.133 -10.781  14.688  0.00  0.00    +0.096 C 
ATOM      9  C   UNL     1      -2.056  -9.788  14.981  0.00  0.00    +0.085 C 
ENDROOT
BRANCH   6  10
ATOM      1  F   UNL     1      -8.889  -8.174   9.187  0.00  0.00    -0.205 F 
ATOM      3  N   UNL     1      -5.720 -10.172  12.308  0.00  0.00    -0.341 N 
ATOM      4  N   UNL     1      -3.940  -9.420  11.211  0.00  0.00    -0.232 NA
ATOM     10  C   UNL     1      -4.356 -10.110  12.250  0.00  0.00    +0.113 A 
ATOM     12  C   UNL     1      -6.218  -9.476  11.237  0.00  0.00    +0.069 A 
ATOM     14  C   UNL     1      -5.088  -9.016  10.567  0.00  0.00    +0.089 A 
ATOM     15  C   UNL     1      -7.521  -9.217  10.809  0.00  0.00    +0.066 A 
ATOM     16  C   UNL     1      -5.246  -8.251   9.400  0.00  0.00    +0.032 A 
ATOM     18  C   UNL     1      -7.660  -8.454   9.645  0.00  0.00    +0.125 A 
ATOM     19  C   UNL     1      -6.545  -7.978   8.952  0.00  0.00    +0.040 A 
ATOM     23  H   UNL     1      -6.268 -10.646  13.014  0.00  0.00    +0.167 HD
ENDBRANCH   6  10
BRANCH   2  11
ATOM     11  C   UNL     1      -3.328 -10.414  16.948  0.00  0.00    +0.139 C 
BRANCH  11  13
ATOM      5  N   UNL     1      -5.489  -9.710  16.082  0.00  0.00    -0.259 NA
ATOM     13  C   UNL     1      -4.816 -10.259  17.117  0.00  0.00    +0.055 A 
ATOM     17  C   UNL     1      -5.413 -10.679  18.295  0.00  0.00    +0.024 A 
ATOM     20  C   UNL     1      -6.788 -10.524  18.419  0.00  0.00    +0.003 A 
ATOM     21  C   UNL     1      -6.825  -9.575  16.238  0.00  0.00    +0.111 A 
ATOM     22  C   UNL     1      -7.515  -9.961  17.376  0.00  0.00    +0.020 A 
ENDBRANCH  11  13
ENDBRANCH   2  11
TORSDOF 3
ENDMDL
MODEL 4
REMARK VINA RESULT:      -3.2     14.705     17.073
REMARK  Name = 45784236
REMARK  3 active torsions:
REMARK  status: ('A' for Active; 'I' for Inactive)
REMARK    1  A    between atoms: N_2  and  C_11
REMARK    2  A    between atoms: C_6  and  C_10
REMARK    3  A    between atoms: C_11  and  C_13
REMARK                            x       y       z     vdW  Elec       q    Type
REMARK                         _______ _______ _______ _____ _____    ______ ____
ROOT
ATOM      2  N   UNL     1      -5.439 -10.638  16.919  0.00  0.00    -0.296 NA
ATOM      6  C   UNL     1      -5.140 -10.781  14.598  0.00  0.00    +0.070 C 
ATOM      7  C   UNL     1      -3.881 -10.176  15.243  0.00  0.00    +0.028 C 
ATOM      8  C   UNL     1      -6.220 -10.674  15.681  0.00  0.00    +0.096 C 
ATOM      9  C   UNL     1      -4.321  -9.737  16.633  0.00  0.00    +0.085 C 
ENDROOT
BRANCH   6  10
ATOM      1  F   UNL     1      -8.656  -8.057   8.855  0.00  0.00    -0.205 F 
ATOM      3  N   UNL     1      -6.867 -10.025  12.942  0.00  0.00    -0.341 N 
ATOM      4  N   UNL     1      -4.752  -9.655  12.369  0.00  0.00    -0.232 NA
ATOM     10  C   UNL     1      -5.551 -10.145  13.290  0.00  0.00    +0.113 A 
ATOM     12  C   UNL     1      -6.922  -9.415  11.715  0.00  0.00    +0.069 A 
ATOM     14  C   UNL     1      -5.589  -9.194  11.378  0.00  0.00    +0.089 A 
ATOM     15  C   UNL     1      -7.990  -9.048  10.895  0.00  0.00    +0.066 A 
ATOM     16  C   UNL     1      -5.285  -8.571  10.156  0.00  0.00    +0.032 A 
ATOM     18  C   UNL     1      -7.670  -8.431   9.683  0.00  0.00    +0.125 A 
ATOM     19  C   UNL     1      -6.342  -8.195   9.318  0.00  0.00    +0.040 A 
ATOM     23  H   UNL     1      -7.661 -10.329  13.489  0.00  0.00    +0.167 HD
ENDBRANCH   6  10
BRANCH   2  11
ATOM     11  C   UNL     1      -6.227 -10.198  18.061  0.00  0.00    +0.139 C 
BRANCH  11  13
ATOM      5  N   UNL     1      -8.603 -10.627  18.356  0.00  0.00    -0.259 NA
ATOM     13  C   UNL     1      -7.659  -9.931  17.684  0.00  0.00    +0.055 A 
ATOM     17  C   UNL     1      -7.940  -9.005  16.692  0.00  0.00    +0.024 A 
ATOM     20  C   UNL     1      -9.272  -8.780  16.368  0.00  0.00    +0.003 A 
ATOM     21  C   UNL     1      -9.887 -10.383  18.015  0.00  0.00    +0.111 A 
ATOM     22  C   UNL     1     -10.271  -9.479  17.038  0.00  0.00    +0.020 A 
ENDBRANCH  11  13
ENDBRANCH   2  11
TORSDOF 3
ENDMDL
MODEL 5
REMARK VINA RESULT:      -2.8      3.339      7.495
REMARK  Name = 45784236
REMARK  3 active torsions:
REMARK  status: ('A' for Active; 'I' for Inactive)
REMARK    1  A    between atoms: N_2  and  C_11
REMARK    2  A    between atoms: C_6  and  C_10
REMARK    3  A    between atoms: C_11  and  C_13
REMARK                            x       y       z     vdW  Elec       q    Type
REMARK                         _______ _______ _______ _____ _____    ______ ____
ROOT
ATOM      2  N   UNL     1      -3.603   1.791  25.208  0.00  0.00    -0.296 NA
ATOM      6  C   UNL     1      -1.341   2.184  24.734  0.00  0.00    +0.070 C 
ATOM      7  C   UNL     1      -2.216   3.091  23.852  0.00  0.00    +0.028 C 
ATOM      8  C   UNL     1      -2.304   1.119  25.272  0.00  0.00    +0.096 C 
ATOM      9  C   UNL     1      -3.609   2.477  23.915  0.00  0.00    +0.085 C 
ENDROOT
BRANCH   6  10
ATOM      1  F   UNL     1       5.289   0.391  22.368  0.00  0.00    -0.205 F 
ATOM      3  N   UNL     1       1.131   2.004  24.340  0.00  0.00    -0.341 N 
ATOM      4  N   UNL     1      -0.144   0.664  23.108  0.00  0.00    -0.232 NA
ATOM     10  C   UNL     1      -0.137   1.593  24.038  0.00  0.00    +0.113 A 
ATOM     12  C   UNL     1       2.001   1.293  23.553  0.00  0.00    +0.069 A 
ATOM     14  C   UNL     1       1.181   0.463  22.793  0.00  0.00    +0.089 A 
ATOM     15  C   UNL     1       3.392   1.303  23.444  0.00  0.00    +0.066 A 
ATOM     16  C   UNL     1       1.766  -0.414  21.864  0.00  0.00    +0.032 A 
ATOM     18  C   UNL     1       3.957   0.424  22.516  0.00  0.00    +0.125 A 
ATOM     19  C   UNL     1       3.160  -0.421  21.739  0.00  0.00    +0.040 A 
ATOM     23  H   UNL     1       1.387   2.706  25.021  0.00  0.00    +0.167 HD
ENDBRANCH   6  10
BRANCH   2  11
ATOM     11  C   UNL     1      -4.716   0.864  25.348  0.00  0.00    +0.139 C 
BRANCH  11  13
ATOM      5  N   UNL     1      -3.646  -1.206  26.046  0.00  0.00    -0.259 NA
ATOM     13  C   UNL     1      -4.304  -0.555  25.060  0.00  0.00    +0.055 A 
ATOM     17  C   UNL     1      -4.611  -1.116  23.831  0.00  0.00    +0.024 A 
ATOM     20  C   UNL     1      -4.217  -2.428  23.598  0.00  0.00    +0.003 A 
ATOM     21  C   UNL     1      -3.279  -2.480  25.783  0.00  0.00    +0.111 A 
ATOM     22  C   UNL     1      -3.537  -3.130  24.588  0.00  0.00    +0.020 A 
ENDBRANCH  11  13
ENDBRANCH   2  11
TORSDOF 3
ENDMDL
MODEL 6
REMARK VINA RESULT:      -2.4     15.640     17.554
REMARK  Name = 45784236
REMARK  3 active torsions:
REMARK  status: ('A' for Active; 'I' for Inactive)
REMARK    1  A    between atoms: N_2  and  C_11
REMARK    2  A    between atoms: C_6  and  C_10
REMARK    3  A    between atoms: C_11  and  C_13
REMARK                            x       y       z     vdW  Elec       q    Type
REMARK                         _______ _______ _______ _____ _____    ______ ____
ROOT
ATOM      2  N   UNL     1      -1.657 -10.359  12.701  0.00  0.00    -0.296 NA
ATOM      6  C   UNL     1      -3.058 -10.341  10.821  0.00  0.00    +0.070 C 
ATOM      7  C   UNL     1      -2.043  -9.190  10.717  0.00  0.00    +0.028 C 
ATOM      8  C   UNL     1      -2.997 -10.781  12.289  0.00  0.00    +0.096 C 
ATOM      9  C   UNL     1      -1.489  -9.024  12.126  0.00  0.00    +0.085 C 
ENDROOT
BRANCH   6  10
ATOM      1  F   UNL     1      -9.097  -7.211   8.270  0.00  0.00    -0.205 F 
ATOM      3  N   UNL     1      -4.754  -8.764   9.854  0.00  0.00    -0.341 N 
ATOM      4  N   UNL     1      -5.510 -10.781  10.399  0.00  0.00    -0.232 NA
ATOM     10  C   UNL     1      -4.457  -9.996  10.366  0.00  0.00    +0.113 A 
ATOM     12  C   UNL     1      -6.088  -8.753   9.535  0.00  0.00    +0.069 A 
ATOM     14  C   UNL     1      -6.538 -10.024   9.884  0.00  0.00    +0.089 A 
ATOM     15  C   UNL     1      -6.915  -7.771   8.987  0.00  0.00    +0.066 A 
ATOM     16  C   UNL     1      -7.889 -10.352   9.682  0.00  0.00    +0.032 A 
ATOM     18  C   UNL     1      -8.256  -8.115   8.793  0.00  0.00    +0.125 A 
ATOM     19  C   UNL     1      -8.737  -9.382   9.133  0.00  0.00    +0.040 A 
ATOM     23  H   UNL     1      -4.109  -7.996   9.731  0.00  0.00    +0.167 HD
ENDBRANCH   6  10
BRANCH   2  11
ATOM     11  C   UNL     1      -1.493 -10.365  14.147  0.00  0.00    +0.139 C 
BRANCH  11  13
ATOM      5  N   UNL     1      -3.925 -10.318  14.102  0.00  0.00    -0.259 NA
ATOM     13  C   UNL     1      -2.815 -10.461  14.861  0.00  0.00    +0.055 A 
ATOM     17  C   UNL     1      -2.834 -10.689  16.227  0.00  0.00    +0.024 A 
ATOM     20  C   UNL     1      -4.071 -10.774  16.856  0.00  0.00    +0.003 A 
ATOM     21  C   UNL     1      -5.109 -10.407  14.747  0.00  0.00    +0.111 A 
ATOM     22  C   UNL     1      -5.235 -10.631  16.108  0.00  0.00    +0.020 A 
ENDBRANCH  11  13
ENDBRANCH   2  11
TORSDOF 3
ENDMDL
MODEL 7
REMARK VINA RESULT:      -2.1      3.278      7.605
REMARK  Name = 45784236
REMARK  3 active torsions:
REMARK  status: ('A' for Active; 'I' for Inactive)
REMARK    1  A    between atoms: N_2  and  C_11
REMARK    2  A    between atoms: C_6  and  C_10
REMARK    3  A    between atoms: C_11  and  C_13
REMARK                            x       y       z     vdW  Elec       q    Type
REMARK                         _______ _______ _______ _____ _____    ______ ____
ROOT
ATOM      2  N   UNL     1      -2.960  -0.044  24.489  0.00  0.00    -0.296 NA
ATOM      6  C   UNL     1      -0.944  -0.815  23.574  0.00  0.00    +0.070 C 
ATOM      7  C   UNL     1      -1.308  -1.663  24.804  0.00  0.00    +0.028 C 
ATOM      8  C   UNL     1      -1.833   0.431  23.684  0.00  0.00    +0.096 C 
ATOM      9  C   UNL     1      -2.354  -0.846  25.552  0.00  0.00    +0.085 C 
ENDROOT
BRANCH   6  10
ATOM      1  F   UNL     1       6.320  -0.730  23.607  0.00  0.00    -0.205 F 
ATOM      3  N   UNL     1       1.491  -1.367  23.833  0.00  0.00    -0.341 N 
ATOM      4  N   UNL     1       1.039   0.633  22.977  0.00  0.00    -0.232 NA
ATOM     10  C   UNL     1       0.525  -0.481  23.446  0.00  0.00    +0.113 A 
ATOM     12  C   UNL     1       2.710  -0.786  23.597  0.00  0.00    +0.069 A 
ATOM     14  C   UNL     1       2.403   0.462  23.063  0.00  0.00    +0.089 A 
ATOM     15  C   UNL     1       4.018  -1.232  23.799  0.00  0.00    +0.066 A 
ATOM     16  C   UNL     1       3.447   1.330  22.702  0.00  0.00    +0.032 A 
ATOM     18  C   UNL     1       5.044  -0.356  23.436  0.00  0.00    +0.125 A 
ATOM     19  C   UNL     1       4.767   0.903  22.896  0.00  0.00    +0.040 A 
ATOM     23  H   UNL     1       1.337  -2.287  24.223  0.00  0.00    +0.167 HD
ENDBRANCH   6  10
BRANCH   2  11
ATOM     11  C   UNL     1      -3.768   1.048  25.011  0.00  0.00    +0.139 C 
BRANCH  11  13
ATOM      5  N   UNL     1      -1.761   2.282  25.616  0.00  0.00    -0.259 NA
ATOM     13  C   UNL     1      -2.996   2.339  25.069  0.00  0.00    +0.055 A 
ATOM     17  C   UNL     1      -3.570   3.497  24.568  0.00  0.00    +0.024 A 
ATOM     20  C   UNL     1      -2.830   4.671  24.634  0.00  0.00    +0.003 A 
ATOM     21  C   UNL     1      -1.071   3.443  25.664  0.00  0.00    +0.111 A 
ATOM     22  C   UNL     1      -1.556   4.653  25.192  0.00  0.00    +0.020 A 
ENDBRANCH  11  13
ENDBRANCH   2  11
TORSDOF 3
ENDMDL
MODEL 8
REMARK VINA RESULT:      -1.8      3.378      6.718
REMARK  Name = 45784236
REMARK  3 active torsions:
REMARK  status: ('A' for Active; 'I' for Inactive)
REMARK    1  A    between atoms: N_2  and  C_11
REMARK    2  A    between atoms: C_6  and  C_10
REMARK    3  A    between atoms: C_11  and  C_13
REMARK                            x       y       z     vdW  Elec       q    Type
REMARK                         _______ _______ _______ _____ _____    ______ ____
ROOT
ATOM      2  N   UNL     1      -0.272   3.630  25.225  0.00  0.00    -0.296 NA
ATOM      6  C   UNL     1      -0.204   1.287  25.167  0.00  0.00    +0.070 C 
ATOM      7  C   UNL     1       0.548   1.854  23.951  0.00  0.00    +0.028 C 
ATOM      8  C   UNL     1      -1.025   2.468  25.700  0.00  0.00    +0.096 C 
ATOM      9  C   UNL     1       0.094   3.304  23.846  0.00  0.00    +0.085 C 
ENDROOT
BRANCH   6  10
ATOM      1  F   UNL     1      -5.434  -3.457  23.461  0.00  0.00    -0.205 F 
ATOM      3  N   UNL     1      -2.351   0.179  24.491  0.00  0.00    -0.341 N 
ATOM      4  N   UNL     1      -0.664  -1.189  24.959  0.00  0.00    -0.232 NA
ATOM     10  C   UNL     1      -1.046   0.066  24.879  0.00  0.00    +0.113 A 
ATOM     12  C   UNL     1      -2.845  -1.087  24.307  0.00  0.00    +0.069 A 
ATOM     14  C   UNL     1      -1.773  -1.924  24.605  0.00  0.00    +0.089 A 
ATOM     15  C   UNL     1      -4.099  -1.559  23.916  0.00  0.00    +0.066 A 
ATOM     16  C   UNL     1      -1.943  -3.315  24.514  0.00  0.00    +0.032 A 
ATOM     18  C   UNL     1      -4.251  -2.946  23.831  0.00  0.00    +0.125 A 
ATOM     19  C   UNL     1      -3.193  -3.811  24.124  0.00  0.00    +0.040 A 
ATOM     23  H   UNL     1      -2.865   1.040  24.360  0.00  0.00    +0.167 HD
ENDBRANCH   6  10
BRANCH   2  11
ATOM     11  C   UNL     1      -1.038   4.865  25.318  0.00  0.00    +0.139 C 
BRANCH  11  13
ATOM      5  N   UNL     1      -3.118   4.548  24.097  0.00  0.00    -0.259 NA
ATOM     13  C   UNL     1      -2.520   4.606  25.309  0.00  0.00    +0.055 A 
ATOM     17  C   UNL     1      -3.189   4.440  26.511  0.00  0.00    +0.024 A 
ATOM     20  C   UNL     1      -4.557   4.201  26.468  0.00  0.00    +0.003 A 
ATOM     21  C   UNL     1      -4.449   4.314  24.094  0.00  0.00    +0.111 A 
ATOM     22  C   UNL     1      -5.207   4.136  25.240  0.00  0.00    +0.020 A 
ENDBRANCH  11  13
ENDBRANCH   2  11
TORSDOF 3
ENDMDL
