MODEL 1
REMARK VINA RESULT:       3.5      0.000      0.000
REMARK  Name = 11884513
REMARK  8 active torsions:
REMARK  status: ('A' for Active; 'I' for Inactive)
REMARK    1  A    between atoms: O_6  and  C_22
REMARK    2  A    between atoms: O_6  and  C_33
REMARK    3  A    between atoms: O_7  and  C_34
REMARK    4  A    between atoms: N_10  and  C_18
REMARK    5  A    between atoms: N_11  and  C_20
REMARK    6  A    between atoms: C_18  and  C_21
REMARK    7  A    between atoms: C_19  and  C_22
REMARK    8  A    between atoms: C_33  and  C_34
REMARK                            x       y       z     vdW  Elec       q    Type
REMARK                         _______ _______ _______ _____ _____    ______ ____
ROOT
ATOM      3  O   UNL     1       0.236   3.056  23.395  0.00  0.00    -0.273 OA
ATOM      4  O   UNL     1       0.305  -1.361  24.975  0.00  0.00    -0.252 OA
ATOM      5  O   UNL     1      -0.956   5.243  25.261  0.00  0.00    -0.273 OA
ATOM      9  N   UNL     1      -2.190   3.432  24.520  0.00  0.00    -0.286 N 
ATOM     10  N   UNL     1      -1.561  -0.059  25.310  0.00  0.00    -0.275 N 
ATOM     11  N   UNL     1       0.323   0.824  24.128  0.00  0.00    -0.192 N 
ATOM     12  C   UNL     1      -2.255   1.202  25.185  0.00  0.00    +0.109 C 
ATOM     13  C   UNL     1      -1.326   2.393  25.085  0.00  0.00    +0.183 C 
ATOM     14  C   UNL     1      -3.127   1.336  23.934  0.00  0.00    +0.044 C 
ATOM     15  C   UNL     1      -3.357   2.842  23.861  0.00  0.00    +0.110 C 
ATOM     16  C   UNL     1      -0.186   2.145  24.111  0.00  0.00    +0.250 C 
ATOM     17  C   UNL     1      -0.276  -0.283  24.802  0.00  0.00    +0.316 C 
ATOM     19  C   UNL     1      -1.952   4.785  24.701  0.00  0.00    +0.242 C 
ENDROOT
BRANCH  11  20
ATOM      1 CL   UNL     1       5.468   0.995  24.006  0.00  0.00    -0.081 Cl
ATOM      2  F   UNL     1       5.022  -0.136  21.302  0.00  0.00    -0.204 F 
ATOM     20  C   UNL     1       1.550   0.574  23.396  0.00  0.00    +0.047 A 
ATOM     23  C   UNL     1       2.770   0.870  23.986  0.00  0.00    +0.047 A 
ATOM     24  C   UNL     1       1.485   0.044  22.115  0.00  0.00    +0.027 A 
ATOM     27  C   UNL     1       3.949   0.631  23.282  0.00  0.00    +0.078 A 
ATOM     28  C   UNL     1       2.664  -0.195  21.409  0.00  0.00    +0.041 A 
ATOM     31  C   UNL     1       3.896   0.099  21.993  0.00  0.00    +0.142 A 
ENDBRANCH  11  20
BRANCH  10  18
ATOM     18  C   UNL     1      -2.293  -1.139  25.964  0.00  0.00    +0.144 C 
BRANCH  18  21
ATOM     21  C   UNL     1      -3.098  -1.945  24.986  0.00  0.00    -0.030 A 
ATOM     25  C   UNL     1      -4.251  -1.401  24.431  0.00  0.00    +0.005 A 
ATOM     26  C   UNL     1      -2.682  -3.227  24.644  0.00  0.00    +0.005 A 
ATOM     29  C   UNL     1      -4.998  -2.150  23.523  0.00  0.00    +0.000 A 
ATOM     30  C   UNL     1      -3.429  -3.975  23.735  0.00  0.00    +0.000 A 
ATOM     32  C   UNL     1      -4.588  -3.437  23.175  0.00  0.00    +0.000 A 
ENDBRANCH  18  21
ENDBRANCH  10  18
BRANCH  19  22
ATOM     22  C   UNL     1      -3.010   5.707  24.149  0.00  0.00    +0.256 C 
BRANCH  22   6
ATOM      6  O   UNL     1      -4.252   5.109  24.432  0.00  0.00    -0.359 OA
BRANCH   6  33
ATOM     33  C   UNL     1      -4.295   4.559  25.748  0.00  0.00    +0.280 C 
BRANCH  33  34
ATOM      8  O   UNL     1      -5.758   2.702  26.307  0.00  0.00    -0.248 OA
ATOM     34  C   UNL     1      -5.611   3.866  25.966  0.00  0.00    +0.331 C 
BRANCH  34   7
ATOM      7  O   UNL     1      -6.637   4.722  25.729  0.00  0.00    -0.479 OA
ATOM     35  H   UNL     1      -6.849   4.783  24.773  0.00  0.00    +0.295 HD
ENDBRANCH  34   7
ENDBRANCH  33  34
ENDBRANCH   6  33
ENDBRANCH  22   6
ENDBRANCH  19  22
TORSDOF 8
ENDMDL
MODEL 2
REMARK VINA RESULT:       3.5      2.107      4.991
REMARK  Name = 11884513
REMARK  8 active torsions:
REMARK  status: ('A' for Active; 'I' for Inactive)
REMARK    1  A    between atoms: O_6  and  C_22
REMARK    2  A    between atoms: O_6  and  C_33
REMARK    3  A    between atoms: O_7  and  C_34
REMARK    4  A    between atoms: N_10  and  C_18
REMARK    5  A    between atoms: N_11  and  C_20
REMARK    6  A    between atoms: C_18  and  C_21
REMARK    7  A    between atoms: C_19  and  C_22
REMARK    8  A    between atoms: C_33  and  C_34
REMARK                            x       y       z     vdW  Elec       q    Type
REMARK                         _______ _______ _______ _____ _____    ______ ____
ROOT
ATOM      3  O   UNL     1       1.038  -1.649  24.035  0.00  0.00    -0.273 OA
ATOM      4  O   UNL     1       1.728   2.940  23.346  0.00  0.00    -0.252 OA
ATOM      5  O   UNL     1      -1.728  -2.834  23.237  0.00  0.00    -0.273 OA
ATOM      9  N   UNL     1      -1.500  -1.161  24.818  0.00  0.00    -0.286 N 
ATOM     10  N   UNL     1      -0.269   2.206  24.218  0.00  0.00    -0.275 N 
ATOM     11  N   UNL     1       1.463   0.639  23.699  0.00  0.00    -0.192 N 
ATOM     12  C   UNL     1      -1.142   1.132  24.635  0.00  0.00    +0.109 C 
ATOM     13  C   UNL     1      -0.853  -0.182  23.942  0.00  0.00    +0.183 C 
ATOM     14  C   UNL     1      -1.052   0.768  26.119  0.00  0.00    +0.044 C 
ATOM     15  C   UNL     1      -1.716  -0.605  26.156  0.00  0.00    +0.110 C 
ATOM     16  C   UNL     1       0.635  -0.491  23.906  0.00  0.00    +0.250 C 
ATOM     17  C   UNL     1       1.030   1.999  23.741  0.00  0.00    +0.316 C 
ATOM     19  C   UNL     1      -1.930  -2.400  24.372  0.00  0.00    +0.242 C 
ENDROOT
BRANCH  11  20
ATOM      1 CL   UNL     1       5.533  -2.486  24.136  0.00  0.00    -0.081 Cl
ATOM      2  F   UNL     1       6.852  -0.282  22.654  0.00  0.00    -0.204 F 
ATOM     20  C   UNL     1       2.866   0.394  23.428  0.00  0.00    +0.047 A 
ATOM     23  C   UNL     1       3.450  -0.788  23.862  0.00  0.00    +0.047 A 
ATOM     24  C   UNL     1       3.605   1.346  22.740  0.00  0.00    +0.027 A 
ATOM     27  C   UNL     1       4.800  -1.022  23.602  0.00  0.00    +0.078 A 
ATOM     28  C   UNL     1       4.955   1.113  22.480  0.00  0.00    +0.041 A 
ATOM     31  C   UNL     1       5.552  -0.072  22.911  0.00  0.00    +0.142 A 
ENDBRANCH  11  20
BRANCH  10  18
ATOM     18  C   UNL     1      -0.794   3.560  24.363  0.00  0.00    +0.144 C 
BRANCH  18  21
ATOM     21  C   UNL     1      -2.248   3.562  24.737  0.00  0.00    -0.030 A 
ATOM     25  C   UNL     1      -2.633   4.003  25.998  0.00  0.00    +0.005 A 
ATOM     26  C   UNL     1      -3.195   3.123  23.819  0.00  0.00    +0.005 A 
ATOM     29  C   UNL     1      -3.984   4.005  26.344  0.00  0.00    +0.000 A 
ATOM     30  C   UNL     1      -4.545   3.125  24.165  0.00  0.00    +0.000 A 
ATOM     32  C   UNL     1      -4.940   3.566  25.429  0.00  0.00    +0.000 A 
ENDBRANCH  18  21
ENDBRANCH  10  18
BRANCH  19  22
ATOM     22  C   UNL     1      -2.680  -3.229  25.383  0.00  0.00    +0.256 C 
BRANCH  22   6
ATOM      6  O   UNL     1      -3.982  -2.700  25.450  0.00  0.00    -0.359 OA
BRANCH   6  33
ATOM     33  C   UNL     1      -4.411  -2.172  24.196  0.00  0.00    +0.280 C 
BRANCH  33  34
ATOM      8  O   UNL     1      -4.865  -0.023  25.236  0.00  0.00    -0.248 OA
ATOM     34  C   UNL     1      -4.483  -0.672  24.274  0.00  0.00    +0.331 C 
BRANCH  34   7
ATOM      7  O   UNL     1      -4.058  -0.122  23.108  0.00  0.00    -0.479 OA
ATOM     35  H   UNL     1      -3.094   0.064  23.121  0.00  0.00    +0.295 HD
ENDBRANCH  34   7
ENDBRANCH  33  34
ENDBRANCH   6  33
ENDBRANCH  22   6
ENDBRANCH  19  22
TORSDOF 8
ENDMDL
MODEL 3
REMARK VINA RESULT:       4.7      3.348      6.810
REMARK  Name = 11884513
REMARK  8 active torsions:
REMARK  status: ('A' for Active; 'I' for Inactive)
REMARK    1  A    between atoms: O_6  and  C_22
REMARK    2  A    between atoms: O_6  and  C_33
REMARK    3  A    between atoms: O_7  and  C_34
REMARK    4  A    between atoms: N_10  and  C_18
REMARK    5  A    between atoms: N_11  and  C_20
REMARK    6  A    between atoms: C_18  and  C_21
REMARK    7  A    between atoms: C_19  and  C_22
REMARK    8  A    between atoms: C_33  and  C_34
REMARK                            x       y       z     vdW  Elec       q    Type
REMARK                         _______ _______ _______ _____ _____    ______ ____
ROOT
ATOM      3  O   UNL     1      -1.930   0.775  25.179  0.00  0.00    -0.273 OA
ATOM      4  O   UNL     1       1.871   2.853  23.376  0.00  0.00    -0.252 OA
ATOM      5  O   UNL     1      -1.556  -2.000  26.537  0.00  0.00    -0.273 OA
ATOM      9  N   UNL     1      -1.042  -1.624  24.313  0.00  0.00    -0.286 N 
ATOM     10  N   UNL     1       1.543   0.599  23.056  0.00  0.00    -0.275 N 
ATOM     11  N   UNL     1      -0.066   1.886  24.271  0.00  0.00    -0.192 N 
ATOM     12  C   UNL     1       0.776  -0.605  23.275  0.00  0.00    +0.109 C 
ATOM     13  C   UNL     1      -0.052  -0.569  24.542  0.00  0.00    +0.183 C 
ATOM     14  C   UNL     1      -0.261  -0.914  22.192  0.00  0.00    +0.044 C 
ATOM     15  C   UNL     1      -1.160  -1.932  22.887  0.00  0.00    +0.110 C 
ATOM     16  C   UNL     1      -0.794   0.748  24.699  0.00  0.00    +0.250 C 
ATOM     17  C   UNL     1       1.160   1.855  23.541  0.00  0.00    +0.316 C 
ATOM     19  C   UNL     1      -1.681  -2.290  25.347  0.00  0.00    +0.242 C 
ENDROOT
BRANCH  11  20
ATOM      1 CL   UNL     1      -3.603   4.644  26.802  0.00  0.00    -0.081 Cl
ATOM      2  F   UNL     1      -2.163   6.891  25.511  0.00  0.00    -0.204 F 
ATOM     20  C   UNL     1      -0.615   3.188  24.598  0.00  0.00    +0.047 A 
ATOM     23  C   UNL     1      -1.713   3.274  25.443  0.00  0.00    +0.047 A 
ATOM     24  C   UNL     1      -0.035   4.328  24.060  0.00  0.00    +0.027 A 
ATOM     27  C   UNL     1      -2.241   4.526  25.755  0.00  0.00    +0.078 A 
ATOM     28  C   UNL     1      -0.563   5.580  24.372  0.00  0.00    +0.041 A 
ATOM     31  C   UNL     1      -1.666   5.679  25.220  0.00  0.00    +0.142 A 
ENDBRANCH  11  20
BRANCH  10  18
ATOM     18  C   UNL     1       2.747   0.460  22.243  0.00  0.00    +0.144 C 
BRANCH  18  21
ATOM     21  C   UNL     1       3.922  -0.005  23.053  0.00  0.00    -0.030 A 
ATOM     25  C   UNL     1       4.936   0.892  23.370  0.00  0.00    +0.005 A 
ATOM     26  C   UNL     1       3.985  -1.326  23.479  0.00  0.00    +0.005 A 
ATOM     29  C   UNL     1       6.027   0.460  24.124  0.00  0.00    +0.000 A 
ATOM     30  C   UNL     1       5.075  -1.758  24.233  0.00  0.00    +0.000 A 
ATOM     32  C   UNL     1       6.097  -0.865  24.555  0.00  0.00    +0.000 A 
ENDBRANCH  18  21
ENDBRANCH  10  18
BRANCH  19  22
ATOM     22  C   UNL     1      -2.579  -3.426  24.928  0.00  0.00    +0.256 C 
BRANCH  22   6
ATOM      6  O   UNL     1      -3.901  -2.969  25.076  0.00  0.00    -0.359 OA
BRANCH   6  33
ATOM     33  C   UNL     1      -4.323  -2.180  23.964  0.00  0.00    +0.280 C 
BRANCH  33  34
ATOM      8  O   UNL     1      -4.690  -0.275  25.427  0.00  0.00    -0.248 OA
ATOM     34  C   UNL     1      -4.336  -0.727  24.348  0.00  0.00    +0.331 C 
BRANCH  34   7
ATOM      7  O   UNL     1      -3.893   0.034  23.316  0.00  0.00    -0.479 OA
ATOM     35  H   UNL     1      -3.225   0.692  23.606  0.00  0.00    +0.295 HD
ENDBRANCH  34   7
ENDBRANCH  33  34
ENDBRANCH   6  33
ENDBRANCH  22   6
ENDBRANCH  19  22
TORSDOF 8
ENDMDL
MODEL 4
REMARK VINA RESULT:       6.4      4.386      8.206
REMARK  Name = 11884513
REMARK  8 active torsions:
REMARK  status: ('A' for Active; 'I' for Inactive)
REMARK    1  A    between atoms: O_6  and  C_22
REMARK    2  A    between atoms: O_6  and  C_33
REMARK    3  A    between atoms: O_7  and  C_34
REMARK    4  A    between atoms: N_10  and  C_18
REMARK    5  A    between atoms: N_11  and  C_20
REMARK    6  A    between atoms: C_18  and  C_21
REMARK    7  A    between atoms: C_19  and  C_22
REMARK    8  A    between atoms: C_33  and  C_34
REMARK                            x       y       z     vdW  Elec       q    Type
REMARK                         _______ _______ _______ _____ _____    ______ ____
ROOT
ATOM      3  O   UNL     1      -1.986   0.534  23.522  0.00  0.00    -0.273 OA
ATOM      4  O   UNL     1      -2.240   3.487  27.159  0.00  0.00    -0.252 OA
ATOM      5  O   UNL     1       0.296  -1.583  23.532  0.00  0.00    -0.273 OA
ATOM      9  N   UNL     1       0.709   0.693  23.567  0.00  0.00    -0.286 N 
ATOM     10  N   UNL     1      -0.194   2.997  26.228  0.00  0.00    -0.275 N 
ATOM     11  N   UNL     1      -2.188   2.034  25.322  0.00  0.00    -0.192 N 
ATOM     12  C   UNL     1       0.613   2.278  25.269  0.00  0.00    +0.109 C 
ATOM     13  C   UNL     1      -0.014   0.980  24.807  0.00  0.00    +0.183 C 
ATOM     14  C   UNL     1       0.871   3.024  23.958  0.00  0.00    +0.044 C 
ATOM     15  C   UNL     1       1.340   1.903  23.036  0.00  0.00    +0.110 C 
ATOM     16  C   UNL     1      -1.486   1.150  24.466  0.00  0.00    +0.250 C 
ATOM     17  C   UNL     1      -1.589   2.896  26.289  0.00  0.00    +0.316 C 
ATOM     19  C   UNL     1       0.844  -0.588  23.056  0.00  0.00    +0.242 C 
ENDROOT
BRANCH  11  20
ATOM      1 CL   UNL     1      -6.530   4.800  25.438  0.00  0.00    -0.081 Cl
ATOM      2  F   UNL     1      -7.733   2.153  24.857  0.00  0.00    -0.204 F 
ATOM     20  C   UNL     1      -3.633   2.070  25.200  0.00  0.00    +0.047 A 
ATOM     23  C   UNL     1      -4.302   3.275  25.359  0.00  0.00    +0.047 A 
ATOM     24  C   UNL     1      -4.325   0.898  24.928  0.00  0.00    +0.027 A 
ATOM     27  C   UNL     1      -5.691   3.309  25.243  0.00  0.00    +0.078 A 
ATOM     28  C   UNL     1      -5.714   0.931  24.813  0.00  0.00    +0.041 A 
ATOM     31  C   UNL     1      -6.397   2.137  24.970  0.00  0.00    +0.142 A 
ENDBRANCH  11  20
BRANCH  10  18
ATOM     18  C   UNL     1       0.519   3.897  27.129  0.00  0.00    +0.144 C 
BRANCH  18  21
ATOM     21  C   UNL     1       1.202   3.154  28.240  0.00  0.00    -0.030 A 
ATOM     25  C   UNL     1       0.453   2.678  29.311  0.00  0.00    +0.005 A 
ATOM     26  C   UNL     1       2.576   2.950  28.189  0.00  0.00    +0.005 A 
ATOM     29  C   UNL     1       1.088   1.988  30.343  0.00  0.00    +0.000 A 
ATOM     30  C   UNL     1       3.211   2.259  29.221  0.00  0.00    +0.000 A 
ATOM     32  C   UNL     1       2.467   1.779  30.298  0.00  0.00    +0.000 A 
ENDBRANCH  18  21
ENDBRANCH  10  18
BRANCH  19  22
ATOM     22  C   UNL     1       1.722  -0.709  21.836  0.00  0.00    +0.256 C 
BRANCH  22   6
ATOM      6  O   UNL     1       2.968  -0.156  22.181  0.00  0.00    -0.359 OA
BRANCH   6  33
ATOM     33  C   UNL     1       3.656  -0.947  23.149  0.00  0.00    +0.280 C 
BRANCH  33  34
ATOM      8  O   UNL     1       5.058   1.009  23.484  0.00  0.00    -0.248 OA
ATOM     34  C   UNL     1       4.785  -0.152  23.745  0.00  0.00    +0.331 C 
BRANCH  34   7
ATOM      7  O   UNL     1       5.475  -0.912  24.633  0.00  0.00    -0.479 OA
ATOM     35  H   UNL     1       5.467  -0.522  25.533  0.00  0.00    +0.295 HD
ENDBRANCH  34   7
ENDBRANCH  33  34
ENDBRANCH   6  33
ENDBRANCH  22   6
ENDBRANCH  19  22
TORSDOF 8
ENDMDL
