MODEL 1
REMARK VINA RESULT:       8.5      0.000      0.000
REMARK  Name = 11883119
REMARK  11 active torsions:
REMARK  status: ('A' for Active; 'I' for Inactive)
REMARK    1  A    between atoms: O_3  and  C_15
REMARK    2  A    between atoms: O_4  and  C_20
REMARK    3  A    between atoms: N_8  and  C_26
REMARK    4  A    between atoms: N_8  and  C_27
REMARK    5  A    between atoms: C_10  and  C_18
REMARK    6  A    between atoms: C_12  and  C_20
REMARK    7  A    between atoms: C_12  and  C_21
REMARK    8  A    between atoms: C_13  and  C_23
REMARK    9  A    between atoms: C_23  and  C_24
REMARK   10  A    between atoms: C_26  and  C_29
REMARK   11  A    between atoms: C_28  and  C_30
REMARK                            x       y       z     vdW  Elec       q    Type
REMARK                         _______ _______ _______ _____ _____    ______ ____
ROOT
ATOM      1  S   UNL     1       0.237   2.170  25.768  0.00  0.00    -0.057 S 
ATOM      6  O   UNL     1       1.690  -0.393  22.163  0.00  0.00    -0.270 OA
ATOM      7  N   UNL     1      -0.507   0.967  23.601  0.00  0.00    -0.229 NA
ATOM      9  N   UNL     1       1.831   0.833  24.171  0.00  0.00    -0.261 N 
ATOM     10  C   UNL     1      -4.150   1.829  24.529  0.00  0.00    -0.019 C 
ATOM     11  C   UNL     1      -3.726   3.173  25.269  0.00  0.00    +0.011 C 
ATOM     12  C   UNL     1      -4.866   3.971  26.013  0.00  0.00    +0.021 C 
ATOM     13  C   UNL     1      -2.983   1.441  23.507  0.00  0.00    +0.054 C 
ATOM     14  C   UNL     1      -5.448   2.075  23.716  0.00  0.00    +0.010 C 
ATOM     15  C   UNL     1      -6.103   4.085  25.079  0.00  0.00    +0.123 C 
ATOM     16  C   UNL     1      -2.442   2.970  26.125  0.00  0.00    +0.049 C 
ATOM     17  C   UNL     1      -6.557   2.744  24.516  0.00  0.00    +0.032 C 
ATOM     18  C   UNL     1      -4.390   0.653  25.506  0.00  0.00    +0.012 C 
ATOM     19  C   UNL     1      -1.631   1.543  24.164  0.00  0.00    +0.058 A 
ATOM     21  C   UNL     1      -4.368   5.415  26.302  0.00  0.00    +0.016 C 
ATOM     22  C   UNL     1      -1.407   2.249  25.329  0.00  0.00    +0.015 A 
ATOM     25  C   UNL     1       0.533   1.226  24.364  0.00  0.00    +0.165 A 
ATOM     28  C   UNL     1       2.327   0.064  23.107  0.00  0.00    +0.250 C 
ATOM     39  H   UNL     1       2.469   1.196  24.873  0.00  0.00    +0.157 HD
ENDROOT
BRANCH  28  30
ATOM      2  F   UNL     1       6.104  -2.723  24.271  0.00  0.00    -0.205 F 
ATOM     30  C   UNL     1       3.792  -0.190  23.133  0.00  0.00    +0.040 A 
ATOM     31  C   UNL     1       4.255  -1.358  23.701  0.00  0.00    +0.051 A 
ATOM     32  C   UNL     1       4.639   0.751  22.587  0.00  0.00    +0.013 A 
ATOM     34  C   UNL     1       5.629  -1.596  23.724  0.00  0.00    +0.124 A 
ATOM     35  C   UNL     1       6.013   0.513  22.610  0.00  0.00    +0.004 A 
ATOM     36  C   UNL     1       6.508  -0.660  23.179  0.00  0.00    +0.038 A 
ENDBRANCH  28  30
BRANCH  15   3
ATOM      3  O   UNL     1      -7.199   4.688  25.768  0.00  0.00    -0.391 OA
ATOM     37  H   UNL     1      -7.778   3.978  26.091  0.00  0.00    +0.210 HD
ENDBRANCH  15   3
BRANCH  12  20
ATOM     20  C   UNL     1      -5.264   3.387  27.388  0.00  0.00    +0.165 C 
BRANCH  20   4
ATOM      4  O   UNL     1      -6.294   2.448  27.174  0.00  0.00    -0.394 OA
ATOM     38  H   UNL     1      -6.054   1.627  27.634  0.00  0.00    +0.209 HD
ENDBRANCH  20   4
ENDBRANCH  12  20
BRANCH  13  23
ATOM     23  C   UNL     1      -3.170   0.084  22.813  0.00  0.00    +0.106 C 
BRANCH  23  24
ATOM      5  O   UNL     1      -4.998  -0.877  24.029  0.00  0.00    -0.276 OA
ATOM      8  N   UNL     1      -2.949  -1.952  24.192  0.00  0.00    -0.293 N 
ATOM     24  C   UNL     1      -3.803  -0.945  23.729  0.00  0.00    +0.217 C 
ATOM     27  C   UNL     1      -3.404  -3.016  25.079  0.00  0.00    +0.133 C 
BRANCH   8  26
ATOM     26  C   UNL     1      -1.536  -2.011  23.824  0.00  0.00    +0.196 C 
BRANCH  26  29
ATOM     29  C   UNL     1      -0.683  -2.022  25.012  0.00  0.00    -0.086 C 
ATOM     33  C   UNL     1       0.020  -2.034  25.984  0.00  0.00    +0.005 C 
ENDBRANCH  26  29
ENDBRANCH   8  26
ENDBRANCH  23  24
ENDBRANCH  13  23
TORSDOF 8
ENDMDL
MODEL 2
REMARK VINA RESULT:      11.4      1.026      1.619
REMARK  Name = 11883119
REMARK  11 active torsions:
REMARK  status: ('A' for Active; 'I' for Inactive)
REMARK    1  A    between atoms: O_3  and  C_15
REMARK    2  A    between atoms: O_4  and  C_20
REMARK    3  A    between atoms: N_8  and  C_26
REMARK    4  A    between atoms: N_8  and  C_27
REMARK    5  A    between atoms: C_10  and  C_18
REMARK    6  A    between atoms: C_12  and  C_20
REMARK    7  A    between atoms: C_12  and  C_21
REMARK    8  A    between atoms: C_13  and  C_23
REMARK    9  A    between atoms: C_23  and  C_24
REMARK   10  A    between atoms: C_26  and  C_29
REMARK   11  A    between atoms: C_28  and  C_30
REMARK                            x       y       z     vdW  Elec       q    Type
REMARK                         _______ _______ _______ _____ _____    ______ ____
ROOT
ATOM      1  S   UNL     1       0.531   2.369  25.683  0.00  0.00    -0.057 S 
ATOM      6  O   UNL     1       1.994  -0.462  22.289  0.00  0.00    -0.270 OA
ATOM      7  N   UNL     1      -0.222   0.931  23.669  0.00  0.00    -0.229 NA
ATOM      9  N   UNL     1       2.137   0.958  24.165  0.00  0.00    -0.261 N 
ATOM     10  C   UNL     1      -3.871   1.713  24.640  0.00  0.00    -0.019 C 
ATOM     11  C   UNL     1      -3.490   3.140  25.233  0.00  0.00    +0.011 C 
ATOM     12  C   UNL     1      -4.643   3.954  25.938  0.00  0.00    +0.021 C 
ATOM     13  C   UNL     1      -2.719   1.280  23.619  0.00  0.00    +0.054 C 
ATOM     14  C   UNL     1      -5.204   1.821  23.854  0.00  0.00    +0.010 C 
ATOM     15  C   UNL     1      -5.913   3.921  25.042  0.00  0.00    +0.123 C 
ATOM     16  C   UNL     1      -2.171   3.079  26.058  0.00  0.00    +0.049 C 
ATOM     17  C   UNL     1      -6.319   2.512  24.626  0.00  0.00    +0.032 C 
ATOM     18  C   UNL     1      -4.024   0.628  25.732  0.00  0.00    +0.012 C 
ATOM     19  C   UNL     1      -1.354   1.507  24.214  0.00  0.00    +0.058 A 
ATOM     21  C   UNL     1      -4.207   5.440  26.070  0.00  0.00    +0.016 C 
ATOM     22  C   UNL     1      -1.128   2.332  25.297  0.00  0.00    +0.015 A 
ATOM     25  C   UNL     1       0.828   1.308  24.366  0.00  0.00    +0.165 A 
ATOM     28  C   UNL     1       2.636   0.112  23.162  0.00  0.00    +0.250 C 
ATOM     39  H   UNL     1       2.778   1.416  24.806  0.00  0.00    +0.157 HD
ENDROOT
BRANCH  28  30
ATOM      2  F   UNL     1       6.705  -1.364  25.318  0.00  0.00    -0.205 F 
ATOM     30  C   UNL     1       4.112  -0.071  23.159  0.00  0.00    +0.040 A 
ATOM     31  C   UNL     1       4.713  -0.641  24.262  0.00  0.00    +0.051 A 
ATOM     32  C   UNL     1       4.830   0.334  22.055  0.00  0.00    +0.013 A 
ATOM     34  C   UNL     1       6.097  -0.814  24.258  0.00  0.00    +0.124 A 
ATOM     35  C   UNL     1       6.214   0.161  22.052  0.00  0.00    +0.004 A 
ATOM     36  C   UNL     1       6.848  -0.413  23.154  0.00  0.00    +0.038 A 
ENDBRANCH  28  30
BRANCH  15   3
ATOM      3  O   UNL     1      -7.014   4.538  25.709  0.00  0.00    -0.391 OA
ATOM     37  H   UNL     1      -6.763   4.677  26.637  0.00  0.00    +0.210 HD
ENDBRANCH  15   3
BRANCH  12  20
ATOM     20  C   UNL     1      -4.970   3.488  27.375  0.00  0.00    +0.165 C 
BRANCH  20   4
ATOM      4  O   UNL     1      -6.041   2.576  27.298  0.00  0.00    -0.394 OA
ATOM     38  H   UNL     1      -6.797   2.957  27.775  0.00  0.00    +0.209 HD
ENDBRANCH  20   4
ENDBRANCH  12  20
BRANCH  13  23
ATOM     23  C   UNL     1      -2.861  -0.144  23.064  0.00  0.00    +0.106 C 
BRANCH  23  24
ATOM      5  O   UNL     1      -0.615  -0.981  23.043  0.00  0.00    -0.276 OA
ATOM      8  N   UNL     1      -2.086  -1.960  24.546  0.00  0.00    -0.293 N 
ATOM     24  C   UNL     1      -1.744  -1.055  23.535  0.00  0.00    +0.217 C 
ATOM     27  C   UNL     1      -1.127  -2.903  25.108  0.00  0.00    +0.133 C 
BRANCH   8  26
ATOM     26  C   UNL     1      -3.431  -2.029  25.113  0.00  0.00    +0.196 C 
BRANCH  26  29
ATOM     29  C   UNL     1      -4.385  -2.561  24.140  0.00  0.00    -0.086 C 
ATOM     33  C   UNL     1      -5.164  -2.996  23.338  0.00  0.00    +0.005 C 
ENDBRANCH  26  29
ENDBRANCH   8  26
ENDBRANCH  23  24
ENDBRANCH  13  23
TORSDOF 8
ENDMDL
