MODEL 1
REMARK VINA RESULT:      -1.7      0.000      0.000
REMARK  Name = 38027067
REMARK  12 active torsions:
REMARK  status: ('A' for Active; 'I' for Inactive)
REMARK    1  A    between atoms: N_4  and  C_16
REMARK    2  A    between atoms: N_5  and  C_23
REMARK    3  A    between atoms: N_6  and  C_24
REMARK    4  A    between atoms: C_9  and  C_13
REMARK    5  A    between atoms: C_10  and  C_16
REMARK    6  A    between atoms: C_12  and  C_17
REMARK    7  A    between atoms: C_13  and  C_18
REMARK    8  A    between atoms: C_13  and  C_19
REMARK    9  A    between atoms: C_14  and  C_20
REMARK   10  A    between atoms: C_17  and  C_21
REMARK   11  A    between atoms: C_22  and  C_27
REMARK   12  A    between atoms: C_23  and  C_24
REMARK                            x       y       z     vdW  Elec       q    Type
REMARK                         _______ _______ _______ _____ _____    ______ ____
ROOT
ATOM      9  C   UNL     1      -1.782   0.386  24.750  0.00  0.00    +0.000 C 
ATOM     10  C   UNL     1      -0.829  -0.818  24.547  0.00  0.00    +0.032 C 
ATOM     11  C   UNL     1      -2.891   0.029  25.751  0.00  0.00    +0.012 C 
ATOM     12  C   UNL     1      -3.725  -1.181  25.289  0.00  0.00    +0.023 C 
ATOM     14  C   UNL     1      -2.847  -2.322  24.817  0.00  0.00    -0.073 C 
ATOM     15  C   UNL     1      -1.552  -2.144  24.503  0.00  0.00    -0.022 C 
ATOM     20  C   UNL     1      -3.481  -3.684  24.758  0.00  0.00    +0.039 C 
ENDROOT
BRANCH   9  13
ATOM     13  C   UNL     1      -1.030   1.631  25.231  0.00  0.00    -0.013 C 
ATOM     18  C   UNL     1      -0.225   1.314  26.487  0.00  0.00    +0.007 C 
ATOM     19  C   UNL     1      -0.123   2.165  24.128  0.00  0.00    +0.007 C 
ENDBRANCH   9  13
BRANCH  10  16
ATOM     16  C   UNL     1       0.012  -0.652  23.276  0.00  0.00    +0.112 C 
BRANCH  16   4
ATOM      3  O   UNL     1       2.156  -0.018  21.475  0.00  0.00    -0.268 OA
ATOM      4  N   UNL     1       1.405  -0.602  23.592  0.00  0.00    -0.309 N 
ATOM     22  C   UNL     1       2.384  -0.284  22.652  0.00  0.00    +0.264 C 
ATOM     33  H   UNL     1       1.691  -0.769  24.552  0.00  0.00    +0.149 HD
BRANCH  22  27
ATOM      7  N   UNL     1       4.205  -1.427  23.746  0.00  0.00    -0.247 NA
ATOM      8  N   UNL     1       5.898   0.781  23.391  0.00  0.00    -0.259 NA
ATOM     27  C   UNL     1       3.791  -0.301  23.132  0.00  0.00    +0.143 A 
ATOM     30  C   UNL     1       4.622   0.784  22.958  0.00  0.00    +0.143 A 
ATOM     31  C   UNL     1       5.482  -1.429  24.180  0.00  0.00    +0.131 A 
ATOM     32  C   UNL     1       6.313  -0.344  24.006  0.00  0.00    +0.130 A 
ENDBRANCH  22  27
ENDBRANCH  16   4
ENDBRANCH  10  16
BRANCH  12  17
ATOM     17  C   UNL     1      -4.731  -0.778  24.206  0.00  0.00    +0.103 C 
BRANCH  17  21
ATOM      1  O   UNL     1      -4.275   1.441  23.354  0.00  0.00    -0.276 OA
ATOM      5  N   UNL     1      -5.865   1.161  25.025  0.00  0.00    -0.314 N 
ATOM     21  C   UNL     1      -4.907   0.722  24.123  0.00  0.00    +0.214 C 
ATOM     34  H   UNL     1      -6.340   0.483  25.615  0.00  0.00    +0.149 HD
BRANCH   5  23
ATOM     23  C   UNL     1      -6.238   2.549  25.165  0.00  0.00    +0.119 C 
BRANCH  23  24
ATOM     24  C   UNL     1      -5.373   3.251  26.202  0.00  0.00    +0.103 C 
BRANCH  24   6
ATOM      2  O   UNL     1      -1.965   5.283  24.836  0.00  0.00    -0.377 OA
ATOM      6  N   UNL     1      -4.045   3.522  25.655  0.00  0.00    -0.297 NA
ATOM     25  C   UNL     1      -3.214   4.237  26.634  0.00  0.00    +0.112 C 
ATOM     26  C   UNL     1      -4.141   4.300  24.412  0.00  0.00    +0.112 C 
ATOM     28  C   UNL     1      -1.839   4.520  26.038  0.00  0.00    +0.175 C 
ATOM     29  C   UNL     1      -2.744   4.580  23.867  0.00  0.00    +0.175 C 
ENDBRANCH  24   6
ENDBRANCH  23  24
ENDBRANCH   5  23
ENDBRANCH  17  21
ENDBRANCH  12  17
TORSDOF 9
ENDMDL
MODEL 2
REMARK VINA RESULT:      -1.7      1.953      7.214
REMARK  Name = 38027067
REMARK  12 active torsions:
REMARK  status: ('A' for Active; 'I' for Inactive)
REMARK    1  A    between atoms: N_4  and  C_16
REMARK    2  A    between atoms: N_5  and  C_23
REMARK    3  A    between atoms: N_6  and  C_24
REMARK    4  A    between atoms: C_9  and  C_13
REMARK    5  A    between atoms: C_10  and  C_16
REMARK    6  A    between atoms: C_12  and  C_17
REMARK    7  A    between atoms: C_13  and  C_18
REMARK    8  A    between atoms: C_13  and  C_19
REMARK    9  A    between atoms: C_14  and  C_20
REMARK   10  A    between atoms: C_17  and  C_21
REMARK   11  A    between atoms: C_22  and  C_27
REMARK   12  A    between atoms: C_23  and  C_24
REMARK                            x       y       z     vdW  Elec       q    Type
REMARK                         _______ _______ _______ _____ _____    ______ ____
ROOT
ATOM      9  C   UNL     1      -4.102   3.153  25.680  0.00  0.00    +0.000 C 
ATOM     10  C   UNL     1      -3.967   3.843  24.299  0.00  0.00    +0.032 C 
ATOM     11  C   UNL     1      -3.251   3.884  26.730  0.00  0.00    +0.012 C 
ATOM     12  C   UNL     1      -1.760   3.921  26.347  0.00  0.00    +0.023 C 
ATOM     14  C   UNL     1      -1.559   4.338  24.904  0.00  0.00    -0.073 C 
ATOM     15  C   UNL     1      -2.560   4.309  24.007  0.00  0.00    -0.022 C 
ATOM     20  C   UNL     1      -0.190   4.833  24.526  0.00  0.00    +0.039 C 
ENDROOT
BRANCH   9  13
ATOM     13  C   UNL     1      -5.561   3.094  26.144  0.00  0.00    -0.013 C 
ATOM     18  C   UNL     1      -6.344   4.280  25.589  0.00  0.00    +0.007 C 
ATOM     19  C   UNL     1      -6.202   1.777  25.722  0.00  0.00    +0.007 C 
ENDBRANCH   9  13
BRANCH  10  16
ATOM     16  C   UNL     1      -4.444   2.921  23.171  0.00  0.00    +0.112 C 
BRANCH  16   4
ATOM      3  O   UNL     1      -2.032   1.373  23.011  0.00  0.00    -0.268 OA
ATOM      4  N   UNL     1      -4.286   1.548  23.536  0.00  0.00    -0.309 N 
ATOM     22  C   UNL     1      -3.073   0.870  23.426  0.00  0.00    +0.264 C 
ATOM     33  H   UNL     1      -5.083   1.056  23.928  0.00  0.00    +0.149 HD
BRANCH  22  27
ATOM      7  N   UNL     1      -4.238  -1.230  23.654  0.00  0.00    -0.247 NA
ATOM      8  N   UNL     1      -1.950  -2.467  24.702  0.00  0.00    -0.259 NA
ATOM     27  C   UNL     1      -3.079  -0.562  23.822  0.00  0.00    +0.143 A 
ATOM     30  C   UNL     1      -1.955  -1.170  24.338  0.00  0.00    +0.143 A 
ATOM     31  C   UNL     1      -4.232  -2.528  24.019  0.00  0.00    +0.131 A 
ATOM     32  C   UNL     1      -3.108  -3.135  24.534  0.00  0.00    +0.130 A 
ENDBRANCH  22  27
ENDBRANCH  16   4
ENDBRANCH  10  16
BRANCH  12  17
ATOM     17  C   UNL     1      -1.084   2.574  26.629  0.00  0.00    +0.103 C 
BRANCH  17  21
ATOM      1  O   UNL     1       1.314   2.854  26.459  0.00  0.00    -0.276 OA
ATOM      5  N   UNL     1       0.149   1.867  24.708  0.00  0.00    -0.314 N 
ATOM     21  C   UNL     1       0.265   2.462  25.954  0.00  0.00    +0.214 C 
ATOM     34  H   UNL     1      -0.766   1.569  24.381  0.00  0.00    +0.149 HD
BRANCH   5  23
ATOM     23  C   UNL     1       1.279   1.633  23.837  0.00  0.00    +0.119 C 
BRANCH  23  24
ATOM     24  C   UNL     1       1.301   0.196  23.336  0.00  0.00    +0.103 C 
BRANCH  24   6
ATOM      2  O   UNL     1       5.427  -0.502  23.661  0.00  0.00    -0.377 OA
ATOM      6  N   UNL     1       2.669  -0.211  23.021  0.00  0.00    -0.297 NA
ATOM     25  C   UNL     1       3.135  -1.242  23.958  0.00  0.00    +0.112 C 
ATOM     26  C   UNL     1       3.578   0.944  23.050  0.00  0.00    +0.112 C 
ATOM     28  C   UNL     1       4.568  -1.642  23.617  0.00  0.00    +0.175 C 
ATOM     29  C   UNL     1       5.000   0.493  22.729  0.00  0.00    +0.175 C 
ENDBRANCH  24   6
ENDBRANCH  23  24
ENDBRANCH   5  23
ENDBRANCH  17  21
ENDBRANCH  12  17
TORSDOF 9
ENDMDL
MODEL 3
REMARK VINA RESULT:      -0.5      1.931      4.374
REMARK  Name = 38027067
REMARK  12 active torsions:
REMARK  status: ('A' for Active; 'I' for Inactive)
REMARK    1  A    between atoms: N_4  and  C_16
REMARK    2  A    between atoms: N_5  and  C_23
REMARK    3  A    between atoms: N_6  and  C_24
REMARK    4  A    between atoms: C_9  and  C_13
REMARK    5  A    between atoms: C_10  and  C_16
REMARK    6  A    between atoms: C_12  and  C_17
REMARK    7  A    between atoms: C_13  and  C_18
REMARK    8  A    between atoms: C_13  and  C_19
REMARK    9  A    between atoms: C_14  and  C_20
REMARK   10  A    between atoms: C_17  and  C_21
REMARK   11  A    between atoms: C_22  and  C_27
REMARK   12  A    between atoms: C_23  and  C_24
REMARK                            x       y       z     vdW  Elec       q    Type
REMARK                         _______ _______ _______ _____ _____    ______ ____
ROOT
ATOM      9  C   UNL     1      -2.347   2.568  23.485  0.00  0.00    +0.000 C 
ATOM     10  C   UNL     1      -0.844   2.308  23.757  0.00  0.00    +0.032 C 
ATOM     11  C   UNL     1      -2.814   3.833  24.223  0.00  0.00    +0.012 C 
ATOM     12  C   UNL     1      -2.604   3.730  25.745  0.00  0.00    +0.023 C 
ATOM     14  C   UNL     1      -1.220   3.218  26.089  0.00  0.00    -0.073 C 
ATOM     15  C   UNL     1      -0.443   2.598  25.185  0.00  0.00    -0.022 C 
ATOM     20  C   UNL     1      -0.731   3.478  27.487  0.00  0.00    +0.039 C 
ENDROOT
BRANCH   9  13
ATOM     13  C   UNL     1      -2.638   2.705  21.987  0.00  0.00    -0.013 C 
ATOM     18  C   UNL     1      -2.595   1.338  21.311  0.00  0.00    +0.007 C 
ATOM     19  C   UNL     1      -3.989   3.375  21.766  0.00  0.00    +0.007 C 
ENDBRANCH   9  13
BRANCH  10  16
ATOM     16  C   UNL     1      -0.457   0.869  23.400  0.00  0.00    +0.112 C 
BRANCH  16   4
ATOM      3  O   UNL     1       1.425  -0.347  21.605  0.00  0.00    -0.268 OA
ATOM      4  N   UNL     1       0.932   0.641  23.646  0.00  0.00    -0.309 N 
ATOM     22  C   UNL     1       1.779   0.041  22.715  0.00  0.00    +0.264 C 
ATOM     33  H   UNL     1       1.329   0.965  24.523  0.00  0.00    +0.149 HD
BRANCH  22  27
ATOM      7  N   UNL     1       4.002   0.924  23.027  0.00  0.00    -0.247 NA
ATOM      8  N   UNL     1       4.925  -1.546  23.983  0.00  0.00    -0.259 NA
ATOM     27  C   UNL     1       3.192  -0.148  23.133  0.00  0.00    +0.143 A 
ATOM     30  C   UNL     1       3.645  -1.362  23.603  0.00  0.00    +0.143 A 
ATOM     31  C   UNL     1       5.282   0.739  23.408  0.00  0.00    +0.131 A 
ATOM     32  C   UNL     1       5.735  -0.475  23.877  0.00  0.00    +0.130 A 
ENDBRANCH  22  27
ENDBRANCH  16   4
ENDBRANCH  10  16
BRANCH  12  17
ATOM     17  C   UNL     1      -3.688   2.861  26.395  0.00  0.00    +0.103 C 
BRANCH  17  21
ATOM      1  O   UNL     1      -5.507   2.797  24.801  0.00  0.00    -0.276 OA
ATOM      5  N   UNL     1      -4.235   0.887  25.163  0.00  0.00    -0.314 N 
ATOM     21  C   UNL     1      -4.588   2.213  25.368  0.00  0.00    +0.214 C 
ATOM     34  H   UNL     1      -3.450   0.496  25.677  0.00  0.00    +0.149 HD
BRANCH   5  23
ATOM     23  C   UNL     1      -4.926   0.021  24.235  0.00  0.00    +0.119 C 
BRANCH  23  24
ATOM     24  C   UNL     1      -4.322  -1.376  24.231  0.00  0.00    +0.103 C 
BRANCH  24   6
ATOM      2  O   UNL     1      -0.497  -2.171  25.764  0.00  0.00    -0.377 OA
ATOM      6  N   UNL     1      -2.882  -1.308  24.474  0.00  0.00    -0.297 NA
ATOM     25  C   UNL     1      -2.233  -2.576  24.118  0.00  0.00    +0.112 C 
ATOM     26  C   UNL     1      -2.605  -0.976  25.879  0.00  0.00    +0.112 C 
ATOM     28  C   UNL     1      -0.734  -2.486  24.390  0.00  0.00    +0.175 C 
ATOM     29  C   UNL     1      -1.098  -0.922  26.110  0.00  0.00    +0.175 C 
ENDBRANCH  24   6
ENDBRANCH  23  24
ENDBRANCH   5  23
ENDBRANCH  17  21
ENDBRANCH  12  17
TORSDOF 9
ENDMDL
MODEL 4
REMARK VINA RESULT:       0.1      1.972      4.670
REMARK  Name = 38027067
REMARK  12 active torsions:
REMARK  status: ('A' for Active; 'I' for Inactive)
REMARK    1  A    between atoms: N_4  and  C_16
REMARK    2  A    between atoms: N_5  and  C_23
REMARK    3  A    between atoms: N_6  and  C_24
REMARK    4  A    between atoms: C_9  and  C_13
REMARK    5  A    between atoms: C_10  and  C_16
REMARK    6  A    between atoms: C_12  and  C_17
REMARK    7  A    between atoms: C_13  and  C_18
REMARK    8  A    between atoms: C_13  and  C_19
REMARK    9  A    between atoms: C_14  and  C_20
REMARK   10  A    between atoms: C_17  and  C_21
REMARK   11  A    between atoms: C_22  and  C_27
REMARK   12  A    between atoms: C_23  and  C_24
REMARK                            x       y       z     vdW  Elec       q    Type
REMARK                         _______ _______ _______ _____ _____    ______ ____
ROOT
ATOM      9  C   UNL     1      -2.604   2.028  23.724  0.00  0.00    +0.000 C 
ATOM     10  C   UNL     1      -1.226   2.502  24.248  0.00  0.00    +0.032 C 
ATOM     11  C   UNL     1      -3.441   3.229  23.253  0.00  0.00    +0.012 C 
ATOM     12  C   UNL     1      -3.672   4.254  24.379  0.00  0.00    +0.023 C 
ATOM     14  C   UNL     1      -2.392   4.572  25.124  0.00  0.00    -0.073 C 
ATOM     15  C   UNL     1      -1.305   3.785  25.043  0.00  0.00    -0.022 C 
ATOM     20  C   UNL     1      -2.374   5.841  25.929  0.00  0.00    +0.039 C 
ENDROOT
BRANCH   9  13
ATOM     13  C   UNL     1      -2.461   1.017  22.582  0.00  0.00    -0.013 C 
ATOM     18  C   UNL     1      -3.535  -0.061  22.688  0.00  0.00    +0.007 C 
ATOM     19  C   UNL     1      -2.534   1.723  21.233  0.00  0.00    +0.007 C 
ENDBRANCH   9  13
BRANCH  10  16
ATOM     16  C   UNL     1      -0.552   1.417  25.096  0.00  0.00    +0.112 C 
BRANCH  16   4
ATOM      3  O   UNL     1       0.407  -0.260  22.972  0.00  0.00    -0.268 OA
ATOM      4  N   UNL     1       0.810   1.237  24.700  0.00  0.00    -0.309 N 
ATOM     22  C   UNL     1       1.189   0.399  23.652  0.00  0.00    +0.264 C 
ATOM     33  H   UNL     1       1.528   1.771  25.178  0.00  0.00    +0.149 HD
BRANCH  22  27
ATOM      7  N   UNL     1       3.243   1.397  22.874  0.00  0.00    -0.247 NA
ATOM      8  N   UNL     1       4.669  -0.962  23.393  0.00  0.00    -0.259 NA
ATOM     27  C   UNL     1       2.647   0.300  23.381  0.00  0.00    +0.143 A 
ATOM     30  C   UNL     1       3.348  -0.859  23.636  0.00  0.00    +0.143 A 
ATOM     31  C   UNL     1       4.565   1.294  22.631  0.00  0.00    +0.131 A 
ATOM     32  C   UNL     1       5.265   0.135  22.886  0.00  0.00    +0.130 A 
ENDBRANCH  22  27
ENDBRANCH  16   4
ENDBRANCH  10  16
BRANCH  12  17
ATOM     17  C   UNL     1      -4.765   3.777  25.344  0.00  0.00    +0.103 C 
BRANCH  17  21
ATOM      1  O   UNL     1      -6.210   2.133  24.312  0.00  0.00    -0.276 OA
ATOM      5  N   UNL     1      -4.432   1.427  25.630  0.00  0.00    -0.314 N 
ATOM     21  C   UNL     1      -5.237   2.378  25.021  0.00  0.00    +0.214 C 
ATOM     34  H   UNL     1      -3.642   1.732  26.193  0.00  0.00    +0.149 HD
BRANCH   5  23
ATOM     23  C   UNL     1      -4.650   0.005  25.497  0.00  0.00    +0.119 C 
BRANCH  23  24
ATOM     24  C   UNL     1      -3.879  -0.772  26.554  0.00  0.00    +0.103 C 
BRANCH  24   6
ATOM      2  O   UNL     1      -1.592  -2.910  23.759  0.00  0.00    -0.377 OA
ATOM      6  N   UNL     1      -3.079  -1.824  25.928  0.00  0.00    -0.297 NA
ATOM     25  C   UNL     1      -1.737  -1.329  25.593  0.00  0.00    +0.112 C 
ATOM     26  C   UNL     1      -3.743  -2.337  24.722  0.00  0.00    +0.112 C 
ATOM     28  C   UNL     1      -0.925  -2.438  24.932  0.00  0.00    +0.175 C 
ATOM     29  C   UNL     1      -2.885  -3.424  24.081  0.00  0.00    +0.175 C 
ENDBRANCH  24   6
ENDBRANCH  23  24
ENDBRANCH   5  23
ENDBRANCH  17  21
ENDBRANCH  12  17
TORSDOF 9
ENDMDL
MODEL 5
REMARK VINA RESULT:       0.5      2.032      6.612
REMARK  Name = 38027067
REMARK  12 active torsions:
REMARK  status: ('A' for Active; 'I' for Inactive)
REMARK    1  A    between atoms: N_4  and  C_16
REMARK    2  A    between atoms: N_5  and  C_23
REMARK    3  A    between atoms: N_6  and  C_24
REMARK    4  A    between atoms: C_9  and  C_13
REMARK    5  A    between atoms: C_10  and  C_16
REMARK    6  A    between atoms: C_12  and  C_17
REMARK    7  A    between atoms: C_13  and  C_18
REMARK    8  A    between atoms: C_13  and  C_19
REMARK    9  A    between atoms: C_14  and  C_20
REMARK   10  A    between atoms: C_17  and  C_21
REMARK   11  A    between atoms: C_22  and  C_27
REMARK   12  A    between atoms: C_23  and  C_24
REMARK                            x       y       z     vdW  Elec       q    Type
REMARK                         _______ _______ _______ _____ _____    ______ ____
ROOT
ATOM      9  C   UNL     1      -4.374   3.097  25.371  0.00  0.00    +0.000 C 
ATOM     10  C   UNL     1      -4.863   1.955  24.446  0.00  0.00    +0.032 C 
ATOM     11  C   UNL     1      -3.790   4.249  24.539  0.00  0.00    +0.012 C 
ATOM     12  C   UNL     1      -2.610   3.793  23.660  0.00  0.00    +0.023 C 
ATOM     14  C   UNL     1      -2.925   2.512  22.915  0.00  0.00    -0.073 C 
ATOM     15  C   UNL     1      -3.944   1.711  23.272  0.00  0.00    -0.022 C 
ATOM     20  C   UNL     1      -2.069   2.196  21.720  0.00  0.00    +0.039 C 
ENDROOT
BRANCH   9  13
ATOM     13  C   UNL     1      -5.499   3.623  26.268  0.00  0.00    -0.013 C 
ATOM     18  C   UNL     1      -6.172   4.830  25.623  0.00  0.00    +0.007 C 
ATOM     19  C   UNL     1      -6.516   2.522  26.548  0.00  0.00    +0.007 C 
ENDBRANCH   9  13
BRANCH  10  16
ATOM     16  C   UNL     1      -5.052   0.650  25.227  0.00  0.00    +0.112 C 
BRANCH  16   4
ATOM      3  O   UNL     1      -4.279  -1.743  23.842  0.00  0.00    -0.268 OA
ATOM      4  N   UNL     1      -3.811  -0.047  25.357  0.00  0.00    -0.309 N 
ATOM     22  C   UNL     1      -3.516  -1.208  24.643  0.00  0.00    +0.264 C 
ATOM     33  H   UNL     1      -3.098   0.341  25.967  0.00  0.00    +0.149 HD
BRANCH  22  27
ATOM      7  N   UNL     1      -1.465  -1.292  25.910  0.00  0.00    -0.247 NA
ATOM      8  N   UNL     1      -0.537  -3.464  24.397  0.00  0.00    -0.259 NA
ATOM     27  C   UNL     1      -2.192  -1.828  24.909  0.00  0.00    +0.143 A 
ATOM     30  C   UNL     1      -1.736  -2.895  24.166  0.00  0.00    +0.143 A 
ATOM     31  C   UNL     1      -0.265  -1.862  26.140  0.00  0.00    +0.131 A 
ATOM     32  C   UNL     1       0.191  -2.929  25.397  0.00  0.00    +0.130 A 
ENDBRANCH  22  27
ENDBRANCH  16   4
ENDBRANCH  10  16
BRANCH  12  17
ATOM     17  C   UNL     1      -1.329   3.645  24.490  0.00  0.00    +0.103 C 
BRANCH  17  21
ATOM      1  O   UNL     1      -1.476   1.464  25.526  0.00  0.00    -0.276 OA
ATOM      5  N   UNL     1       0.066   1.822  23.825  0.00  0.00    -0.314 N 
ATOM     21  C   UNL     1      -0.948   2.197  24.694  0.00  0.00    +0.214 C 
ATOM     34  H   UNL     1       0.433   2.502  23.165  0.00  0.00    +0.149 HD
BRANCH   5  23
ATOM     23  C   UNL     1       0.631   0.492  23.799  0.00  0.00    +0.119 C 
BRANCH  23  24
ATOM     24  C   UNL     1       1.229   0.174  22.436  0.00  0.00    +0.103 C 
BRANCH  24   6
ATOM      2  O   UNL     1       5.083  -0.290  24.031  0.00  0.00    -0.377 OA
ATOM      6  N   UNL     1       2.645  -0.164  22.569  0.00  0.00    -0.297 NA
ATOM     25  C   UNL     1       2.848  -1.148  23.641  0.00  0.00    +0.112 C 
ATOM     26  C   UNL     1       3.447   1.040  22.831  0.00  0.00    +0.112 C 
ATOM     28  C   UNL     1       4.332  -1.476  23.769  0.00  0.00    +0.175 C 
ATOM     29  C   UNL     1       4.918   0.660  22.978  0.00  0.00    +0.175 C 
ENDBRANCH  24   6
ENDBRANCH  23  24
ENDBRANCH   5  23
ENDBRANCH  17  21
ENDBRANCH  12  17
TORSDOF 9
ENDMDL
MODEL 6
REMARK VINA RESULT:       1.1      2.040      7.471
REMARK  Name = 38027067
REMARK  12 active torsions:
REMARK  status: ('A' for Active; 'I' for Inactive)
REMARK    1  A    between atoms: N_4  and  C_16
REMARK    2  A    between atoms: N_5  and  C_23
REMARK    3  A    between atoms: N_6  and  C_24
REMARK    4  A    between atoms: C_9  and  C_13
REMARK    5  A    between atoms: C_10  and  C_16
REMARK    6  A    between atoms: C_12  and  C_17
REMARK    7  A    between atoms: C_13  and  C_18
REMARK    8  A    between atoms: C_13  and  C_19
REMARK    9  A    between atoms: C_14  and  C_20
REMARK   10  A    between atoms: C_17  and  C_21
REMARK   11  A    between atoms: C_22  and  C_27
REMARK   12  A    between atoms: C_23  and  C_24
REMARK                            x       y       z     vdW  Elec       q    Type
REMARK                         _______ _______ _______ _____ _____    ______ ____
ROOT
ATOM      9  C   UNL     1      -2.892   3.611  25.268  0.00  0.00    +0.000 C 
ATOM     10  C   UNL     1      -3.916   3.235  24.168  0.00  0.00    +0.032 C 
ATOM     11  C   UNL     1      -1.539   3.976  24.639  0.00  0.00    +0.012 C 
ATOM     12  C   UNL     1      -0.955   2.822  23.803  0.00  0.00    +0.023 C 
ATOM     14  C   UNL     1      -1.990   2.217  22.877  0.00  0.00    -0.073 C 
ATOM     15  C   UNL     1      -3.308   2.423  23.048  0.00  0.00    -0.022 C 
ATOM     20  C   UNL     1      -1.473   1.406  21.722  0.00  0.00    +0.039 C 
ENDROOT
BRANCH   9  13
ATOM     13  C   UNL     1      -3.391   4.772  26.135  0.00  0.00    -0.013 C 
ATOM     18  C   UNL     1      -3.338   4.393  27.612  0.00  0.00    +0.007 C 
ATOM     19  C   UNL     1      -2.568   6.028  25.868  0.00  0.00    +0.007 C 
ENDBRANCH   9  13
BRANCH  10  16
ATOM     16  C   UNL     1      -5.110   2.476  24.758  0.00  0.00    +0.112 C 
BRANCH  16   4
ATOM      3  O   UNL     1      -3.121   0.798  25.971  0.00  0.00    -0.268 OA
ATOM      4  N   UNL     1      -4.955   1.066  24.575  0.00  0.00    -0.309 N 
ATOM     22  C   UNL     1      -3.957   0.325  25.206  0.00  0.00    +0.264 C 
ATOM     33  H   UNL     1      -5.626   0.578  23.989  0.00  0.00    +0.149 HD
BRANCH  22  27
ATOM      7  N   UNL     1      -3.279  -1.918  25.777  0.00  0.00    -0.247 NA
ATOM      8  N   UNL     1      -4.461  -2.944  23.449  0.00  0.00    -0.259 NA
ATOM     27  C   UNL     1      -3.915  -1.127  24.890  0.00  0.00    +0.143 A 
ATOM     30  C   UNL     1      -4.495  -1.630  23.747  0.00  0.00    +0.143 A 
ATOM     31  C   UNL     1      -3.245  -3.233  25.478  0.00  0.00    +0.131 A 
ATOM     32  C   UNL     1      -3.825  -3.736  24.335  0.00  0.00    +0.130 A 
ENDBRANCH  22  27
ENDBRANCH  16   4
ENDBRANCH  10  16
BRANCH  12  17
ATOM     17  C   UNL     1      -0.330   1.749  24.704  0.00  0.00    +0.103 C 
BRANCH  17  21
ATOM      1  O   UNL     1      -0.582  -0.555  24.013  0.00  0.00    -0.276 OA
ATOM      5  N   UNL     1       1.153   0.719  23.138  0.00  0.00    -0.314 N 
ATOM     21  C   UNL     1       0.037   0.502  23.933  0.00  0.00    +0.214 C 
ATOM     34  H   UNL     1       1.591   1.636  23.135  0.00  0.00    +0.149 HD
BRANCH   5  23
ATOM     23  C   UNL     1       1.729  -0.301  22.292  0.00  0.00    +0.119 C 
BRANCH  23  24
ATOM     24  C   UNL     1       2.992   0.199  21.608  0.00  0.00    +0.103 C 
BRANCH  24   6
ATOM      2  O   UNL     1       5.582  -0.439  24.848  0.00  0.00    -0.377 OA
ATOM      6  N   UNL     1       4.172  -0.161  22.391  0.00  0.00    -0.297 NA
ATOM     25  C   UNL     1       3.859  -1.240  23.338  0.00  0.00    +0.112 C 
ATOM     26  C   UNL     1       4.697   1.007  23.113  0.00  0.00    +0.112 C 
ATOM     28  C   UNL     1       5.101  -1.591  24.153  0.00  0.00    +0.175 C 
ATOM     29  C   UNL     1       5.919   0.603  23.932  0.00  0.00    +0.175 C 
ENDBRANCH  24   6
ENDBRANCH  23  24
ENDBRANCH   5  23
ENDBRANCH  17  21
ENDBRANCH  12  17
TORSDOF 9
ENDMDL
MODEL 7
REMARK VINA RESULT:       2.0      2.599      6.212
REMARK  Name = 38027067
REMARK  12 active torsions:
REMARK  status: ('A' for Active; 'I' for Inactive)
REMARK    1  A    between atoms: N_4  and  C_16
REMARK    2  A    between atoms: N_5  and  C_23
REMARK    3  A    between atoms: N_6  and  C_24
REMARK    4  A    between atoms: C_9  and  C_13
REMARK    5  A    between atoms: C_10  and  C_16
REMARK    6  A    between atoms: C_12  and  C_17
REMARK    7  A    between atoms: C_13  and  C_18
REMARK    8  A    between atoms: C_13  and  C_19
REMARK    9  A    between atoms: C_14  and  C_20
REMARK   10  A    between atoms: C_17  and  C_21
REMARK   11  A    between atoms: C_22  and  C_27
REMARK   12  A    between atoms: C_23  and  C_24
REMARK                            x       y       z     vdW  Elec       q    Type
REMARK                         _______ _______ _______ _____ _____    ______ ____
ROOT
ATOM      9  C   UNL     1      -3.824   1.756  24.403  0.00  0.00    +0.000 C 
ATOM     10  C   UNL     1      -3.084   1.939  25.752  0.00  0.00    +0.032 C 
ATOM     11  C   UNL     1      -4.377   0.327  24.285  0.00  0.00    +0.012 C 
ATOM     12  C   UNL     1      -3.267  -0.737  24.382  0.00  0.00    +0.023 C 
ATOM     14  C   UNL     1      -2.329  -0.468  25.541  0.00  0.00    -0.073 C 
ATOM     15  C   UNL     1      -2.271   0.729  26.149  0.00  0.00    -0.022 C 
ATOM     20  C   UNL     1      -1.492  -1.623  26.016  0.00  0.00    +0.039 C 
ENDROOT
BRANCH   9  13
ATOM     13  C   UNL     1      -4.961   2.768  24.237  0.00  0.00    -0.013 C 
ATOM     18  C   UNL     1      -5.821   2.813  25.496  0.00  0.00    +0.007 C 
ATOM     19  C   UNL     1      -4.403   4.149  23.914  0.00  0.00    +0.007 C 
ENDBRANCH   9  13
BRANCH  10  16
ATOM     16  C   UNL     1      -2.179   3.176  25.724  0.00  0.00    +0.112 C 
BRANCH  16   4
ATOM      3  O   UNL     1       0.570   2.394  25.453  0.00  0.00    -0.268 OA
ATOM      4  N   UNL     1      -1.203   3.114  26.766  0.00  0.00    -0.309 N 
ATOM     22  C   UNL     1       0.117   2.721  26.546  0.00  0.00    +0.264 C 
ATOM     33  H   UNL     1      -1.473   3.404  27.701  0.00  0.00    +0.149 HD
BRANCH  22  27
ATOM      7  N   UNL     1       0.442   2.266  28.893  0.00  0.00    -0.247 NA
ATOM      8  N   UNL     1       3.137   3.032  28.740  0.00  0.00    -0.259 NA
ATOM     27  C   UNL     1       1.002   2.684  27.740  0.00  0.00    +0.143 A 
ATOM     30  C   UNL     1       2.325   3.060  27.665  0.00  0.00    +0.143 A 
ATOM     31  C   UNL     1       1.255   2.239  29.969  0.00  0.00    +0.131 A 
ATOM     32  C   UNL     1       2.578   2.615  29.893  0.00  0.00    +0.130 A 
ENDBRANCH  22  27
ENDBRANCH  16   4
ENDBRANCH  10  16
BRANCH  12  17
ATOM     17  C   UNL     1      -2.493  -0.849  23.064  0.00  0.00    +0.103 C 
BRANCH  17  21
ATOM      1  O   UNL     1      -1.476   1.316  22.699  0.00  0.00    -0.276 OA
ATOM      5  N   UNL     1      -0.142  -0.488  23.303  0.00  0.00    -0.314 N 
ATOM     21  C   UNL     1      -1.344   0.131  22.994  0.00  0.00    +0.214 C 
ATOM     34  H   UNL     1      -0.139  -1.476  23.542  0.00  0.00    +0.149 HD
BRANCH   5  23
ATOM     23  C   UNL     1       1.124   0.208  23.313  0.00  0.00    +0.119 C 
BRANCH  23  24
ATOM     24  C   UNL     1       1.979  -0.184  22.117  0.00  0.00    +0.103 C 
BRANCH  24   6
ATOM      2  O   UNL     1       5.474  -0.246  24.439  0.00  0.00    -0.377 OA
ATOM      6  N   UNL     1       3.376  -0.331  22.517  0.00  0.00    -0.297 NA
ATOM     25  C   UNL     1       3.518  -1.370  23.546  0.00  0.00    +0.112 C 
ATOM     26  C   UNL     1       3.915   0.944  23.011  0.00  0.00    +0.112 C 
ATOM     28  C   UNL     1       4.982  -1.498  23.957  0.00  0.00    +0.175 C 
ATOM     29  C   UNL     1       5.370   0.762  23.433  0.00  0.00    +0.175 C 
ENDBRANCH  24   6
ENDBRANCH  23  24
ENDBRANCH   5  23
ENDBRANCH  17  21
ENDBRANCH  12  17
TORSDOF 9
ENDMDL
MODEL 8
REMARK VINA RESULT:       2.2     13.544     15.535
REMARK  Name = 38027067
REMARK  12 active torsions:
REMARK  status: ('A' for Active; 'I' for Inactive)
REMARK    1  A    between atoms: N_4  and  C_16
REMARK    2  A    between atoms: N_5  and  C_23
REMARK    3  A    between atoms: N_6  and  C_24
REMARK    4  A    between atoms: C_9  and  C_13
REMARK    5  A    between atoms: C_10  and  C_16
REMARK    6  A    between atoms: C_12  and  C_17
REMARK    7  A    between atoms: C_13  and  C_18
REMARK    8  A    between atoms: C_13  and  C_19
REMARK    9  A    between atoms: C_14  and  C_20
REMARK   10  A    between atoms: C_17  and  C_21
REMARK   11  A    between atoms: C_22  and  C_27
REMARK   12  A    between atoms: C_23  and  C_24
REMARK                            x       y       z     vdW  Elec       q    Type
REMARK                         _______ _______ _______ _____ _____    ______ ____
ROOT
ATOM      9  C   UNL     1      -1.731  -9.482  13.208  0.00  0.00    +0.000 C 
ATOM     10  C   UNL     1      -0.872  -9.008  12.009  0.00  0.00    +0.032 C 
ATOM     11  C   UNL     1      -2.636 -10.652  12.790  0.00  0.00    +0.012 C 
ATOM     12  C   UNL     1      -3.579 -10.274  11.632  0.00  0.00    +0.023 C 
ATOM     14  C   UNL     1      -2.844  -9.555  10.519  0.00  0.00    -0.073 C 
ATOM     15  C   UNL     1      -1.630  -9.008  10.702  0.00  0.00    -0.022 C 
ATOM     20  C   UNL     1      -3.518  -9.521   9.176  0.00  0.00    +0.039 C 
ENDROOT
BRANCH   9  13
ATOM     13  C   UNL     1      -0.863  -9.898  14.400  0.00  0.00    -0.013 C 
ATOM     18  C   UNL     1      -0.327  -8.666  15.123  0.00  0.00    +0.007 C 
ATOM     19  C   UNL     1      -1.659 -10.781  15.355  0.00  0.00    +0.007 C 
ENDBRANCH   9  13
BRANCH  10  16
ATOM     16  C   UNL     1      -0.290  -7.613  12.262  0.00  0.00    +0.112 C 
BRANCH  16   4
ATOM      3  O   UNL     1       1.502  -5.371  12.358  0.00  0.00    -0.268 OA
ATOM      4  N   UNL     1       1.138  -7.663  12.327  0.00  0.00    -0.309 N 
ATOM     22  C   UNL     1       1.935  -6.521  12.371  0.00  0.00    +0.264 C 
ATOM     33  H   UNL     1       1.589  -8.572  12.381  0.00  0.00    +0.149 HD
BRANCH  22  27
ATOM      7  N   UNL     1       4.150  -5.751  12.936  0.00  0.00    -0.247 NA
ATOM      8  N   UNL     1       5.299  -8.114  11.954  0.00  0.00    -0.259 NA
ATOM     27  C   UNL     1       3.404  -6.742  12.409  0.00  0.00    +0.143 A 
ATOM     30  C   UNL     1       3.968  -7.903  11.926  0.00  0.00    +0.143 A 
ATOM     31  C   UNL     1       5.482  -5.963  12.963  0.00  0.00    +0.131 A 
ATOM     32  C   UNL     1       6.046  -7.124  12.480  0.00  0.00    +0.130 A 
ENDBRANCH  22  27
ENDBRANCH  16   4
ENDBRANCH  10  16
BRANCH  12  17
ATOM     17  C   UNL     1      -4.764  -9.441  12.135  0.00  0.00    +0.103 C 
BRANCH  17  21
ATOM      1  O   UNL     1      -6.454 -10.773  11.031  0.00  0.00    -0.276 OA
ATOM      5  N   UNL     1      -6.759 -10.145  13.247  0.00  0.00    -0.314 N 
ATOM     21  C   UNL     1      -6.070 -10.197  12.045  0.00  0.00    +0.214 C 
ATOM     34  H   UNL     1      -6.351  -9.646  14.033  0.00  0.00    +0.149 HD
BRANCH   5  23
ATOM     23  C   UNL     1      -8.041 -10.780  13.449  0.00  0.00    +0.119 C 
BRANCH  23  24
ATOM     24  C   UNL     1      -9.144  -9.748  13.635  0.00  0.00    +0.103 C 
BRANCH  24   6
ATOM      2  O   UNL     1     -10.597  -8.625  17.408  0.00  0.00    -0.377 OA
ATOM      6  N   UNL     1      -9.196  -9.305  15.027  0.00  0.00    -0.297 NA
ATOM     25  C   UNL     1      -9.805 -10.334  15.879  0.00  0.00    +0.112 C 
ATOM     26  C   UNL     1      -9.942  -8.044  15.146  0.00  0.00    +0.112 C 
ATOM     28  C   UNL     1      -9.860  -9.845  17.324  0.00  0.00    +0.175 C 
ATOM     29  C   UNL     1      -9.992  -7.609  16.607  0.00  0.00    +0.175 C 
ENDBRANCH  24   6
ENDBRANCH  23  24
ENDBRANCH   5  23
ENDBRANCH  17  21
ENDBRANCH  12  17
TORSDOF 9
ENDMDL
