MODEL 1
REMARK VINA RESULT:      -4.6      0.000      0.000
REMARK  Name = 45783274
REMARK  8 active torsions:
REMARK  status: ('A' for Active; 'I' for Inactive)
REMARK    1  A    between atoms: O_3  and  C_28
REMARK    2  A    between atoms: O_3  and  C_29
REMARK    3  A    between atoms: N_4  and  C_13
REMARK    4  A    between atoms: N_7  and  C_27
REMARK    5  A    between atoms: C_9  and  C_14
REMARK    6  A    between atoms: C_13  and  C_15
REMARK    7  A    between atoms: C_18  and  C_19
REMARK    8  A    between atoms: C_27  and  C_28
REMARK                            x       y       z     vdW  Elec       q    Type
REMARK                         _______ _______ _______ _____ _____    ______ ____
ROOT
ATOM      2  O   UNL     1      -5.995  -7.926   9.373  0.00  0.00    -0.336 OA
ATOM      5  N   UNL     1      -6.138  -9.738  10.682  0.00  0.00    -0.190 NA
ATOM      6  N   UNL     1      -4.749  -8.052  10.001  0.00  0.00    -0.056 NA
ATOM     14  C   UNL     1      -6.753  -8.958   9.829  0.00  0.00    +0.245 A 
ATOM     18  C   UNL     1      -4.912  -9.142  10.756  0.00  0.00    +0.202 A 
ENDROOT
BRANCH  18  19
ATOM      7  N   UNL     1      -3.385 -10.781  15.048  0.00  0.00    -0.327 N 
ATOM      8  N   UNL     1      -1.846 -10.678  13.233  0.00  0.00    -0.240 NA
ATOM     19  C   UNL     1      -3.872  -9.662  11.596  0.00  0.00    +0.027 A 
ATOM     23  C   UNL     1      -4.138  -9.970  12.925  0.00  0.00    +0.055 A 
ATOM     24  C   UNL     1      -2.595  -9.860  11.083  0.00  0.00    +0.031 A 
ATOM     25  C   UNL     1      -3.100 -10.472  13.695  0.00  0.00    +0.119 A 
ATOM     26  C   UNL     1      -1.626 -10.366  11.935  0.00  0.00    +0.113 A 
ATOM     30  H   UNL     1      -2.618 -11.149  15.599  0.00  0.00    +0.148 HD
BRANCH   7  27
ATOM     27  C   UNL     1      -4.676 -10.594  15.624  0.00  0.00    +0.131 C 
BRANCH  27  28
ATOM     28  C   UNL     1      -4.593 -10.709  17.137  0.00  0.00    +0.178 C 
BRANCH  28   3
ATOM      3  O   UNL     1      -5.819 -10.273  17.713  0.00  0.00    -0.381 OA
ATOM     29  C   UNL     1      -5.922 -10.664  19.075  0.00  0.00    +0.194 C 
ENDBRANCH  28   3
ENDBRANCH  27  28
ENDBRANCH   7  27
ENDBRANCH  18  19
BRANCH  14   9
ATOM      4  N   UNL     1      -9.184  -8.771  10.325  0.00  0.00    -0.287 NA
ATOM      9  C   UNL     1      -8.166  -9.047   9.291  0.00  0.00    +0.146 C 
ATOM     10  C   UNL     1      -8.445  -8.017   8.181  0.00  0.00    +0.030 C 
ATOM     11  C   UNL     1      -9.674  -7.250   8.650  0.00  0.00    +0.017 C 
ATOM     12  C   UNL     1     -10.337  -8.202   9.626  0.00  0.00    +0.085 C 
BRANCH   4  13
ATOM     13  C   UNL     1      -9.543  -9.948  11.105  0.00  0.00    +0.123 C 
BRANCH  13  15
ATOM      1  F   UNL     1      -7.336 -10.452  12.806  0.00  0.00    -0.205 F 
ATOM     15  C   UNL     1      -9.560  -9.656  12.582  0.00  0.00    +0.002 A 
ATOM     16  C   UNL     1      -8.437  -9.930  13.362  0.00  0.00    +0.128 A 
ATOM     17  C   UNL     1     -10.701  -9.110  13.170  0.00  0.00    +0.008 A 
ATOM     20  C   UNL     1      -8.454  -9.658  14.730  0.00  0.00    +0.038 A 
ATOM     21  C   UNL     1     -10.719  -8.840  14.539  0.00  0.00    +0.000 A 
ATOM     22  C   UNL     1      -9.596  -9.113  15.319  0.00  0.00    +0.003 A 
ENDBRANCH  13  15
ENDBRANCH   4  13
ENDBRANCH  14   9
TORSDOF 7
ENDMDL
MODEL 2
REMARK VINA RESULT:      -2.1      2.340      3.931
REMARK  Name = 45783274
REMARK  8 active torsions:
REMARK  status: ('A' for Active; 'I' for Inactive)
REMARK    1  A    between atoms: O_3  and  C_28
REMARK    2  A    between atoms: O_3  and  C_29
REMARK    3  A    between atoms: N_4  and  C_13
REMARK    4  A    between atoms: N_7  and  C_27
REMARK    5  A    between atoms: C_9  and  C_14
REMARK    6  A    between atoms: C_13  and  C_15
REMARK    7  A    between atoms: C_18  and  C_19
REMARK    8  A    between atoms: C_27  and  C_28
REMARK                            x       y       z     vdW  Elec       q    Type
REMARK                         _______ _______ _______ _____ _____    ______ ____
ROOT
ATOM      2  O   UNL     1      -6.251  -9.039  10.026  0.00  0.00    -0.336 OA
ATOM      5  N   UNL     1      -6.149 -10.437  11.774  0.00  0.00    -0.190 NA
ATOM      6  N   UNL     1      -4.964  -8.899  10.562  0.00  0.00    -0.056 NA
ATOM     14  C   UNL     1      -6.882  -9.962  10.799  0.00  0.00    +0.245 A 
ATOM     18  C   UNL     1      -4.981  -9.755  11.588  0.00  0.00    +0.202 A 
ENDROOT
BRANCH  18  19
ATOM      7  N   UNL     1      -0.269  -9.195  12.548  0.00  0.00    -0.327 N 
ATOM      8  N   UNL     1      -1.646 -10.330  14.126  0.00  0.00    -0.240 NA
ATOM     19  C   UNL     1      -3.850  -9.951  12.448  0.00  0.00    +0.027 A 
ATOM     23  C   UNL     1      -2.599  -9.474  12.075  0.00  0.00    +0.055 A 
ATOM     24  C   UNL     1      -4.002 -10.618  13.659  0.00  0.00    +0.031 A 
ATOM     25  C   UNL     1      -1.538  -9.686  12.942  0.00  0.00    +0.119 A 
ATOM     26  C   UNL     1      -2.878 -10.780  14.454  0.00  0.00    +0.113 A 
ATOM     30  H   UNL     1       0.497  -9.355  13.192  0.00  0.00    +0.148 HD
BRANCH   7  27
ATOM     27  C   UNL     1      -0.058  -8.507  11.317  0.00  0.00    +0.131 C 
BRANCH  27  28
ATOM     28  C   UNL     1       1.406  -8.128  11.176  0.00  0.00    +0.178 C 
BRANCH  28   3
ATOM      3  O   UNL     1       1.716  -7.084  12.092  0.00  0.00    -0.381 OA
ATOM     29  C   UNL     1       3.067  -6.661  11.960  0.00  0.00    +0.194 C 
ENDBRANCH  28   3
ENDBRANCH  27  28
ENDBRANCH   7  27
ENDBRANCH  18  19
BRANCH  14   9
ATOM      4  N   UNL     1      -9.296  -9.707  11.349  0.00  0.00    -0.287 NA
ATOM      9  C   UNL     1      -8.310 -10.296  10.420  0.00  0.00    +0.146 C 
ATOM     10  C   UNL     1      -8.701  -9.750   9.035  0.00  0.00    +0.030 C 
ATOM     11  C   UNL     1      -9.951  -8.915   9.275  0.00  0.00    +0.017 C 
ATOM     12  C   UNL     1     -10.511  -9.475  10.567  0.00  0.00    +0.085 C 
BRANCH   4  13
ATOM     13  C   UNL     1      -9.547 -10.535  12.520  0.00  0.00    +0.123 C 
BRANCH  13  15
ATOM      1  F   UNL     1      -7.501 -10.605  14.477  0.00  0.00    -0.205 F 
ATOM     15  C   UNL     1      -9.590  -9.718  13.785  0.00  0.00    +0.002 A 
ATOM     16  C   UNL     1      -8.547  -9.801  14.706  0.00  0.00    +0.128 A 
ATOM     17  C   UNL     1     -10.675  -8.876  14.032  0.00  0.00    +0.008 A 
ATOM     20  C   UNL     1      -8.589  -9.042  15.877  0.00  0.00    +0.038 A 
ATOM     21  C   UNL     1     -10.717  -8.119  15.203  0.00  0.00    +0.000 A 
ATOM     22  C   UNL     1      -9.674  -8.202  16.125  0.00  0.00    +0.003 A 
ENDBRANCH  13  15
ENDBRANCH   4  13
ENDBRANCH  14   9
TORSDOF 7
ENDMDL
