MODEL 1
REMARK VINA RESULT:       2.2      0.000      0.000
REMARK  Name = 40779910
REMARK  11 active torsions:
REMARK  status: ('A' for Active; 'I' for Inactive)
REMARK    1  A    between atoms: O_1  and  C_20
REMARK    2  A    between atoms: O_1  and  C_23
REMARK    3  A    between atoms: N_4  and  C_14
REMARK    4  A    between atoms: N_5  and  C_15
REMARK    5  A    between atoms: N_6  and  C_28
REMARK    6  A    between atoms: N_6  and  C_29
REMARK    7  A    between atoms: N_6  and  C_30
REMARK    8  A    between atoms: C_8  and  C_14
REMARK    9  A    between atoms: C_10  and  C_15
REMARK   10  A    between atoms: C_16  and  C_20
REMARK   11  A    between atoms: C_21  and  C_22
REMARK                            x       y       z     vdW  Elec       q    Type
REMARK                         _______ _______ _______ _____ _____    ______ ____
ROOT
ATOM      3  N   UNL     1      -2.804  -1.237  23.654  0.00  0.00    -0.298 NA
ATOM      7  C   UNL     1      -3.330  -0.968  26.187  0.00  0.00    -0.003 C 
ATOM      8  C   UNL     1      -4.415  -0.286  25.323  0.00  0.00    +0.020 C 
ATOM      9  C   UNL     1      -1.953  -0.373  25.840  0.00  0.00    +0.024 C 
ATOM     10  C   UNL     1      -1.620  -0.682  24.364  0.00  0.00    +0.074 C 
ATOM     11  C   UNL     1      -3.978  -0.351  23.842  0.00  0.00    +0.089 C 
ATOM     12  C   UNL     1      -3.300  -2.453  25.778  0.00  0.00    +0.019 C 
ATOM     13  C   UNL     1      -3.120  -2.556  24.253  0.00  0.00    +0.085 C 
ENDROOT
BRANCH   8  14
ATOM     14  C   UNL     1      -4.719   1.146  25.758  0.00  0.00    +0.089 C 
BRANCH  14   4
ATOM      4  N   UNL     1      -4.022   2.105  24.912  0.00  0.00    -0.297 NA
ATOM     16  C   UNL     1      -3.576   3.304  25.637  0.00  0.00    +0.082 C 
ATOM     17  C   UNL     1      -4.888   2.611  23.844  0.00  0.00    +0.085 C 
ATOM     18  C   UNL     1      -3.277   4.290  24.505  0.00  0.00    +0.022 C 
ATOM     19  C   UNL     1      -4.142   3.833  23.335  0.00  0.00    +0.017 C 
BRANCH  16  20
ATOM     20  C   UNL     1      -2.354   3.062  26.512  0.00  0.00    +0.178 C 
BRANCH  20   1
ATOM      1  O   UNL     1      -1.191   3.193  25.714  0.00  0.00    -0.381 OA
ATOM     23  C   UNL     1      -0.036   2.689  26.376  0.00  0.00    +0.194 C 
ENDBRANCH  20   1
ENDBRANCH  16  20
ENDBRANCH  14   4
ENDBRANCH   8  14
BRANCH  10  15
ATOM     15  C   UNL     1      -1.027   0.533  23.647  0.00  0.00    +0.123 C 
BRANCH  15   5
ATOM      2  O   UNL     1       0.691  -0.660  21.680  0.00  0.00    -0.270 OA
ATOM      5  N   UNL     1       0.425   0.489  23.676  0.00  0.00    -0.310 N 
ATOM     21  C   UNL     1       1.162  -0.112  22.673  0.00  0.00    +0.244 C 
ATOM     31  H   UNL     1       0.875   0.865  24.503  0.00  0.00    +0.149 HD
BRANCH  21  22
ATOM     22  C   UNL     1       2.635  -0.095  22.863  0.00  0.00    +0.037 A 
ATOM     24  C   UNL     1       3.378   1.014  22.458  0.00  0.00    +0.015 A 
ATOM     25  C   UNL     1       3.277  -1.188  23.446  0.00  0.00    +0.015 A 
ATOM     26  C   UNL     1       4.762   1.031  22.636  0.00  0.00    +0.024 A 
ATOM     27  C   UNL     1       4.659  -1.172  23.625  0.00  0.00    +0.024 A 
ATOM     28  C   UNL     1       5.402  -0.062  23.219  0.00  0.00    +0.029 A 
BRANCH  28   6
ATOM      6  N   UNL     1       6.801  -0.046  23.400  0.00  0.00    -0.336 N 
ATOM     29  C   UNL     1       7.638  -1.022  22.732  0.00  0.00    +0.129 C 
ATOM     30  C   UNL     1       7.420   0.953  24.248  0.00  0.00    +0.129 C 
ENDBRANCH  28   6
ENDBRANCH  21  22
ENDBRANCH  15   5
ENDBRANCH  10  15
TORSDOF 8
ENDMDL
MODEL 2
REMARK VINA RESULT:       2.6      2.010      4.955
REMARK  Name = 40779910
REMARK  11 active torsions:
REMARK  status: ('A' for Active; 'I' for Inactive)
REMARK    1  A    between atoms: O_1  and  C_20
REMARK    2  A    between atoms: O_1  and  C_23
REMARK    3  A    between atoms: N_4  and  C_14
REMARK    4  A    between atoms: N_5  and  C_15
REMARK    5  A    between atoms: N_6  and  C_28
REMARK    6  A    between atoms: N_6  and  C_29
REMARK    7  A    between atoms: N_6  and  C_30
REMARK    8  A    between atoms: C_8  and  C_14
REMARK    9  A    between atoms: C_10  and  C_15
REMARK   10  A    between atoms: C_16  and  C_20
REMARK   11  A    between atoms: C_21  and  C_22
REMARK                            x       y       z     vdW  Elec       q    Type
REMARK                         _______ _______ _______ _____ _____    ______ ____
ROOT
ATOM      3  N   UNL     1      -5.242   3.281  26.227  0.00  0.00    -0.298 NA
ATOM      7  C   UNL     1      -5.576   1.705  24.185  0.00  0.00    -0.003 C 
ATOM      8  C   UNL     1      -4.804   0.987  25.315  0.00  0.00    +0.020 C 
ATOM      9  C   UNL     1      -4.818   2.983  23.781  0.00  0.00    +0.024 C 
ATOM     10  C   UNL     1      -4.770   3.950  24.985  0.00  0.00    +0.074 C 
ATOM     11  C   UNL     1      -4.509   2.009  26.437  0.00  0.00    +0.089 C 
ATOM     12  C   UNL     1      -6.929   2.145  24.777  0.00  0.00    +0.019 C 
ATOM     13  C   UNL     1      -6.681   2.963  26.057  0.00  0.00    +0.085 C 
ENDROOT
BRANCH   8  14
ATOM     14  C   UNL     1      -3.529   0.299  24.831  0.00  0.00    +0.089 C 
BRANCH  14   4
ATOM      4  N   UNL     1      -3.669  -1.150  24.884  0.00  0.00    -0.297 NA
ATOM     16  C   UNL     1      -2.388  -1.863  24.771  0.00  0.00    +0.082 C 
ATOM     17  C   UNL     1      -4.481  -1.654  23.774  0.00  0.00    +0.085 C 
ATOM     18  C   UNL     1      -2.827  -3.290  24.434  0.00  0.00    +0.022 C 
ATOM     19  C   UNL     1      -4.196  -3.146  23.778  0.00  0.00    +0.017 C 
BRANCH  16  20
ATOM     20  C   UNL     1      -1.553  -1.814  26.043  0.00  0.00    +0.178 C 
BRANCH  20   1
ATOM      1  O   UNL     1      -0.224  -1.463  25.700  0.00  0.00    -0.381 OA
ATOM     23  C   UNL     1       0.555  -2.607  25.368  0.00  0.00    +0.194 C 
ENDBRANCH  20   1
ENDBRANCH  16  20
ENDBRANCH  14   4
ENDBRANCH   8  14
BRANCH  10  15
ATOM     15  C   UNL     1      -3.386   4.582  25.153  0.00  0.00    +0.123 C 
BRANCH  15   5
ATOM      2  O   UNL     1      -1.356   3.099  26.541  0.00  0.00    -0.270 OA
ATOM      5  N   UNL     1      -2.361   3.742  24.554  0.00  0.00    -0.310 N 
ATOM     21  C   UNL     1      -1.427   3.067  25.316  0.00  0.00    +0.244 C 
ATOM     31  H   UNL     1      -2.323   3.726  23.541  0.00  0.00    +0.149 HD
BRANCH  21  22
ATOM     22  C   UNL     1      -0.432   2.272  24.552  0.00  0.00    +0.037 A 
ATOM     24  C   UNL     1       0.915   2.636  24.570  0.00  0.00    +0.015 A 
ATOM     25  C   UNL     1      -0.844   1.160  23.816  0.00  0.00    +0.015 A 
ATOM     26  C   UNL     1       1.850   1.889  23.853  0.00  0.00    +0.024 A 
ATOM     27  C   UNL     1       0.090   0.413  23.100  0.00  0.00    +0.024 A 
ATOM     28  C   UNL     1       1.437   0.778  23.118  0.00  0.00    +0.029 A 
BRANCH  28   6
ATOM      6  N   UNL     1       2.382   0.022  22.392  0.00  0.00    -0.336 N 
ATOM     29  C   UNL     1       3.782   0.046  22.763  0.00  0.00    +0.129 C 
ATOM     30  C   UNL     1       1.962  -0.797  21.271  0.00  0.00    +0.129 C 
ENDBRANCH  28   6
ENDBRANCH  21  22
ENDBRANCH  15   5
ENDBRANCH  10  15
TORSDOF 8
ENDMDL
MODEL 3
REMARK VINA RESULT:       2.9      1.381      2.090
REMARK  Name = 40779910
REMARK  11 active torsions:
REMARK  status: ('A' for Active; 'I' for Inactive)
REMARK    1  A    between atoms: O_1  and  C_20
REMARK    2  A    between atoms: O_1  and  C_23
REMARK    3  A    between atoms: N_4  and  C_14
REMARK    4  A    between atoms: N_5  and  C_15
REMARK    5  A    between atoms: N_6  and  C_28
REMARK    6  A    between atoms: N_6  and  C_29
REMARK    7  A    between atoms: N_6  and  C_30
REMARK    8  A    between atoms: C_8  and  C_14
REMARK    9  A    between atoms: C_10  and  C_15
REMARK   10  A    between atoms: C_16  and  C_20
REMARK   11  A    between atoms: C_21  and  C_22
REMARK                            x       y       z     vdW  Elec       q    Type
REMARK                         _______ _______ _______ _____ _____    ______ ____
ROOT
ATOM      3  N   UNL     1      -3.023  -2.007  24.255  0.00  0.00    -0.298 NA
ATOM      7  C   UNL     1      -2.845   0.061  25.820  0.00  0.00    -0.003 C 
ATOM      8  C   UNL     1      -3.821   0.336  24.653  0.00  0.00    +0.020 C 
ATOM      9  C   UNL     1      -1.467  -0.325  25.253  0.00  0.00    +0.024 C 
ATOM     10  C   UNL     1      -1.596  -1.638  24.450  0.00  0.00    +0.074 C 
ATOM     11  C   UNL     1      -3.777  -0.866  23.682  0.00  0.00    +0.089 C 
ATOM     12  C   UNL     1      -3.387  -1.165  26.578  0.00  0.00    +0.019 C 
ATOM     13  C   UNL     1      -3.601  -2.321  25.584  0.00  0.00    +0.085 C 
ENDROOT
BRANCH   8  14
ATOM     14  C   UNL     1      -3.543   1.653  23.932  0.00  0.00    +0.089 C 
BRANCH  14   4
ATOM      4  N   UNL     1      -2.632   2.487  24.706  0.00  0.00    -0.297 NA
ATOM     16  C   UNL     1      -3.177   3.819  25.006  0.00  0.00    +0.082 C 
ATOM     17  C   UNL     1      -1.387   2.743  23.978  0.00  0.00    +0.085 C 
ATOM     18  C   UNL     1      -1.931   4.605  25.423  0.00  0.00    +0.022 C 
ATOM     19  C   UNL     1      -0.763   3.897  24.744  0.00  0.00    +0.017 C 
BRANCH  16  20
ATOM     20  C   UNL     1      -4.232   3.809  26.103  0.00  0.00    +0.178 C 
BRANCH  20   1
ATOM      1  O   UNL     1      -5.499   3.586  25.512  0.00  0.00    -0.381 OA
ATOM     23  C   UNL     1      -6.156   2.458  26.081  0.00  0.00    +0.194 C 
ENDBRANCH  20   1
ENDBRANCH  16  20
ENDBRANCH  14   4
ENDBRANCH   8  14
BRANCH  10  15
ATOM     15  C   UNL     1      -0.823  -1.576  23.130  0.00  0.00    +0.123 C 
BRANCH  15   5
ATOM      2  O   UNL     1       1.002  -0.538  21.171  0.00  0.00    -0.270 OA
ATOM      5  N   UNL     1       0.551  -1.163  23.357  0.00  0.00    -0.310 N 
ATOM     21  C   UNL     1       1.349  -0.673  22.341  0.00  0.00    +0.244 C 
ATOM     31  H   UNL     1       0.922  -1.313  24.289  0.00  0.00    +0.149 HD
BRANCH  21  22
ATOM     22  C   UNL     1       2.738  -0.319  22.731  0.00  0.00    +0.037 A 
ATOM     24  C   UNL     1       3.265   0.925  22.383  0.00  0.00    +0.015 A 
ATOM     25  C   UNL     1       3.516  -1.230  23.446  0.00  0.00    +0.015 A 
ATOM     26  C   UNL     1       4.569   1.258  22.749  0.00  0.00    +0.024 A 
ATOM     27  C   UNL     1       4.819  -0.897  23.814  0.00  0.00    +0.024 A 
ATOM     28  C   UNL     1       5.346   0.347  23.464  0.00  0.00    +0.029 A 
BRANCH  28   6
ATOM      6  N   UNL     1       6.665   0.683  23.835  0.00  0.00    -0.336 N 
ATOM     29  C   UNL     1       6.927   1.882  24.605  0.00  0.00    +0.129 C 
ATOM     30  C   UNL     1       7.774  -0.171  23.457  0.00  0.00    +0.129 C 
ENDBRANCH  28   6
ENDBRANCH  21  22
ENDBRANCH  15   5
ENDBRANCH  10  15
TORSDOF 8
ENDMDL
MODEL 4
REMARK VINA RESULT:       3.3      1.928      3.817
REMARK  Name = 40779910
REMARK  11 active torsions:
REMARK  status: ('A' for Active; 'I' for Inactive)
REMARK    1  A    between atoms: O_1  and  C_20
REMARK    2  A    between atoms: O_1  and  C_23
REMARK    3  A    between atoms: N_4  and  C_14
REMARK    4  A    between atoms: N_5  and  C_15
REMARK    5  A    between atoms: N_6  and  C_28
REMARK    6  A    between atoms: N_6  and  C_29
REMARK    7  A    between atoms: N_6  and  C_30
REMARK    8  A    between atoms: C_8  and  C_14
REMARK    9  A    between atoms: C_10  and  C_15
REMARK   10  A    between atoms: C_16  and  C_20
REMARK   11  A    between atoms: C_21  and  C_22
REMARK                            x       y       z     vdW  Elec       q    Type
REMARK                         _______ _______ _______ _____ _____    ______ ____
ROOT
ATOM      3  N   UNL     1      -5.729   1.151  24.672  0.00  0.00    -0.298 NA
ATOM      7  C   UNL     1      -4.103   3.048  25.393  0.00  0.00    -0.003 C 
ATOM      8  C   UNL     1      -4.062   2.839  23.863  0.00  0.00    +0.020 C 
ATOM      9  C   UNL     1      -3.758   1.724  26.099  0.00  0.00    +0.024 C 
ATOM     10  C   UNL     1      -4.831   0.667  25.755  0.00  0.00    +0.074 C 
ATOM     11  C   UNL     1      -4.932   1.612  23.510  0.00  0.00    +0.089 C 
ATOM     12  C   UNL     1      -5.559   3.394  25.759  0.00  0.00    +0.019 C 
ATOM     13  C   UNL     1      -6.494   2.309  25.196  0.00  0.00    +0.085 C 
ENDROOT
BRANCH   8  14
ATOM     14  C   UNL     1      -2.644   2.701  23.311  0.00  0.00    +0.089 C 
BRANCH  14   4
ATOM      4  N   UNL     1      -1.838   3.865  23.653  0.00  0.00    -0.297 NA
ATOM     16  C   UNL     1      -0.877   3.609  24.737  0.00  0.00    +0.082 C 
ATOM     17  C   UNL     1      -2.668   4.971  24.138  0.00  0.00    +0.085 C 
ATOM     18  C   UNL     1      -0.484   5.022  25.177  0.00  0.00    +0.022 C 
ATOM     19  C   UNL     1      -1.662   5.908  24.786  0.00  0.00    +0.017 C 
BRANCH  16  20
ATOM     20  C   UNL     1       0.332   2.798  24.294  0.00  0.00    +0.178 C 
BRANCH  20   1
ATOM      1  O   UNL     1       0.787   2.025  25.390  0.00  0.00    -0.381 OA
ATOM     23  C   UNL     1      -0.187   1.956  26.426  0.00  0.00    +0.194 C 
ENDBRANCH  20   1
ENDBRANCH  16  20
ENDBRANCH  14   4
ENDBRANCH   8  14
BRANCH  10  15
ATOM     15  C   UNL     1      -4.208  -0.693  25.432  0.00  0.00    +0.123 C 
BRANCH  15   5
ATOM      2  O   UNL     1      -2.565  -2.668  24.150  0.00  0.00    -0.270 OA
ATOM      5  N   UNL     1      -2.819  -0.540  25.035  0.00  0.00    -0.310 N 
ATOM     21  C   UNL     1      -2.114  -1.558  24.420  0.00  0.00    +0.244 C 
ATOM     31  H   UNL     1      -2.366   0.330  25.291  0.00  0.00    +0.149 HD
BRANCH  21  22
ATOM     22  C   UNL     1      -0.696  -1.253  24.101  0.00  0.00    +0.037 A 
ATOM     24  C   UNL     1       0.328  -1.829  24.852  0.00  0.00    +0.015 A 
ATOM     25  C   UNL     1      -0.388  -0.390  23.048  0.00  0.00    +0.015 A 
ATOM     26  C   UNL     1       1.660  -1.544  24.552  0.00  0.00    +0.024 A 
ATOM     27  C   UNL     1       0.943  -0.105  22.747  0.00  0.00    +0.024 A 
ATOM     28  C   UNL     1       1.967  -0.681  23.499  0.00  0.00    +0.029 A 
BRANCH  28   6
ATOM      6  N   UNL     1       3.314  -0.391  23.195  0.00  0.00    -0.336 N 
ATOM     29  C   UNL     1       3.654   0.778  22.410  0.00  0.00    +0.129 C 
ATOM     30  C   UNL     1       4.376  -1.256  23.672  0.00  0.00    +0.129 C 
ENDBRANCH  28   6
ENDBRANCH  21  22
ENDBRANCH  15   5
ENDBRANCH  10  15
TORSDOF 8
ENDMDL
MODEL 5
REMARK VINA RESULT:       3.7      3.469      4.874
REMARK  Name = 40779910
REMARK  11 active torsions:
REMARK  status: ('A' for Active; 'I' for Inactive)
REMARK    1  A    between atoms: O_1  and  C_20
REMARK    2  A    between atoms: O_1  and  C_23
REMARK    3  A    between atoms: N_4  and  C_14
REMARK    4  A    between atoms: N_5  and  C_15
REMARK    5  A    between atoms: N_6  and  C_28
REMARK    6  A    between atoms: N_6  and  C_29
REMARK    7  A    between atoms: N_6  and  C_30
REMARK    8  A    between atoms: C_8  and  C_14
REMARK    9  A    between atoms: C_10  and  C_15
REMARK   10  A    between atoms: C_16  and  C_20
REMARK   11  A    between atoms: C_21  and  C_22
REMARK                            x       y       z     vdW  Elec       q    Type
REMARK                         _______ _______ _______ _____ _____    ______ ____
ROOT
ATOM      3  N   UNL     1      -1.798  -2.648  23.766  0.00  0.00    -0.298 NA
ATOM      7  C   UNL     1      -4.017  -2.505  25.116  0.00  0.00    -0.003 C 
ATOM      8  C   UNL     1      -3.774  -1.206  24.314  0.00  0.00    +0.020 C 
ATOM      9  C   UNL     1      -2.817  -2.761  26.046  0.00  0.00    +0.024 C 
ATOM     10  C   UNL     1      -1.548  -2.983  25.194  0.00  0.00    +0.074 C 
ATOM     11  C   UNL     1      -2.381  -1.289  23.651  0.00  0.00    +0.089 C 
ATOM     12  C   UNL     1      -4.058  -3.659  24.097  0.00  0.00    +0.019 C 
ATOM     13  C   UNL     1      -2.784  -3.620  23.234  0.00  0.00    +0.085 C 
ENDROOT
BRANCH   8  14
ATOM     14  C   UNL     1      -3.922   0.059  25.157  0.00  0.00    +0.089 C 
BRANCH  14   4
ATOM      4  N   UNL     1      -3.464   1.230  24.421  0.00  0.00    -0.297 NA
ATOM     16  C   UNL     1      -4.433   2.336  24.426  0.00  0.00    +0.082 C 
ATOM     17  C   UNL     1      -3.248   0.924  23.004  0.00  0.00    +0.085 C 
ATOM     18  C   UNL     1      -3.931   3.228  23.287  0.00  0.00    +0.022 C 
ATOM     19  C   UNL     1      -3.158   2.297  22.358  0.00  0.00    +0.017 C 
BRANCH  16  20
ATOM     20  C   UNL     1      -4.488   3.087  25.749  0.00  0.00    +0.178 C 
BRANCH  20   1
ATOM      1  O   UNL     1      -5.746   2.847  26.355  0.00  0.00    -0.381 OA
ATOM     23  C   UNL     1      -6.594   2.068  25.519  0.00  0.00    +0.194 C 
ENDBRANCH  20   1
ENDBRANCH  16  20
ENDBRANCH  14   4
ENDBRANCH   8  14
BRANCH  10  15
ATOM     15  C   UNL     1      -0.341  -2.236  25.765  0.00  0.00    +0.123 C 
BRANCH  15   5
ATOM      2  O   UNL     1       0.784  -0.446  23.822  0.00  0.00    -0.270 OA
ATOM      5  N   UNL     1      -0.543  -0.799  25.690  0.00  0.00    -0.310 N 
ATOM     21  C   UNL     1       0.047  -0.024  24.709  0.00  0.00    +0.244 C 
ATOM     31  H   UNL     1      -1.087  -0.377  26.434  0.00  0.00    +0.149 HD
BRANCH  21  22
ATOM     22  C   UNL     1      -0.238   1.432  24.784  0.00  0.00    +0.037 A 
ATOM     24  C   UNL     1      -0.817   1.971  25.933  0.00  0.00    +0.015 A 
ATOM     25  C   UNL     1       0.074   2.261  23.706  0.00  0.00    +0.015 A 
ATOM     26  C   UNL     1      -1.085   3.338  26.005  0.00  0.00    +0.024 A 
ATOM     27  C   UNL     1      -0.192   3.627  23.777  0.00  0.00    +0.024 A 
ATOM     28  C   UNL     1      -0.772   4.166  24.927  0.00  0.00    +0.029 A 
BRANCH  28   6
ATOM      6  N   UNL     1      -1.043   5.549  24.998  0.00  0.00    -0.336 N 
ATOM     29  C   UNL     1      -0.035   6.514  24.612  0.00  0.00    +0.129 C 
ATOM     30  C   UNL     1      -2.337   6.021  25.451  0.00  0.00    +0.129 C 
ENDBRANCH  28   6
ENDBRANCH  21  22
ENDBRANCH  15   5
ENDBRANCH  10  15
TORSDOF 8
ENDMDL
MODEL 6
REMARK VINA RESULT:       4.1      1.944      4.675
REMARK  Name = 40779910
REMARK  11 active torsions:
REMARK  status: ('A' for Active; 'I' for Inactive)
REMARK    1  A    between atoms: O_1  and  C_20
REMARK    2  A    between atoms: O_1  and  C_23
REMARK    3  A    between atoms: N_4  and  C_14
REMARK    4  A    between atoms: N_5  and  C_15
REMARK    5  A    between atoms: N_6  and  C_28
REMARK    6  A    between atoms: N_6  and  C_29
REMARK    7  A    between atoms: N_6  and  C_30
REMARK    8  A    between atoms: C_8  and  C_14
REMARK    9  A    between atoms: C_10  and  C_15
REMARK   10  A    between atoms: C_16  and  C_20
REMARK   11  A    between atoms: C_21  and  C_22
REMARK                            x       y       z     vdW  Elec       q    Type
REMARK                         _______ _______ _______ _____ _____    ______ ____
ROOT
ATOM      3  N   UNL     1      -3.079   3.436  24.849  0.00  0.00    -0.298 NA
ATOM      7  C   UNL     1      -5.079   1.969  25.631  0.00  0.00    -0.003 C 
ATOM      8  C   UNL     1      -3.739   1.225  25.827  0.00  0.00    +0.020 C 
ATOM      9  C   UNL     1      -5.229   2.368  24.151  0.00  0.00    +0.024 C 
ATOM     10  C   UNL     1      -4.101   3.353  23.771  0.00  0.00    +0.074 C 
ATOM     11  C   UNL     1      -2.606   2.079  25.216  0.00  0.00    +0.089 C 
ATOM     12  C   UNL     1      -4.991   3.272  26.448  0.00  0.00    +0.019 C 
ATOM     13  C   UNL     1      -3.720   4.040  26.042  0.00  0.00    +0.085 C 
ENDROOT
BRANCH   8  14
ATOM     14  C   UNL     1      -3.747  -0.192  25.255  0.00  0.00    +0.089 C 
BRANCH  14   4
ATOM      4  N   UNL     1      -2.389  -0.670  25.033  0.00  0.00    -0.297 NA
ATOM     16  C   UNL     1      -2.282  -2.137  25.033  0.00  0.00    +0.082 C 
ATOM     17  C   UNL     1      -1.482  -0.225  26.094  0.00  0.00    +0.085 C 
ATOM     18  C   UNL     1      -0.778  -2.363  25.207  0.00  0.00    +0.022 C 
ATOM     19  C   UNL     1      -0.260  -1.109  25.905  0.00  0.00    +0.017 C 
BRANCH  16  20
ATOM     20  C   UNL     1      -2.806  -2.782  23.758  0.00  0.00    +0.178 C 
BRANCH  20   1
ATOM      1  O   UNL     1      -4.051  -3.395  24.039  0.00  0.00    -0.381 OA
ATOM     23  C   UNL     1      -5.131  -2.709  23.414  0.00  0.00    +0.194 C 
ENDBRANCH  20   1
ENDBRANCH  16  20
ENDBRANCH  14   4
ENDBRANCH   8  14
BRANCH  10  15
ATOM     15  C   UNL     1      -3.487   3.018  22.410  0.00  0.00    +0.123 C 
BRANCH  15   5
ATOM      2  O   UNL     1      -2.632   0.277  22.349  0.00  0.00    -0.270 OA
ATOM      5  N   UNL     1      -2.127   2.529  22.565  0.00  0.00    -0.310 N 
ATOM     21  C   UNL     1      -1.821   1.183  22.519  0.00  0.00    +0.244 C 
ATOM     31  H   UNL     1      -1.417   3.222  22.776  0.00  0.00    +0.149 HD
BRANCH  21  22
ATOM     22  C   UNL     1      -0.388   0.845  22.720  0.00  0.00    +0.037 A 
ATOM     24  C   UNL     1       0.389   1.595  23.603  0.00  0.00    +0.015 A 
ATOM     25  C   UNL     1       0.181  -0.224  22.027  0.00  0.00    +0.015 A 
ATOM     26  C   UNL     1       1.734   1.278  23.792  0.00  0.00    +0.024 A 
ATOM     27  C   UNL     1       1.525  -0.542  22.216  0.00  0.00    +0.024 A 
ATOM     28  C   UNL     1       2.301   0.209  23.099  0.00  0.00    +0.029 A 
BRANCH  28   6
ATOM      6  N   UNL     1       3.662  -0.112  23.290  0.00  0.00    -0.336 N 
ATOM     29  C   UNL     1       4.695   0.853  22.974  0.00  0.00    +0.129 C 
ATOM     30  C   UNL     1       4.043  -1.409  23.813  0.00  0.00    +0.129 C 
ENDBRANCH  28   6
ENDBRANCH  21  22
ENDBRANCH  15   5
ENDBRANCH  10  15
TORSDOF 8
ENDMDL
MODEL 7
REMARK VINA RESULT:       4.7      1.966      4.403
REMARK  Name = 40779910
REMARK  11 active torsions:
REMARK  status: ('A' for Active; 'I' for Inactive)
REMARK    1  A    between atoms: O_1  and  C_20
REMARK    2  A    between atoms: O_1  and  C_23
REMARK    3  A    between atoms: N_4  and  C_14
REMARK    4  A    between atoms: N_5  and  C_15
REMARK    5  A    between atoms: N_6  and  C_28
REMARK    6  A    between atoms: N_6  and  C_29
REMARK    7  A    between atoms: N_6  and  C_30
REMARK    8  A    between atoms: C_8  and  C_14
REMARK    9  A    between atoms: C_10  and  C_15
REMARK   10  A    between atoms: C_16  and  C_20
REMARK   11  A    between atoms: C_21  and  C_22
REMARK                            x       y       z     vdW  Elec       q    Type
REMARK                         _______ _______ _______ _____ _____    ______ ____
ROOT
ATOM      3  N   UNL     1      -3.210   3.183  25.423  0.00  0.00    -0.298 NA
ATOM      7  C   UNL     1      -5.437   1.843  25.328  0.00  0.00    -0.003 C 
ATOM      8  C   UNL     1      -4.221   0.890  25.341  0.00  0.00    +0.020 C 
ATOM      9  C   UNL     1      -5.318   2.807  24.133  0.00  0.00    +0.024 C 
ATOM     10  C   UNL     1      -4.056   3.681  24.306  0.00  0.00    +0.074 C 
ATOM     11  C   UNL     1      -2.931   1.736  25.252  0.00  0.00    +0.089 C 
ATOM     12  C   UNL     1      -5.353   2.694  26.609  0.00  0.00    +0.019 C 
ATOM     13  C   UNL     1      -3.968   3.360  26.686  0.00  0.00    +0.085 C 
ENDROOT
BRANCH   8  14
ATOM     14  C   UNL     1      -4.275  -0.171  24.244  0.00  0.00    +0.089 C 
BRANCH  14   4
ATOM      4  N   UNL     1      -3.630  -1.403  24.680  0.00  0.00    -0.297 NA
ATOM     16  C   UNL     1      -2.284  -1.586  24.116  0.00  0.00    +0.082 C 
ATOM     17  C   UNL     1      -4.383  -2.585  24.252  0.00  0.00    +0.085 C 
ATOM     18  C   UNL     1      -2.016  -3.073  24.365  0.00  0.00    +0.022 C 
ATOM     19  C   UNL     1      -3.394  -3.722  24.449  0.00  0.00    +0.017 C 
BRANCH  16  20
ATOM     20  C   UNL     1      -1.229  -0.705  24.770  0.00  0.00    +0.178 C 
BRANCH  20   1
ATOM      1  O   UNL     1      -0.657  -1.412  25.856  0.00  0.00    -0.381 OA
ATOM     23  C   UNL     1      -1.116  -0.916  27.109  0.00  0.00    +0.194 C 
ENDBRANCH  20   1
ENDBRANCH  16  20
ENDBRANCH  14   4
ENDBRANCH   8  14
BRANCH  10  15
ATOM     15  C   UNL     1      -3.274   3.818  22.998  0.00  0.00    +0.123 C 
BRANCH  15   5
ATOM      2  O   UNL     1      -2.539   1.274  21.885  0.00  0.00    -0.270 OA
ATOM      5  N   UNL     1      -1.979   3.166  23.102  0.00  0.00    -0.310 N 
ATOM     21  C   UNL     1      -1.727   1.935  22.527  0.00  0.00    +0.244 C 
ATOM     31  H   UNL     1      -1.283   3.628  23.677  0.00  0.00    +0.149 HD
BRANCH  21  22
ATOM     22  C   UNL     1      -0.362   1.393  22.746  0.00  0.00    +0.037 A 
ATOM     24  C   UNL     1       0.077   0.290  22.014  0.00  0.00    +0.015 A 
ATOM     25  C   UNL     1       0.483   1.988  23.684  0.00  0.00    +0.015 A 
ATOM     26  C   UNL     1       1.359  -0.220  22.219  0.00  0.00    +0.024 A 
ATOM     27  C   UNL     1       1.765   1.480  23.889  0.00  0.00    +0.024 A 
ATOM     28  C   UNL     1       2.203   0.376  23.157  0.00  0.00    +0.029 A 
BRANCH  28   6
ATOM      6  N   UNL     1       3.500  -0.139  23.366  0.00  0.00    -0.336 N 
ATOM     29  C   UNL     1       3.685  -1.512  23.787  0.00  0.00    +0.129 C 
ATOM     30  C   UNL     1       4.664   0.698  23.152  0.00  0.00    +0.129 C 
ENDBRANCH  28   6
ENDBRANCH  21  22
ENDBRANCH  15   5
ENDBRANCH  10  15
TORSDOF 8
ENDMDL
MODEL 8
REMARK VINA RESULT:       4.8      1.686      3.852
REMARK  Name = 40779910
REMARK  11 active torsions:
REMARK  status: ('A' for Active; 'I' for Inactive)
REMARK    1  A    between atoms: O_1  and  C_20
REMARK    2  A    between atoms: O_1  and  C_23
REMARK    3  A    between atoms: N_4  and  C_14
REMARK    4  A    between atoms: N_5  and  C_15
REMARK    5  A    between atoms: N_6  and  C_28
REMARK    6  A    between atoms: N_6  and  C_29
REMARK    7  A    between atoms: N_6  and  C_30
REMARK    8  A    between atoms: C_8  and  C_14
REMARK    9  A    between atoms: C_10  and  C_15
REMARK   10  A    between atoms: C_16  and  C_20
REMARK   11  A    between atoms: C_21  and  C_22
REMARK                            x       y       z     vdW  Elec       q    Type
REMARK                         _______ _______ _______ _____ _____    ______ ____
ROOT
ATOM      3  N   UNL     1      -0.506   3.347  24.487  0.00  0.00    -0.298 NA
ATOM      7  C   UNL     1      -2.998   3.901  24.987  0.00  0.00    -0.003 C 
ATOM      8  C   UNL     1      -2.393   3.023  26.105  0.00  0.00    +0.020 C 
ATOM      9  C   UNL     1      -2.851   3.178  23.635  0.00  0.00    +0.024 C 
ATOM     10  C   UNL     1      -1.351   3.000  23.312  0.00  0.00    +0.074 C 
ATOM     11  C   UNL     1      -0.964   2.607  25.687  0.00  0.00    +0.089 C 
ATOM     12  C   UNL     1      -2.146   5.182  24.914  0.00  0.00    +0.019 C 
ATOM     13  C   UNL     1      -0.665   4.798  24.750  0.00  0.00    +0.085 C 
ENDROOT
BRANCH   8  14
ATOM     14  C   UNL     1      -3.254   1.809  26.452  0.00  0.00    +0.089 C 
BRANCH  14   4
ATOM      4  N   UNL     1      -3.305   0.874  25.336  0.00  0.00    -0.297 NA
ATOM     16  C   UNL     1      -4.669   0.436  25.006  0.00  0.00    +0.082 C 
ATOM     17  C   UNL     1      -2.574  -0.361  25.635  0.00  0.00    +0.085 C 
ATOM     18  C   UNL     1      -4.424  -0.803  24.141  0.00  0.00    +0.022 C 
ATOM     19  C   UNL     1      -3.053  -1.322  24.559  0.00  0.00    +0.017 C 
BRANCH  16  20
ATOM     20  C   UNL     1      -5.481   1.490  24.267  0.00  0.00    +0.178 C 
BRANCH  20   1
ATOM      1  O   UNL     1      -6.692   1.706  24.971  0.00  0.00    -0.381 OA
ATOM     23  C   UNL     1      -6.456   2.078  26.324  0.00  0.00    +0.194 C 
ENDBRANCH  20   1
ENDBRANCH  16  20
ENDBRANCH  14   4
ENDBRANCH   8  14
BRANCH  10  15
ATOM     15  C   UNL     1      -1.048   1.601  22.770  0.00  0.00    +0.123 C 
BRANCH  15   5
ATOM      2  O   UNL     1       0.217  -0.860  23.540  0.00  0.00    -0.270 OA
ATOM      5  N   UNL     1       0.380   1.333  22.806  0.00  0.00    -0.310 N 
ATOM     21  C   UNL     1       0.888   0.108  23.193  0.00  0.00    +0.244 C 
ATOM     31  H   UNL     1       0.994   2.113  22.595  0.00  0.00    +0.149 HD
BRANCH  21  22
ATOM     22  C   UNL     1       2.370   0.003  23.200  0.00  0.00    +0.037 A 
ATOM     24  C   UNL     1       3.149   1.081  22.780  0.00  0.00    +0.015 A 
ATOM     25  C   UNL     1       2.984  -1.175  23.627  0.00  0.00    +0.015 A 
ATOM     26  C   UNL     1       4.540   0.983  22.787  0.00  0.00    +0.024 A 
ATOM     27  C   UNL     1       4.374  -1.274  23.635  0.00  0.00    +0.024 A 
ATOM     28  C   UNL     1       5.152  -0.195  23.215  0.00  0.00    +0.029 A 
BRANCH  28   6
ATOM      6  N   UNL     1       6.560  -0.295  23.222  0.00  0.00    -0.336 N 
ATOM     29  C   UNL     1       7.360   0.662  23.958  0.00  0.00    +0.129 C 
ATOM     30  C   UNL     1       7.223  -1.363  22.499  0.00  0.00    +0.129 C 
ENDBRANCH  28   6
ENDBRANCH  21  22
ENDBRANCH  15   5
ENDBRANCH  10  15
TORSDOF 8
ENDMDL
MODEL 9
REMARK VINA RESULT:       5.7      1.763      4.259
REMARK  Name = 40779910
REMARK  11 active torsions:
REMARK  status: ('A' for Active; 'I' for Inactive)
REMARK    1  A    between atoms: O_1  and  C_20
REMARK    2  A    between atoms: O_1  and  C_23
REMARK    3  A    between atoms: N_4  and  C_14
REMARK    4  A    between atoms: N_5  and  C_15
REMARK    5  A    between atoms: N_6  and  C_28
REMARK    6  A    between atoms: N_6  and  C_29
REMARK    7  A    between atoms: N_6  and  C_30
REMARK    8  A    between atoms: C_8  and  C_14
REMARK    9  A    between atoms: C_10  and  C_15
REMARK   10  A    between atoms: C_16  and  C_20
REMARK   11  A    between atoms: C_21  and  C_22
REMARK                            x       y       z     vdW  Elec       q    Type
REMARK                         _______ _______ _______ _____ _____    ______ ____
ROOT
ATOM      3  N   UNL     1      -0.751   3.100  24.524  0.00  0.00    -0.298 NA
ATOM      7  C   UNL     1      -3.215   2.924  25.338  0.00  0.00    -0.003 C 
ATOM      8  C   UNL     1      -2.308   1.938  26.109  0.00  0.00    +0.020 C 
ATOM      9  C   UNL     1      -3.108   2.641  23.828  0.00  0.00    +0.024 C 
ATOM     10  C   UNL     1      -1.658   2.898  23.362  0.00  0.00    +0.074 C 
ATOM     11  C   UNL     1      -0.893   1.981  25.488  0.00  0.00    +0.089 C 
ATOM     12  C   UNL     1      -2.648   4.335  25.579  0.00  0.00    +0.019 C 
ATOM     13  C   UNL     1      -1.155   4.353  25.207  0.00  0.00    +0.085 C 
ENDROOT
BRANCH   8  14
ATOM     14  C   UNL     1      -2.861   0.515  26.149  0.00  0.00    +0.089 C 
BRANCH  14   4
ATOM      4  N   UNL     1      -2.061  -0.377  25.320  0.00  0.00    -0.297 NA
ATOM     16  C   UNL     1      -2.822  -1.520  24.793  0.00  0.00    +0.082 C 
ATOM     17  C   UNL     1      -0.961  -0.975  26.081  0.00  0.00    +0.085 C 
ATOM     18  C   UNL     1      -1.717  -2.480  24.345  0.00  0.00    +0.022 C 
ATOM     19  C   UNL     1      -0.502  -2.121  25.194  0.00  0.00    +0.017 C 
BRANCH  16  20
ATOM     20  C   UNL     1      -3.749  -1.151  23.644  0.00  0.00    +0.178 C 
BRANCH  20   1
ATOM      1  O   UNL     1      -4.617  -2.242  23.393  0.00  0.00    -0.381 OA
ATOM     23  C   UNL     1      -4.228  -3.403  24.117  0.00  0.00    +0.194 C 
ENDBRANCH  20   1
ENDBRANCH  16  20
ENDBRANCH  14   4
ENDBRANCH   8  14
BRANCH  10  15
ATOM     15  C   UNL     1      -1.161   1.801  22.418  0.00  0.00    +0.123 C 
BRANCH  15   5
ATOM      2  O   UNL     1       0.145  -0.693  21.849  0.00  0.00    -0.270 OA
ATOM      5  N   UNL     1       0.221   1.459  22.709  0.00  0.00    -0.310 N 
ATOM     21  C   UNL     1       0.755   0.224  22.392  0.00  0.00    +0.244 C 
ATOM     31  H   UNL     1       0.762   2.149  23.218  0.00  0.00    +0.149 HD
BRANCH  21  22
ATOM     22  C   UNL     1       2.176   0.023  22.778  0.00  0.00    +0.037 A 
ATOM     24  C   UNL     1       2.572  -1.169  23.385  0.00  0.00    +0.015 A 
ATOM     25  C   UNL     1       3.114   1.026  22.533  0.00  0.00    +0.015 A 
ATOM     26  C   UNL     1       3.905  -1.359  23.747  0.00  0.00    +0.024 A 
ATOM     27  C   UNL     1       4.447   0.836  22.894  0.00  0.00    +0.024 A 
ATOM     28  C   UNL     1       4.843  -0.356  23.502  0.00  0.00    +0.029 A 
BRANCH  28   6
ATOM      6  N   UNL     1       6.192  -0.547  23.868  0.00  0.00    -0.336 N 
ATOM     29  C   UNL     1       6.536  -0.954  25.215  0.00  0.00    +0.129 C 
ATOM     30  C   UNL     1       7.251  -0.346  22.898  0.00  0.00    +0.129 C 
ENDBRANCH  28   6
ENDBRANCH  21  22
ENDBRANCH  15   5
ENDBRANCH  10  15
TORSDOF 8
ENDMDL
MODEL 10
REMARK VINA RESULT:       5.7      3.302      5.657
REMARK  Name = 40779910
REMARK  11 active torsions:
REMARK  status: ('A' for Active; 'I' for Inactive)
REMARK    1  A    between atoms: O_1  and  C_20
REMARK    2  A    between atoms: O_1  and  C_23
REMARK    3  A    between atoms: N_4  and  C_14
REMARK    4  A    between atoms: N_5  and  C_15
REMARK    5  A    between atoms: N_6  and  C_28
REMARK    6  A    between atoms: N_6  and  C_29
REMARK    7  A    between atoms: N_6  and  C_30
REMARK    8  A    between atoms: C_8  and  C_14
REMARK    9  A    between atoms: C_10  and  C_15
REMARK   10  A    between atoms: C_16  and  C_20
REMARK   11  A    between atoms: C_21  and  C_22
REMARK                            x       y       z     vdW  Elec       q    Type
REMARK                         _______ _______ _______ _____ _____    ______ ____
ROOT
ATOM      3  N   UNL     1      -4.834   3.130  25.951  0.00  0.00    -0.298 NA
ATOM      7  C   UNL     1      -5.884   1.498  24.219  0.00  0.00    -0.003 C 
ATOM      8  C   UNL     1      -4.726   0.819  24.985  0.00  0.00    +0.020 C 
ATOM      9  C   UNL     1      -5.363   2.775  23.533  0.00  0.00    +0.024 C 
ATOM     10  C   UNL     1      -4.882   3.773  24.610  0.00  0.00    +0.074 C 
ATOM     11  C   UNL     1      -4.050   1.872  25.891  0.00  0.00    +0.089 C 
ATOM     12  C   UNL     1      -6.920   1.937  25.271  0.00  0.00    +0.019 C 
ATOM     13  C   UNL     1      -6.223   2.790  26.345  0.00  0.00    +0.085 C 
ENDROOT
BRANCH   8  14
ATOM     14  C   UNL     1      -3.716   0.134  24.067  0.00  0.00    +0.089 C 
BRANCH  14   4
ATOM      4  N   UNL     1      -3.284  -1.139  24.628  0.00  0.00    -0.297 NA
ATOM     16  C   UNL     1      -1.843  -1.386  24.467  0.00  0.00    +0.082 C 
ATOM     17  C   UNL     1      -3.937  -2.270  23.963  0.00  0.00    +0.085 C 
ATOM     18  C   UNL     1      -1.729  -2.890  24.732  0.00  0.00    +0.022 C 
ATOM     19  C   UNL     1      -3.102  -3.463  24.397  0.00  0.00    +0.017 C 
BRANCH  16  20
ATOM     20  C   UNL     1      -0.980  -0.577  25.425  0.00  0.00    +0.178 C 
BRANCH  20   1
ATOM      1  O   UNL     1       0.180  -0.145  24.735  0.00  0.00    -0.381 OA
ATOM     23  C   UNL     1       0.061  -0.339  23.330  0.00  0.00    +0.194 C 
ENDBRANCH  20   1
ENDBRANCH  16  20
ENDBRANCH  14   4
ENDBRANCH   8  14
BRANCH  10  15
ATOM     15  C   UNL     1      -3.551   4.425  24.228  0.00  0.00    +0.123 C 
BRANCH  15   5
ATOM      2  O   UNL     1      -1.330   2.633  23.908  0.00  0.00    -0.270 OA
ATOM      5  N   UNL     1      -2.529   4.125  25.216  0.00  0.00    -0.310 N 
ATOM     21  C   UNL     1      -1.496   3.243  24.960  0.00  0.00    +0.244 C 
ATOM     31  H   UNL     1      -2.645   4.545  26.132  0.00  0.00    +0.149 HD
BRANCH  21  22
ATOM     22  C   UNL     1      -0.547   3.025  26.083  0.00  0.00    +0.037 A 
ATOM     24  C   UNL     1      -1.028   2.870  27.383  0.00  0.00    +0.015 A 
ATOM     25  C   UNL     1       0.825   2.975  25.836  0.00  0.00    +0.015 A 
ATOM     26  C   UNL     1      -0.137   2.665  28.437  0.00  0.00    +0.024 A 
ATOM     27  C   UNL     1       1.716   2.770  26.889  0.00  0.00    +0.024 A 
ATOM     28  C   UNL     1       1.235   2.615  28.189  0.00  0.00    +0.029 A 
BRANCH  28   6
ATOM      6  N   UNL     1       2.136   2.408  29.255  0.00  0.00    -0.336 N 
ATOM     29  C   UNL     1       3.555   2.635  29.070  0.00  0.00    +0.129 C 
ATOM     30  C   UNL     1       1.653   1.973  30.551  0.00  0.00    +0.129 C 
ENDBRANCH  28   6
ENDBRANCH  21  22
ENDBRANCH  15   5
ENDBRANCH  10  15
TORSDOF 8
ENDMDL
