MODEL 1
REMARK VINA RESULT:       9.1      0.000      0.000
REMARK  Name = 7051255
REMARK  6 active torsions:
REMARK  status: ('A' for Active; 'I' for Inactive)
REMARK    1  A    between atoms: S_2  and  N_10
REMARK    2  A    between atoms: S_2  and  C_28
REMARK    3  A    between atoms: O_7  and  C_29
REMARK    4  A    between atoms: O_7  and  C_35
REMARK    5  A    between atoms: N_10  and  C_21
REMARK    6  A    between atoms: C_20  and  C_23
REMARK                            x       y       z     vdW  Elec       q    Type
REMARK                         _______ _______ _______ _____ _____    ______ ____
ROOT
ATOM      3  O   UNL     1       0.034   2.994  25.716  0.00  0.00    -0.266 OA
ATOM      4  O   UNL     1      -4.261   0.550  27.274  0.00  0.00    -0.270 OA
ATOM      8  N   UNL     1      -4.804   1.791  25.366  0.00  0.00    -0.297 N 
ATOM      9  N   UNL     1      -1.996   3.022  24.548  0.00  0.00    -0.310 N 
ATOM     11  C   UNL     1      -4.101   4.178  25.435  0.00  0.00    +0.027 C 
ATOM     12  C   UNL     1      -4.176   2.986  23.282  0.00  0.00    +0.054 C 
ATOM     13  C   UNL     1      -4.472   4.322  23.962  0.00  0.00    +0.018 C 
ATOM     14  C   UNL     1      -4.927   3.056  26.090  0.00  0.00    +0.113 C 
ATOM     15  C   UNL     1      -2.593   3.923  25.542  0.00  0.00    +0.130 C 
ATOM     16  C   UNL     1      -5.042   1.880  23.916  0.00  0.00    +0.117 C 
ATOM     17  C   UNL     1      -2.708   2.622  23.408  0.00  0.00    +0.027 A 
ATOM     18  C   UNL     1      -2.108   1.889  22.453  0.00  0.00    +0.024 A 
ATOM     19  C   UNL     1      -0.647   2.662  24.746  0.00  0.00    +0.274 A 
ATOM     20  C   UNL     1      -4.461   0.630  26.063  0.00  0.00    +0.247 C 
ATOM     21  C   UNL     1      -0.049   1.834  23.670  0.00  0.00    +0.112 A 
ATOM     22  C   UNL     1      -0.736   1.479  22.583  0.00  0.00    +0.031 A 
ENDROOT
BRANCH  20  23
ATOM     23  C   UNL     1      -4.304  -0.610  25.297  0.00  0.00    +0.037 A 
ATOM     24  C   UNL     1      -3.559  -1.661  25.828  0.00  0.00    +0.016 A 
ATOM     25  C   UNL     1      -4.898  -0.732  24.044  0.00  0.00    +0.016 A 
ATOM     26  C   UNL     1      -3.408  -2.842  25.101  0.00  0.00    +0.046 A 
ATOM     27  C   UNL     1      -4.747  -1.913  23.316  0.00  0.00    +0.046 A 
ATOM     29  C   UNL     1      -4.002  -2.968  23.845  0.00  0.00    +0.120 A 
BRANCH  29   7
ATOM      7  O   UNL     1      -3.858  -4.120  23.136  0.00  0.00    -0.495 OA
ATOM     35  C   UNL     1      -2.526  -4.533  22.833  0.00  0.00    +0.277 C 
ENDBRANCH  29   7
ENDBRANCH  20  23
BRANCH  21  10
ATOM     10  N   UNL     1       1.286   1.403  23.767  0.00  0.00    -0.211 N 
ATOM     36  H   UNL     1       1.961   2.129  23.488  0.00  0.00    +0.174 HD
BRANCH  10   2
ATOM      2  S   UNL     1       1.639  -0.148  23.190  0.00  0.00    +0.072 S 
ATOM      5  O   UNL     1       1.128  -1.142  24.115  0.00  0.00    -0.150 OA
ATOM      6  O   UNL     1       1.315  -0.229  21.778  0.00  0.00    -0.150 OA
BRANCH   2  28
ATOM      1 CL   UNL     1       7.876  -0.179  23.680  0.00  0.00    -0.084 Cl
ATOM     28  C   UNL     1       3.402  -0.157  23.328  0.00  0.00    +0.109 A 
ATOM     30  C   UNL     1       4.037  -1.297  23.787  0.00  0.00    +0.030 A 
ATOM     31  C   UNL     1       4.113   0.977  22.975  0.00  0.00    +0.030 A 
ATOM     32  C   UNL     1       5.428  -1.304  23.896  0.00  0.00    +0.022 A 
ATOM     33  C   UNL     1       5.503   0.970  23.084  0.00  0.00    +0.022 A 
ATOM     34  C   UNL     1       6.161  -0.170  23.545  0.00  0.00    +0.041 A 
ENDBRANCH   2  28
ENDBRANCH  10   2
ENDBRANCH  21  10
TORSDOF 5
ENDMDL
MODEL 2
REMARK VINA RESULT:      10.5      2.769      5.919
REMARK  Name = 7051255
REMARK  6 active torsions:
REMARK  status: ('A' for Active; 'I' for Inactive)
REMARK    1  A    between atoms: S_2  and  N_10
REMARK    2  A    between atoms: S_2  and  C_28
REMARK    3  A    between atoms: O_7  and  C_29
REMARK    4  A    between atoms: O_7  and  C_35
REMARK    5  A    between atoms: N_10  and  C_21
REMARK    6  A    between atoms: C_20  and  C_23
REMARK                            x       y       z     vdW  Elec       q    Type
REMARK                         _______ _______ _______ _____ _____    ______ ____
ROOT
ATOM      3  O   UNL     1      -4.146   2.448  26.040  0.00  0.00    -0.266 OA
ATOM      4  O   UNL     1      -0.569  -1.242  26.699  0.00  0.00    -0.270 OA
ATOM      8  N   UNL     1      -1.917  -1.875  24.894  0.00  0.00    -0.297 N 
ATOM      9  N   UNL     1      -3.873   0.607  24.617  0.00  0.00    -0.310 N 
ATOM     11  C   UNL     1      -4.365  -1.800  25.339  0.00  0.00    +0.027 C 
ATOM     12  C   UNL     1      -3.519  -1.352  23.070  0.00  0.00    +0.054 C 
ATOM     13  C   UNL     1      -4.634  -2.039  23.857  0.00  0.00    +0.018 C 
ATOM     14  C   UNL     1      -2.998  -2.384  25.738  0.00  0.00    +0.113 C 
ATOM     15  C   UNL     1      -4.455  -0.295  25.620  0.00  0.00    +0.130 C 
ATOM     16  C   UNL     1      -2.160  -1.976  23.446  0.00  0.00    +0.117 C 
ATOM     17  C   UNL     1      -3.490   0.139  23.352  0.00  0.00    +0.027 A 
ATOM     18  C   UNL     1      -3.066   0.998  22.408  0.00  0.00    +0.024 A 
ATOM     19  C   UNL     1      -3.812   1.975  24.953  0.00  0.00    +0.274 A 
ATOM     20  C   UNL     1      -0.778  -1.329  25.490  0.00  0.00    +0.247 C 
ATOM     21  C   UNL     1      -3.313   2.869  23.879  0.00  0.00    +0.112 A 
ATOM     22  C   UNL     1      -2.972   2.408  22.675  0.00  0.00    +0.031 A 
ENDROOT
BRANCH  20  23
ATOM     23  C   UNL     1       0.266  -0.790  24.612  0.00  0.00    +0.037 A 
ATOM     24  C   UNL     1       0.102   0.467  24.033  0.00  0.00    +0.016 A 
ATOM     25  C   UNL     1       1.414  -1.536  24.360  0.00  0.00    +0.016 A 
ATOM     26  C   UNL     1       1.093   0.981  23.198  0.00  0.00    +0.046 A 
ATOM     27  C   UNL     1       2.406  -1.021  23.524  0.00  0.00    +0.046 A 
ATOM     29  C   UNL     1       2.245   0.237  22.943  0.00  0.00    +0.120 A 
BRANCH  29   7
ATOM      7  O   UNL     1       3.215   0.739  22.131  0.00  0.00    -0.495 OA
ATOM     35  C   UNL     1       4.535   0.815  22.666  0.00  0.00    +0.277 C 
ENDBRANCH  29   7
ENDBRANCH  20  23
BRANCH  21  10
ATOM     10  N   UNL     1      -3.194   4.252  24.106  0.00  0.00    -0.211 N 
ATOM     36  H   UNL     1      -3.856   4.806  23.546  0.00  0.00    +0.174 HD
BRANCH  10   2
ATOM      2  S   UNL     1      -1.628   4.889  24.182  0.00  0.00    +0.072 S 
ATOM      5  O   UNL     1      -0.889   4.514  22.992  0.00  0.00    -0.150 OA
ATOM      6  O   UNL     1      -1.686   6.278  24.599  0.00  0.00    -0.150 OA
BRANCH   2  28
ATOM      1 CL   UNL     1       0.733   1.603  28.954  0.00  0.00    -0.084 Cl
ATOM     28  C   UNL     1      -0.961   3.960  25.531  0.00  0.00    +0.109 A 
ATOM     30  C   UNL     1       0.306   3.416  25.414  0.00  0.00    +0.030 A 
ATOM     31  C   UNL     1      -1.718   3.796  26.678  0.00  0.00    +0.030 A 
ATOM     32  C   UNL     1       0.832   2.683  26.478  0.00  0.00    +0.022 A 
ATOM     33  C   UNL     1      -1.191   3.064  27.741  0.00  0.00    +0.022 A 
ATOM     34  C   UNL     1       0.084   2.507  27.642  0.00  0.00    +0.041 A 
ENDBRANCH   2  28
ENDBRANCH  10   2
ENDBRANCH  21  10
TORSDOF 5
ENDMDL
MODEL 3
REMARK VINA RESULT:      11.7      2.846      5.291
REMARK  Name = 7051255
REMARK  6 active torsions:
REMARK  status: ('A' for Active; 'I' for Inactive)
REMARK    1  A    between atoms: S_2  and  N_10
REMARK    2  A    between atoms: S_2  and  C_28
REMARK    3  A    between atoms: O_7  and  C_29
REMARK    4  A    between atoms: O_7  and  C_35
REMARK    5  A    between atoms: N_10  and  C_21
REMARK    6  A    between atoms: C_20  and  C_23
REMARK                            x       y       z     vdW  Elec       q    Type
REMARK                         _______ _______ _______ _____ _____    ______ ____
ROOT
ATOM      3  O   UNL     1      -3.217   0.913  22.001  0.00  0.00    -0.266 OA
ATOM      4  O   UNL     1      -0.170   4.580  24.031  0.00  0.00    -0.270 OA
ATOM      8  N   UNL     1      -2.263   4.746  25.064  0.00  0.00    -0.297 N 
ATOM      9  N   UNL     1      -3.839   2.314  23.773  0.00  0.00    -0.310 N 
ATOM     11  C   UNL     1      -4.198   4.834  23.501  0.00  0.00    +0.027 C 
ATOM     12  C   UNL     1      -4.462   3.794  25.716  0.00  0.00    +0.054 C 
ATOM     13  C   UNL     1      -5.151   4.684  24.683  0.00  0.00    +0.018 C 
ATOM     14  C   UNL     1      -2.875   5.477  23.955  0.00  0.00    +0.113 C 
ATOM     15  C   UNL     1      -3.982   3.457  22.862  0.00  0.00    +0.130 C 
ATOM     16  C   UNL     1      -3.162   4.469  26.196  0.00  0.00    +0.117 C 
ATOM     17  C   UNL     1      -4.144   2.428  25.137  0.00  0.00    +0.027 A 
ATOM     18  C   UNL     1      -4.117   1.344  25.934  0.00  0.00    +0.024 A 
ATOM     19  C   UNL     1      -3.480   1.080  23.192  0.00  0.00    +0.274 A 
ATOM     20  C   UNL     1      -0.926   4.353  24.975  0.00  0.00    +0.247 C 
ATOM     21  C   UNL     1      -3.444  -0.072  24.126  0.00  0.00    +0.112 A 
ATOM     22  C   UNL     1      -3.756   0.052  25.417  0.00  0.00    +0.031 A 
ENDROOT
BRANCH  20  23
ATOM     23  C   UNL     1      -0.359   3.584  26.087  0.00  0.00    +0.037 A 
ATOM     24  C   UNL     1       0.964   3.793  26.470  0.00  0.00    +0.016 A 
ATOM     25  C   UNL     1      -1.144   2.647  26.754  0.00  0.00    +0.016 A 
ATOM     26  C   UNL     1       1.505   3.063  27.527  0.00  0.00    +0.046 A 
ATOM     27  C   UNL     1      -0.603   1.916  27.812  0.00  0.00    +0.046 A 
ATOM     29  C   UNL     1       0.721   2.124  28.199  0.00  0.00    +0.120 A 
BRANCH  29   7
ATOM      7  O   UNL     1       1.247   1.412  29.232  0.00  0.00    -0.495 OA
ATOM     35  C   UNL     1       2.047   2.128  30.172  0.00  0.00    +0.277 C 
ENDBRANCH  29   7
ENDBRANCH  20  23
BRANCH  21  10
ATOM     10  N   UNL     1      -3.084  -1.350  23.662  0.00  0.00    -0.211 N 
ATOM     36  H   UNL     1      -3.897  -1.960  23.499  0.00  0.00    +0.174 HD
BRANCH  10   2
ATOM      2  S   UNL     1      -1.777  -2.107  24.425  0.00  0.00    +0.072 S 
ATOM      5  O   UNL     1      -1.931  -2.014  25.864  0.00  0.00    -0.150 OA
ATOM      6  O   UNL     1      -1.523  -3.391  23.799  0.00  0.00    -0.150 OA
BRANCH   2  28
ATOM      1 CL   UNL     1       2.896   1.722  22.798  0.00  0.00    -0.084 Cl
ATOM     28  C   UNL     1      -0.456  -1.025  23.965  0.00  0.00    +0.109 A 
ATOM     30  C   UNL     1       0.352  -1.364  22.895  0.00  0.00    +0.030 A 
ATOM     31  C   UNL     1      -0.257   0.140  24.684  0.00  0.00    +0.030 A 
ATOM     32  C   UNL     1       1.395  -0.510  22.532  0.00  0.00    +0.022 A 
ATOM     33  C   UNL     1       0.785   0.993  24.321  0.00  0.00    +0.022 A 
ATOM     34  C   UNL     1       1.611   0.669  23.245  0.00  0.00    +0.041 A 
ENDBRANCH   2  28
ENDBRANCH  10   2
ENDBRANCH  21  10
TORSDOF 5
ENDMDL
MODEL 4
REMARK VINA RESULT:      12.7      3.598      6.413
REMARK  Name = 7051255
REMARK  6 active torsions:
REMARK  status: ('A' for Active; 'I' for Inactive)
REMARK    1  A    between atoms: S_2  and  N_10
REMARK    2  A    between atoms: S_2  and  C_28
REMARK    3  A    between atoms: O_7  and  C_29
REMARK    4  A    between atoms: O_7  and  C_35
REMARK    5  A    between atoms: N_10  and  C_21
REMARK    6  A    between atoms: C_20  and  C_23
REMARK                            x       y       z     vdW  Elec       q    Type
REMARK                         _______ _______ _______ _____ _____    ______ ____
ROOT
ATOM      3  O   UNL     1       0.599   0.362  22.690  0.00  0.00    -0.266 OA
ATOM      4  O   UNL     1      -4.423  -0.906  22.833  0.00  0.00    -0.270 OA
ATOM      8  N   UNL     1      -3.456  -1.611  24.844  0.00  0.00    -0.297 N 
ATOM      9  N   UNL     1      -0.473  -0.568  24.553  0.00  0.00    -0.310 N 
ATOM     11  C   UNL     1      -1.380  -2.962  24.591  0.00  0.00    +0.027 C 
ATOM     12  C   UNL     1      -1.665  -1.515  26.563  0.00  0.00    +0.054 C 
ATOM     13  C   UNL     1      -1.149  -2.875  26.097  0.00  0.00    +0.018 C 
ATOM     14  C   UNL     1      -2.880  -2.826  24.269  0.00  0.00    +0.113 C 
ATOM     15  C   UNL     1      -0.540  -1.882  23.900  0.00  0.00    +0.130 C 
ATOM     16  C   UNL     1      -3.177  -1.409  26.275  0.00  0.00    +0.117 C 
ATOM     17  C   UNL     1      -0.933  -0.384  25.865  0.00  0.00    +0.027 A 
ATOM     18  C   UNL     1      -0.760   0.796  26.488  0.00  0.00    +0.024 A 
ATOM     19  C   UNL     1       0.162   0.466  23.836  0.00  0.00    +0.274 A 
ATOM     20  C   UNL     1      -4.186  -0.743  24.030  0.00  0.00    +0.247 C 
ATOM     21  C   UNL     1       0.301   1.750  24.567  0.00  0.00    +0.112 A 
ATOM     22  C   UNL     1      -0.125   1.901  25.822  0.00  0.00    +0.031 A 
ENDROOT
BRANCH  20  23
ATOM     23  C   UNL     1      -4.711   0.487  24.631  0.00  0.00    +0.037 A 
ATOM     24  C   UNL     1      -3.843   1.371  25.268  0.00  0.00    +0.016 A 
ATOM     25  C   UNL     1      -6.074   0.764  24.565  0.00  0.00    +0.016 A 
ATOM     26  C   UNL     1      -4.341   2.541  25.841  0.00  0.00    +0.046 A 
ATOM     27  C   UNL     1      -6.573   1.935  25.138  0.00  0.00    +0.046 A 
ATOM     29  C   UNL     1      -5.706   2.823  25.776  0.00  0.00    +0.120 A 
BRANCH  29   7
ATOM      7  O   UNL     1      -6.193   3.965  26.333  0.00  0.00    -0.495 OA
ATOM     35  C   UNL     1      -6.194   5.135  25.516  0.00  0.00    +0.277 C 
ENDBRANCH  29   7
ENDBRANCH  20  23
BRANCH  21  10
ATOM     10  N   UNL     1       0.906   2.858  23.946  0.00  0.00    -0.211 N 
ATOM     36  H   UNL     1       1.923   2.893  24.095  0.00  0.00    +0.174 HD
BRANCH  10   2
ATOM      2  S   UNL     1       0.119   4.348  24.092  0.00  0.00    +0.072 S 
ATOM      5  O   UNL     1      -0.036   4.683  25.495  0.00  0.00    -0.150 OA
ATOM      6  O   UNL     1       0.709   5.304  23.174  0.00  0.00    -0.150 OA
BRANCH   2  28
ATOM      1 CL   UNL     1      -5.552   2.893  21.888  0.00  0.00    -0.084 Cl
ATOM     28  C   UNL     1      -1.484   3.937  23.469  0.00  0.00    +0.109 A 
ATOM     30  C   UNL     1      -1.619   2.854  22.619  0.00  0.00    +0.030 A 
ATOM     31  C   UNL     1      -2.572   4.706  23.844  0.00  0.00    +0.030 A 
ATOM     32  C   UNL     1      -2.885   2.529  22.127  0.00  0.00    +0.022 A 
ATOM     33  C   UNL     1      -3.836   4.381  23.353  0.00  0.00    +0.022 A 
ATOM     34  C   UNL     1      -3.993   3.293  22.494  0.00  0.00    +0.041 A 
ENDBRANCH   2  28
ENDBRANCH  10   2
ENDBRANCH  21  10
TORSDOF 5
ENDMDL
