MODEL 1
REMARK VINA RESULT:      -2.4      0.000      0.000
REMARK  Name = 45360758
REMARK  12 active torsions:
REMARK  status: ('A' for Active; 'I' for Inactive)
REMARK    1  A    between atoms: O_3  and  C_28
REMARK    2  A    between atoms: O_3  and  C_29
REMARK    3  A    between atoms: N_6  and  C_9
REMARK    4  A    between atoms: N_6  and  C_17
REMARK    5  A    between atoms: N_7  and  C_22
REMARK    6  A    between atoms: N_7  and  C_23
REMARK    7  A    between atoms: C_10  and  C_15
REMARK    8  A    between atoms: C_15  and  C_16
REMARK    9  A    between atoms: C_16  and  C_18
REMARK   10  A    between atoms: C_17  and  C_19
REMARK   11  A    between atoms: C_22  and  C_26
REMARK   12  A    between atoms: C_23  and  C_27
REMARK                            x       y       z     vdW  Elec       q    Type
REMARK                         _______ _______ _______ _____ _____    ______ ____
ROOT
ATOM      1  O   UNL     1      -0.618   5.236  25.208  0.00  0.00    -0.274 OA
ATOM      4  N   UNL     1      -2.293   2.010  24.875  0.00  0.00    -0.286 NA
ATOM      5  N   UNL     1      -2.740   4.760  24.541  0.00  0.00    -0.313 N 
ATOM      8  C   UNL     1      -1.276   2.934  25.390  0.00  0.00    +0.145 C 
ATOM      9  C   UNL     1      -0.355   1.236  23.921  0.00  0.00    +0.070 C 
ATOM     10  C   UNL     1      -3.658   2.521  24.942  0.00  0.00    +0.075 C 
ATOM     11  C   UNL     1       0.046   2.424  24.794  0.00  0.00    +0.048 C 
ATOM     12  C   UNL     1      -1.814   1.516  23.587  0.00  0.00    +0.104 C 
ATOM     13  C   UNL     1      -3.783   3.830  24.178  0.00  0.00    +0.123 C 
ATOM     14  C   UNL     1      -1.504   4.397  25.020  0.00  0.00    +0.230 C 
ATOM     30  H   UNL     1      -2.886   5.739  24.318  0.00  0.00    +0.149 HD
ENDROOT
BRANCH   9   6
ATOM      6  N   UNL     1       0.489   1.080  22.747  0.00  0.00    -0.308 NA
ATOM     31  H   UNL     1      -0.076   1.225  21.909  0.00  0.00    +0.123 HD
BRANCH   6  17
ATOM     17  C   UNL     1       1.076  -0.253  22.698  0.00  0.00    +0.116 C 
BRANCH  17  19
ATOM     19  C   UNL     1       2.549  -0.229  23.010  0.00  0.00    -0.033 A 
ATOM     20  C   UNL     1       3.304   0.909  22.725  0.00  0.00    +0.008 A 
ATOM     21  C   UNL     1       3.159  -1.344  23.584  0.00  0.00    +0.008 A 
ATOM     24  C   UNL     1       4.669   0.931  23.014  0.00  0.00    +0.046 A 
ATOM     25  C   UNL     1       4.523  -1.322  23.873  0.00  0.00    +0.046 A 
ATOM     28  C   UNL     1       5.278  -0.185  23.589  0.00  0.00    +0.120 A 
BRANCH  28   3
ATOM      3  O   UNL     1       6.609  -0.163  23.872  0.00  0.00    -0.495 OA
ATOM     29  C   UNL     1       7.502  -0.522  22.820  0.00  0.00    +0.277 C 
ENDBRANCH  28   3
ENDBRANCH  17  19
ENDBRANCH   6  17
ENDBRANCH   9   6
BRANCH  10  15
ATOM     15  C   UNL     1      -4.696   1.504  24.464  0.00  0.00    +0.029 C 
BRANCH  15  16
ATOM     16  C   UNL     1      -4.698   0.261  25.347  0.00  0.00    +0.097 C 
BRANCH  16  18
ATOM      2  O   UNL     1      -4.600  -1.253  23.491  0.00  0.00    -0.276 OA
ATOM      7  N   UNL     1      -3.214  -1.727  25.290  0.00  0.00    -0.302 N 
ATOM     18  C   UNL     1      -4.177  -0.969  24.614  0.00  0.00    +0.216 C 
BRANCH   7  22
ATOM     22  C   UNL     1      -2.682  -1.429  26.618  0.00  0.00    +0.104 C 
ATOM     26  C   UNL     1      -1.303  -0.807  26.537  0.00  0.00    +0.024 C 
ENDBRANCH   7  22
BRANCH   7  23
ATOM     23  C   UNL     1      -2.673  -2.924  24.659  0.00  0.00    +0.104 C 
ATOM     27  C   UNL     1      -1.367  -2.634  23.948  0.00  0.00    +0.024 C 
ENDBRANCH   7  23
ENDBRANCH  16  18
ENDBRANCH  15  16
ENDBRANCH  10  15
TORSDOF 9
ENDMDL
MODEL 2
REMARK VINA RESULT:      -0.8      1.485      2.211
REMARK  Name = 45360758
REMARK  12 active torsions:
REMARK  status: ('A' for Active; 'I' for Inactive)
REMARK    1  A    between atoms: O_3  and  C_28
REMARK    2  A    between atoms: O_3  and  C_29
REMARK    3  A    between atoms: N_6  and  C_9
REMARK    4  A    between atoms: N_6  and  C_17
REMARK    5  A    between atoms: N_7  and  C_22
REMARK    6  A    between atoms: N_7  and  C_23
REMARK    7  A    between atoms: C_10  and  C_15
REMARK    8  A    between atoms: C_15  and  C_16
REMARK    9  A    between atoms: C_16  and  C_18
REMARK   10  A    between atoms: C_17  and  C_19
REMARK   11  A    between atoms: C_22  and  C_26
REMARK   12  A    between atoms: C_23  and  C_27
REMARK                            x       y       z     vdW  Elec       q    Type
REMARK                         _______ _______ _______ _____ _____    ______ ____
ROOT
ATOM      1  O   UNL     1       0.769   2.777  26.765  0.00  0.00    -0.274 OA
ATOM      4  N   UNL     1      -2.019   1.948  24.559  0.00  0.00    -0.286 NA
ATOM      5  N   UNL     1      -0.866   4.114  25.919  0.00  0.00    -0.313 N 
ATOM      8  C   UNL     1      -0.963   1.656  25.536  0.00  0.00    +0.145 C 
ATOM      9  C   UNL     1      -0.536   0.677  23.356  0.00  0.00    +0.070 C 
ATOM     10  C   UNL     1      -2.852   3.097  24.900  0.00  0.00    +0.075 C 
ATOM     11  C   UNL     1       0.037   0.775  24.770  0.00  0.00    +0.048 C 
ATOM     12  C   UNL     1      -1.403   1.922  23.236  0.00  0.00    +0.104 C 
ATOM     13  C   UNL     1      -2.004   4.349  25.061  0.00  0.00    +0.123 C 
ATOM     14  C   UNL     1      -0.268   2.891  26.104  0.00  0.00    +0.230 C 
ATOM     30  H   UNL     1      -0.405   4.925  26.320  0.00  0.00    +0.149 HD
ENDROOT
BRANCH   9   6
ATOM      6  N   UNL     1       0.491   0.583  22.330  0.00  0.00    -0.308 NA
ATOM     31  H   UNL     1       0.047   0.613  21.412  0.00  0.00    +0.123 HD
BRANCH   6  17
ATOM     17  C   UNL     1       1.241  -0.661  22.453  0.00  0.00    +0.116 C 
BRANCH  17  19
ATOM     19  C   UNL     1       2.677  -0.414  22.833  0.00  0.00    -0.033 A 
ATOM     20  C   UNL     1       3.404  -1.403  23.496  0.00  0.00    +0.008 A 
ATOM     21  C   UNL     1       3.281   0.805  22.523  0.00  0.00    +0.008 A 
ATOM     24  C   UNL     1       4.734  -1.174  23.849  0.00  0.00    +0.046 A 
ATOM     25  C   UNL     1       4.611   1.034  22.875  0.00  0.00    +0.046 A 
ATOM     28  C   UNL     1       5.337   0.045  23.538  0.00  0.00    +0.120 A 
BRANCH  28   3
ATOM      3  O   UNL     1       6.635   0.268  23.881  0.00  0.00    -0.495 OA
ATOM     29  C   UNL     1       7.633  -0.421  23.130  0.00  0.00    +0.277 C 
ENDBRANCH  28   3
ENDBRANCH  17  19
ENDBRANCH   6  17
ENDBRANCH   9   6
BRANCH  10  15
ATOM     15  C   UNL     1      -3.984   3.326  23.899  0.00  0.00    +0.029 C 
BRANCH  15  16
ATOM     16  C   UNL     1      -4.935   2.134  23.858  0.00  0.00    +0.097 C 
BRANCH  16  18
ATOM      2  O   UNL     1      -5.216   1.734  26.204  0.00  0.00    -0.276 OA
ATOM      7  N   UNL     1      -4.334  -0.009  24.954  0.00  0.00    -0.302 N 
ATOM     18  C   UNL     1      -4.847   1.282  25.117  0.00  0.00    +0.216 C 
BRANCH   7  22
ATOM     22  C   UNL     1      -3.886  -0.588  23.689  0.00  0.00    +0.104 C 
ATOM     26  C   UNL     1      -4.300  -2.039  23.565  0.00  0.00    +0.024 C 
ENDBRANCH   7  22
BRANCH   7  23
ATOM     23  C   UNL     1      -4.209  -0.883  26.114  0.00  0.00    +0.104 C 
ATOM     27  C   UNL     1      -2.764  -1.263  26.368  0.00  0.00    +0.024 C 
ENDBRANCH   7  23
ENDBRANCH  16  18
ENDBRANCH  15  16
ENDBRANCH  10  15
TORSDOF 9
ENDMDL
MODEL 3
REMARK VINA RESULT:      -0.5      1.424      4.294
REMARK  Name = 45360758
REMARK  12 active torsions:
REMARK  status: ('A' for Active; 'I' for Inactive)
REMARK    1  A    between atoms: O_3  and  C_28
REMARK    2  A    between atoms: O_3  and  C_29
REMARK    3  A    between atoms: N_6  and  C_9
REMARK    4  A    between atoms: N_6  and  C_17
REMARK    5  A    between atoms: N_7  and  C_22
REMARK    6  A    between atoms: N_7  and  C_23
REMARK    7  A    between atoms: C_10  and  C_15
REMARK    8  A    between atoms: C_15  and  C_16
REMARK    9  A    between atoms: C_16  and  C_18
REMARK   10  A    between atoms: C_17  and  C_19
REMARK   11  A    between atoms: C_22  and  C_26
REMARK   12  A    between atoms: C_23  and  C_27
REMARK                            x       y       z     vdW  Elec       q    Type
REMARK                         _______ _______ _______ _____ _____    ______ ____
ROOT
ATOM      1  O   UNL     1      -3.018  -3.178  25.994  0.00  0.00    -0.274 OA
ATOM      4  N   UNL     1      -3.130  -0.245  23.823  0.00  0.00    -0.286 NA
ATOM      5  N   UNL     1      -4.024  -1.164  26.320  0.00  0.00    -0.313 N 
ATOM      8  C   UNL     1      -2.965  -1.673  24.124  0.00  0.00    +0.145 C 
ATOM      9  C   UNL     1      -0.902  -0.609  23.415  0.00  0.00    +0.070 C 
ATOM     10  C   UNL     1      -4.315   0.362  24.422  0.00  0.00    +0.075 C 
ATOM     11  C   UNL     1      -1.485  -1.960  23.829  0.00  0.00    +0.048 C 
ATOM     12  C   UNL     1      -1.841   0.398  24.064  0.00  0.00    +0.104 C 
ATOM     13  C   UNL     1      -4.301   0.200  25.933  0.00  0.00    +0.123 C 
ATOM     14  C   UNL     1      -3.314  -2.061  25.559  0.00  0.00    +0.230 C 
ATOM     30  H   UNL     1      -4.268  -1.442  27.265  0.00  0.00    +0.149 HD
ENDROOT
BRANCH   9   6
ATOM      6  N   UNL     1       0.488  -0.443  23.808  0.00  0.00    -0.308 NA
ATOM     31  H   UNL     1       0.551   0.303  24.502  0.00  0.00    +0.123 HD
BRANCH   6  17
ATOM     17  C   UNL     1       1.318  -0.093  22.661  0.00  0.00    +0.116 C 
BRANCH  17  19
ATOM     19  C   UNL     1       2.786  -0.145  22.995  0.00  0.00    -0.033 A 
ATOM     20  C   UNL     1       3.334  -1.301  23.551  0.00  0.00    +0.008 A 
ATOM     21  C   UNL     1       3.596   0.962  22.747  0.00  0.00    +0.008 A 
ATOM     24  C   UNL     1       4.694  -1.349  23.860  0.00  0.00    +0.046 A 
ATOM     25  C   UNL     1       4.956   0.915  23.055  0.00  0.00    +0.046 A 
ATOM     28  C   UNL     1       5.504  -0.241  23.612  0.00  0.00    +0.120 A 
BRANCH  28   3
ATOM      3  O   UNL     1       6.831  -0.287  23.912  0.00  0.00    -0.495 OA
ATOM     29  C   UNL     1       7.730  -0.567  22.840  0.00  0.00    +0.277 C 
ENDBRANCH  28   3
ENDBRANCH  17  19
ENDBRANCH   6  17
ENDBRANCH   9   6
BRANCH  10  15
ATOM     15  C   UNL     1      -4.492   1.829  24.028  0.00  0.00    +0.029 C 
BRANCH  15  16
ATOM     16  C   UNL     1      -4.179   2.756  25.198  0.00  0.00    +0.097 C 
BRANCH  16  18
ATOM      2  O   UNL     1      -3.703   4.735  23.932  0.00  0.00    -0.276 OA
ATOM      7  N   UNL     1      -2.066   4.037  25.420  0.00  0.00    -0.302 N 
ATOM     18  C   UNL     1      -3.308   3.935  24.783  0.00  0.00    +0.216 C 
BRANCH   7  22
ATOM     22  C   UNL     1      -1.556   3.116  26.433  0.00  0.00    +0.104 C 
ATOM     26  C   UNL     1      -0.151   2.655  26.108  0.00  0.00    +0.024 C 
ENDBRANCH   7  22
BRANCH   7  23
ATOM     23  C   UNL     1      -1.170   5.132  25.071  0.00  0.00    +0.104 C 
ATOM     27  C   UNL     1      -0.380   4.824  23.815  0.00  0.00    +0.024 C 
ENDBRANCH   7  23
ENDBRANCH  16  18
ENDBRANCH  15  16
ENDBRANCH  10  15
TORSDOF 9
ENDMDL
MODEL 4
REMARK VINA RESULT:      -0.5      2.002      7.149
REMARK  Name = 45360758
REMARK  12 active torsions:
REMARK  status: ('A' for Active; 'I' for Inactive)
REMARK    1  A    between atoms: O_3  and  C_28
REMARK    2  A    between atoms: O_3  and  C_29
REMARK    3  A    between atoms: N_6  and  C_9
REMARK    4  A    between atoms: N_6  and  C_17
REMARK    5  A    between atoms: N_7  and  C_22
REMARK    6  A    between atoms: N_7  and  C_23
REMARK    7  A    between atoms: C_10  and  C_15
REMARK    8  A    between atoms: C_15  and  C_16
REMARK    9  A    between atoms: C_16  and  C_18
REMARK   10  A    between atoms: C_17  and  C_19
REMARK   11  A    between atoms: C_22  and  C_26
REMARK   12  A    between atoms: C_23  and  C_27
REMARK                            x       y       z     vdW  Elec       q    Type
REMARK                         _______ _______ _______ _____ _____    ______ ____
ROOT
ATOM      1  O   UNL     1      -3.596  -3.683  24.658  0.00  0.00    -0.274 OA
ATOM      4  N   UNL     1      -2.385  -0.365  25.578  0.00  0.00    -0.286 NA
ATOM      5  N   UNL     1      -1.740  -2.567  23.962  0.00  0.00    -0.313 N 
ATOM      8  C   UNL     1      -3.157  -1.599  25.766  0.00  0.00    +0.145 C 
ATOM      9  C   UNL     1      -4.558   0.349  25.395  0.00  0.00    +0.070 C 
ATOM     10  C   UNL     1      -0.994  -0.580  25.192  0.00  0.00    +0.075 C 
ATOM     11  C   UNL     1      -4.625  -1.151  25.681  0.00  0.00    +0.048 C 
ATOM     12  C   UNL     1      -3.191   0.527  24.748  0.00  0.00    +0.104 C 
ATOM     13  C   UNL     1      -0.908  -1.387  23.907  0.00  0.00    +0.123 C 
ATOM     14  C   UNL     1      -2.867  -2.690  24.738  0.00  0.00    +0.230 C 
ATOM     30  H   UNL     1      -1.547  -3.309  23.297  0.00  0.00    +0.149 HD
ENDROOT
BRANCH   9   6
ATOM      6  N   UNL     1      -5.656   0.822  24.567  0.00  0.00    -0.308 NA
ATOM     31  H   UNL     1      -5.380   0.771  23.587  0.00  0.00    +0.123 HD
BRANCH   6  17
ATOM     17  C   UNL     1      -5.998   2.202  24.891  0.00  0.00    +0.116 C 
BRANCH  17  19
ATOM     19  C   UNL     1      -4.774   3.073  24.995  0.00  0.00    -0.033 A 
ATOM     20  C   UNL     1      -4.091   3.458  23.842  0.00  0.00    +0.008 A 
ATOM     21  C   UNL     1      -4.323   3.494  26.246  0.00  0.00    +0.008 A 
ATOM     24  C   UNL     1      -2.957   4.265  23.938  0.00  0.00    +0.046 A 
ATOM     25  C   UNL     1      -3.189   4.301  26.343  0.00  0.00    +0.046 A 
ATOM     28  C   UNL     1      -2.507   4.686  25.190  0.00  0.00    +0.120 A 
BRANCH  28   3
ATOM      3  O   UNL     1      -1.401   5.474  25.285  0.00  0.00    -0.495 OA
ATOM     29  C   UNL     1      -0.270   5.102  24.500  0.00  0.00    +0.277 C 
ENDBRANCH  28   3
ENDBRANCH  17  19
ENDBRANCH   6  17
ENDBRANCH   9   6
BRANCH  10  15
ATOM     15  C   UNL     1      -0.202   0.723  25.076  0.00  0.00    +0.029 C 
BRANCH  15  16
ATOM     16  C   UNL     1       0.158   1.023  23.625  0.00  0.00    +0.097 C 
BRANCH  16  18
ATOM      2  O   UNL     1       1.888   2.666  23.858  0.00  0.00    -0.276 OA
ATOM      7  N   UNL     1       2.501   0.646  22.898  0.00  0.00    -0.302 N 
ATOM     18  C   UNL     1       1.586   1.532  23.478  0.00  0.00    +0.216 C 
BRANCH   7  22
ATOM     22  C   UNL     1       2.191  -0.705  22.434  0.00  0.00    +0.104 C 
ATOM     26  C   UNL     1       1.315  -0.680  21.199  0.00  0.00    +0.024 C 
ENDBRANCH   7  22
BRANCH   7  23
ATOM     23  C   UNL     1       3.885   1.062  22.714  0.00  0.00    +0.104 C 
ATOM     27  C   UNL     1       4.849   0.080  23.346  0.00  0.00    +0.024 C 
ENDBRANCH   7  23
ENDBRANCH  16  18
ENDBRANCH  15  16
ENDBRANCH  10  15
TORSDOF 9
ENDMDL
MODEL 5
REMARK VINA RESULT:      -0.4      2.227      5.828
REMARK  Name = 45360758
REMARK  12 active torsions:
REMARK  status: ('A' for Active; 'I' for Inactive)
REMARK    1  A    between atoms: O_3  and  C_28
REMARK    2  A    between atoms: O_3  and  C_29
REMARK    3  A    between atoms: N_6  and  C_9
REMARK    4  A    between atoms: N_6  and  C_17
REMARK    5  A    between atoms: N_7  and  C_22
REMARK    6  A    between atoms: N_7  and  C_23
REMARK    7  A    between atoms: C_10  and  C_15
REMARK    8  A    between atoms: C_15  and  C_16
REMARK    9  A    between atoms: C_16  and  C_18
REMARK   10  A    between atoms: C_17  and  C_19
REMARK   11  A    between atoms: C_22  and  C_26
REMARK   12  A    between atoms: C_23  and  C_27
REMARK                            x       y       z     vdW  Elec       q    Type
REMARK                         _______ _______ _______ _____ _____    ______ ____
ROOT
ATOM      1  O   UNL     1      -3.672   4.164  27.796  0.00  0.00    -0.274 OA
ATOM      4  N   UNL     1      -2.312   3.745  24.434  0.00  0.00    -0.286 NA
ATOM      5  N   UNL     1      -1.642   3.378  27.134  0.00  0.00    -0.313 N 
ATOM      8  C   UNL     1      -3.211   4.315  25.444  0.00  0.00    +0.145 C 
ATOM      9  C   UNL     1      -4.362   2.906  23.837  0.00  0.00    +0.070 C 
ATOM     10  C   UNL     1      -0.905   3.732  24.822  0.00  0.00    +0.075 C 
ATOM     11  C   UNL     1      -4.605   3.798  25.055  0.00  0.00    +0.048 C 
ATOM     12  C   UNL     1      -2.906   2.488  23.987  0.00  0.00    +0.104 C 
ATOM     13  C   UNL     1      -0.708   2.958  26.116  0.00  0.00    +0.123 C 
ATOM     14  C   UNL     1      -2.876   3.927  26.882  0.00  0.00    +0.230 C 
ATOM     30  H   UNL     1      -1.422   3.144  28.097  0.00  0.00    +0.149 HD
ENDROOT
BRANCH   9   6
ATOM      6  N   UNL     1      -5.283   1.783  23.760  0.00  0.00    -0.308 NA
ATOM     31  H   UNL     1      -6.228   2.138  23.606  0.00  0.00    +0.123 HD
BRANCH   6  17
ATOM     17  C   UNL     1      -5.265   1.006  24.992  0.00  0.00    +0.116 C 
BRANCH  17  19
ATOM     19  C   UNL     1      -4.185  -0.044  24.977  0.00  0.00    -0.033 A 
ATOM     20  C   UNL     1      -4.319  -1.172  24.167  0.00  0.00    +0.008 A 
ATOM     21  C   UNL     1      -3.050   0.112  25.772  0.00  0.00    +0.008 A 
ATOM     24  C   UNL     1      -3.319  -2.144  24.152  0.00  0.00    +0.046 A 
ATOM     25  C   UNL     1      -2.049  -0.860  25.757  0.00  0.00    +0.046 A 
ATOM     28  C   UNL     1      -2.184  -1.987  24.947  0.00  0.00    +0.120 A 
BRANCH  28   3
ATOM      3  O   UNL     1      -1.207  -2.935  24.933  0.00  0.00    -0.495 OA
ATOM     29  C   UNL     1       0.078  -2.551  25.418  0.00  0.00    +0.277 C 
ENDBRANCH  28   3
ENDBRANCH  17  19
ENDBRANCH   6  17
ENDBRANCH   9   6
BRANCH  10  15
ATOM     15  C   UNL     1       0.009   3.198  23.718  0.00  0.00    +0.029 C 
BRANCH  15  16
ATOM     16  C   UNL     1       0.993   2.169  24.265  0.00  0.00    +0.097 C 
BRANCH  16  18
ATOM      2  O   UNL     1      -0.053   0.184  23.420  0.00  0.00    -0.276 OA
ATOM      7  N   UNL     1       2.162   0.523  22.821  0.00  0.00    -0.302 N 
ATOM     18  C   UNL     1       0.971   0.870  23.470  0.00  0.00    +0.216 C 
BRANCH   7  22
ATOM     22  C   UNL     1       3.398   1.302  22.850  0.00  0.00    +0.104 C 
ATOM     26  C   UNL     1       4.586   0.443  23.231  0.00  0.00    +0.024 C 
ENDBRANCH   7  22
BRANCH   7  23
ATOM     23  C   UNL     1       2.224  -0.711  22.048  0.00  0.00    +0.104 C 
ATOM     27  C   UNL     1       1.120  -0.773  21.014  0.00  0.00    +0.024 C 
ENDBRANCH   7  23
ENDBRANCH  16  18
ENDBRANCH  15  16
ENDBRANCH  10  15
TORSDOF 9
ENDMDL
MODEL 6
REMARK VINA RESULT:      -0.1      1.903      6.336
REMARK  Name = 45360758
REMARK  12 active torsions:
REMARK  status: ('A' for Active; 'I' for Inactive)
REMARK    1  A    between atoms: O_3  and  C_28
REMARK    2  A    between atoms: O_3  and  C_29
REMARK    3  A    between atoms: N_6  and  C_9
REMARK    4  A    between atoms: N_6  and  C_17
REMARK    5  A    between atoms: N_7  and  C_22
REMARK    6  A    between atoms: N_7  and  C_23
REMARK    7  A    between atoms: C_10  and  C_15
REMARK    8  A    between atoms: C_15  and  C_16
REMARK    9  A    between atoms: C_16  and  C_18
REMARK   10  A    between atoms: C_17  and  C_19
REMARK   11  A    between atoms: C_22  and  C_26
REMARK   12  A    between atoms: C_23  and  C_27
REMARK                            x       y       z     vdW  Elec       q    Type
REMARK                         _______ _______ _______ _____ _____    ______ ____
ROOT
ATOM      1  O   UNL     1      -1.360   5.705  25.371  0.00  0.00    -0.274 OA
ATOM      4  N   UNL     1      -1.898   2.468  23.771  0.00  0.00    -0.286 NA
ATOM      5  N   UNL     1      -0.096   3.815  25.449  0.00  0.00    -0.313 N 
ATOM      8  C   UNL     1      -2.070   3.917  23.935  0.00  0.00    +0.145 C 
ATOM      9  C   UNL     1      -4.101   2.665  24.383  0.00  0.00    +0.070 C 
ATOM     10  C   UNL     1      -0.511   2.017  23.833  0.00  0.00    +0.075 C 
ATOM     11  C   UNL     1      -3.549   4.089  24.315  0.00  0.00    +0.048 C 
ATOM     12  C   UNL     1      -2.865   1.817  24.651  0.00  0.00    +0.104 C 
ATOM     13  C   UNL     1       0.130   2.420  25.151  0.00  0.00    +0.123 C 
ATOM     14  C   UNL     1      -1.166   4.546  24.991  0.00  0.00    +0.230 C 
ATOM     30  H   UNL     1       0.510   4.252  26.136  0.00  0.00    +0.149 HD
ENDROOT
BRANCH   9   6
ATOM      6  N   UNL     1      -5.143   2.504  25.385  0.00  0.00    -0.308 NA
ATOM     31  H   UNL     1      -4.714   2.488  26.311  0.00  0.00    +0.123 HD
BRANCH   6  17
ATOM     17  C   UNL     1      -5.876   1.260  25.182  0.00  0.00    +0.116 C 
BRANCH  17  19
ATOM     19  C   UNL     1      -4.950   0.081  25.040  0.00  0.00    -0.033 A 
ATOM     20  C   UNL     1      -4.913  -0.637  23.844  0.00  0.00    +0.008 A 
ATOM     21  C   UNL     1      -4.130  -0.294  26.103  0.00  0.00    +0.008 A 
ATOM     24  C   UNL     1      -4.056  -1.729  23.712  0.00  0.00    +0.046 A 
ATOM     25  C   UNL     1      -3.273  -1.386  25.972  0.00  0.00    +0.046 A 
ATOM     28  C   UNL     1      -3.236  -2.104  24.777  0.00  0.00    +0.120 A 
BRANCH  28   3
ATOM      3  O   UNL     1      -2.398  -3.169  24.649  0.00  0.00    -0.495 OA
ATOM     29  C   UNL     1      -1.003  -2.922  24.812  0.00  0.00    +0.277 C 
ENDBRANCH  28   3
ENDBRANCH  17  19
ENDBRANCH   6  17
ENDBRANCH   9   6
BRANCH  10  15
ATOM     15  C   UNL     1      -0.365   0.515  23.587  0.00  0.00    +0.029 C 
BRANCH  15  16
ATOM     16  C   UNL     1       0.874   0.209  22.752  0.00  0.00    +0.097 C 
BRANCH  16  18
ATOM      2  O   UNL     1       1.478  -1.444  24.380  0.00  0.00    -0.276 OA
ATOM      7  N   UNL     1       3.206  -0.563  23.107  0.00  0.00    -0.302 N 
ATOM     18  C   UNL     1       1.865  -0.678  23.494  0.00  0.00    +0.216 C 
BRANCH   7  22
ATOM     22  C   UNL     1       3.711   0.328  22.065  0.00  0.00    +0.104 C 
ATOM     26  C   UNL     1       3.881   1.743  22.578  0.00  0.00    +0.024 C 
ENDBRANCH   7  22
BRANCH   7  23
ATOM     23  C   UNL     1       4.217  -1.371  23.776  0.00  0.00    +0.104 C 
ATOM     27  C   UNL     1       5.429  -0.543  24.152  0.00  0.00    +0.024 C 
ENDBRANCH   7  23
ENDBRANCH  16  18
ENDBRANCH  15  16
ENDBRANCH  10  15
TORSDOF 9
ENDMDL
MODEL 7
REMARK VINA RESULT:       0.5      2.792      6.595
REMARK  Name = 45360758
REMARK  12 active torsions:
REMARK  status: ('A' for Active; 'I' for Inactive)
REMARK    1  A    between atoms: O_3  and  C_28
REMARK    2  A    between atoms: O_3  and  C_29
REMARK    3  A    between atoms: N_6  and  C_9
REMARK    4  A    between atoms: N_6  and  C_17
REMARK    5  A    between atoms: N_7  and  C_22
REMARK    6  A    between atoms: N_7  and  C_23
REMARK    7  A    between atoms: C_10  and  C_15
REMARK    8  A    between atoms: C_15  and  C_16
REMARK    9  A    between atoms: C_16  and  C_18
REMARK   10  A    between atoms: C_17  and  C_19
REMARK   11  A    between atoms: C_22  and  C_26
REMARK   12  A    between atoms: C_23  and  C_27
REMARK                            x       y       z     vdW  Elec       q    Type
REMARK                         _______ _______ _______ _____ _____    ______ ____
ROOT
ATOM      1  O   UNL     1       1.565   0.054  21.961  0.00  0.00    -0.274 OA
ATOM      4  N   UNL     1      -0.892   0.285  24.650  0.00  0.00    -0.286 NA
ATOM      5  N   UNL     1       1.375  -1.172  23.867  0.00  0.00    -0.313 N 
ATOM      8  C   UNL     1      -0.391   0.483  23.285  0.00  0.00    +0.145 C 
ATOM      9  C   UNL     1      -0.659   2.563  24.509  0.00  0.00    +0.070 C 
ATOM     10  C   UNL     1      -0.701  -1.066  25.170  0.00  0.00    +0.075 C 
ATOM     11  C   UNL     1      -0.253   2.008  23.144  0.00  0.00    +0.048 C 
ATOM     12  C   UNL     1      -0.402   1.399  25.456  0.00  0.00    +0.104 C 
ATOM     13  C   UNL     1       0.770  -1.449  25.149  0.00  0.00    +0.123 C 
ATOM     14  C   UNL     1       0.938  -0.207  22.992  0.00  0.00    +0.230 C 
ATOM     30  H   UNL     1       2.250  -1.639  23.650  0.00  0.00    +0.149 HD
ENDROOT
BRANCH   9   6
ATOM      6  N   UNL     1       0.062   3.774  24.869  0.00  0.00    -0.308 NA
ATOM     31  H   UNL     1       0.551   3.620  25.751  0.00  0.00    +0.123 HD
BRANCH   6  17
ATOM     17  C   UNL     1      -0.852   4.899  25.025  0.00  0.00    +0.116 C 
BRANCH  17  19
ATOM     19  C   UNL     1      -2.281   4.444  25.174  0.00  0.00    -0.033 A 
ATOM     20  C   UNL     1      -2.804   4.189  26.441  0.00  0.00    +0.008 A 
ATOM     21  C   UNL     1      -3.080   4.277  24.043  0.00  0.00    +0.008 A 
ATOM     24  C   UNL     1      -4.127   3.768  26.579  0.00  0.00    +0.046 A 
ATOM     25  C   UNL     1      -4.403   3.856  24.179  0.00  0.00    +0.046 A 
ATOM     28  C   UNL     1      -4.926   3.602  25.447  0.00  0.00    +0.120 A 
BRANCH  28   3
ATOM      3  O   UNL     1      -6.217   3.191  25.580  0.00  0.00    -0.495 OA
ATOM     29  C   UNL     1      -6.446   2.006  26.339  0.00  0.00    +0.277 C 
ENDBRANCH  28   3
ENDBRANCH  17  19
ENDBRANCH   6  17
ENDBRANCH   9   6
BRANCH  10  15
ATOM     15  C   UNL     1      -1.299  -1.255  26.564  0.00  0.00    +0.029 C 
BRANCH  15  16
ATOM     16  C   UNL     1      -2.813  -1.072  26.546  0.00  0.00    +0.097 C 
BRANCH  16  18
ATOM      2  O   UNL     1      -3.372  -3.196  25.585  0.00  0.00    -0.276 OA
ATOM      7  N   UNL     1      -4.233  -1.321  24.526  0.00  0.00    -0.302 N 
ATOM     18  C   UNL     1      -3.490  -1.970  25.519  0.00  0.00    +0.216 C 
BRANCH   7  22
ATOM     22  C   UNL     1      -4.402   0.125  24.406  0.00  0.00    +0.104 C 
ATOM     26  C   UNL     1      -3.651   0.675  23.211  0.00  0.00    +0.024 C 
ENDBRANCH   7  22
BRANCH   7  23
ATOM     23  C   UNL     1      -4.903  -2.110  23.500  0.00  0.00    +0.104 C 
ATOM     27  C   UNL     1      -4.100  -3.343  23.137  0.00  0.00    +0.024 C 
ENDBRANCH   7  23
ENDBRANCH  16  18
ENDBRANCH  15  16
ENDBRANCH  10  15
TORSDOF 9
ENDMDL
MODEL 8
REMARK VINA RESULT:       0.8      1.895      4.088
REMARK  Name = 45360758
REMARK  12 active torsions:
REMARK  status: ('A' for Active; 'I' for Inactive)
REMARK    1  A    between atoms: O_3  and  C_28
REMARK    2  A    between atoms: O_3  and  C_29
REMARK    3  A    between atoms: N_6  and  C_9
REMARK    4  A    between atoms: N_6  and  C_17
REMARK    5  A    between atoms: N_7  and  C_22
REMARK    6  A    between atoms: N_7  and  C_23
REMARK    7  A    between atoms: C_10  and  C_15
REMARK    8  A    between atoms: C_15  and  C_16
REMARK    9  A    between atoms: C_16  and  C_18
REMARK   10  A    between atoms: C_17  and  C_19
REMARK   11  A    between atoms: C_22  and  C_26
REMARK   12  A    between atoms: C_23  and  C_27
REMARK                            x       y       z     vdW  Elec       q    Type
REMARK                         _______ _______ _______ _____ _____    ______ ____
ROOT
ATOM      1  O   UNL     1      -0.985  -1.203  26.411  0.00  0.00    -0.274 OA
ATOM      4  N   UNL     1      -1.178   1.875  24.460  0.00  0.00    -0.286 NA
ATOM      5  N   UNL     1      -0.405   0.921  26.983  0.00  0.00    -0.313 N 
ATOM      8  C   UNL     1      -1.537   0.495  24.807  0.00  0.00    +0.145 C 
ATOM      9  C   UNL     1      -0.360   0.665  22.690  0.00  0.00    +0.070 C 
ATOM     10  C   UNL     1      -1.161   2.795  25.593  0.00  0.00    +0.075 C 
ATOM     11  C   UNL     1      -1.031  -0.344  23.622  0.00  0.00    +0.048 C 
ATOM     12  C   UNL     1       0.014   1.812  23.617  0.00  0.00    +0.104 C 
ATOM     13  C   UNL     1      -0.196   2.314  26.665  0.00  0.00    +0.123 C 
ATOM     14  C   UNL     1      -0.935  -0.005  26.117  0.00  0.00    +0.230 C 
ATOM     30  H   UNL     1      -0.026   0.578  27.860  0.00  0.00    +0.149 HD
ENDROOT
BRANCH   9   6
ATOM      6  N   UNL     1       0.773   0.109  21.968  0.00  0.00    -0.308 NA
ATOM     31  H   UNL     1       0.441  -0.313  21.101  0.00  0.00    +0.123 HD
BRANCH   6  17
ATOM     17  C   UNL     1       1.450  -0.910  22.762  0.00  0.00    +0.116 C 
BRANCH  17  19
ATOM     19  C   UNL     1       2.891  -0.556  23.017  0.00  0.00    -0.033 A 
ATOM     20  C   UNL     1       3.731  -1.468  23.655  0.00  0.00    +0.008 A 
ATOM     21  C   UNL     1       3.386   0.684  22.615  0.00  0.00    +0.008 A 
ATOM     24  C   UNL     1       5.066  -1.140  23.892  0.00  0.00    +0.046 A 
ATOM     25  C   UNL     1       4.721   1.013  22.851  0.00  0.00    +0.046 A 
ATOM     28  C   UNL     1       5.561   0.100  23.489  0.00  0.00    +0.120 A 
BRANCH  28   3
ATOM      3  O   UNL     1       6.863   0.421  23.719  0.00  0.00    -0.495 OA
ATOM     29  C   UNL     1       7.852  -0.390  23.087  0.00  0.00    +0.277 C 
ENDBRANCH  28   3
ENDBRANCH  17  19
ENDBRANCH   6  17
ENDBRANCH   9   6
BRANCH  10  15
ATOM     15  C   UNL     1      -0.854   4.236  25.183  0.00  0.00    +0.029 C 
BRANCH  15  16
ATOM     16  C   UNL     1      -2.103   5.108  25.251  0.00  0.00    +0.097 C 
BRANCH  16  18
ATOM      2  O   UNL     1      -3.344   4.245  27.111  0.00  0.00    -0.276 OA
ATOM      7  N   UNL     1      -4.254   3.895  25.006  0.00  0.00    -0.302 N 
ATOM     18  C   UNL     1      -3.281   4.381  25.887  0.00  0.00    +0.216 C 
BRANCH   7  22
ATOM     22  C   UNL     1      -4.223   4.033  23.552  0.00  0.00    +0.104 C 
ATOM     26  C   UNL     1      -3.647   2.798  22.890  0.00  0.00    +0.024 C 
ENDBRANCH   7  22
BRANCH   7  23
ATOM     23  C   UNL     1      -5.407   3.179  25.536  0.00  0.00    +0.104 C 
ATOM     27  C   UNL     1      -5.245   1.680  25.390  0.00  0.00    +0.024 C 
ENDBRANCH   7  23
ENDBRANCH  16  18
ENDBRANCH  15  16
ENDBRANCH  10  15
TORSDOF 9
ENDMDL
MODEL 9
REMARK VINA RESULT:       1.1      1.772      6.733
REMARK  Name = 45360758
REMARK  12 active torsions:
REMARK  status: ('A' for Active; 'I' for Inactive)
REMARK    1  A    between atoms: O_3  and  C_28
REMARK    2  A    between atoms: O_3  and  C_29
REMARK    3  A    between atoms: N_6  and  C_9
REMARK    4  A    between atoms: N_6  and  C_17
REMARK    5  A    between atoms: N_7  and  C_22
REMARK    6  A    between atoms: N_7  and  C_23
REMARK    7  A    between atoms: C_10  and  C_15
REMARK    8  A    between atoms: C_15  and  C_16
REMARK    9  A    between atoms: C_16  and  C_18
REMARK   10  A    between atoms: C_17  and  C_19
REMARK   11  A    between atoms: C_22  and  C_26
REMARK   12  A    between atoms: C_23  and  C_27
REMARK                            x       y       z     vdW  Elec       q    Type
REMARK                         _______ _______ _______ _____ _____    ______ ____
ROOT
ATOM      1  O   UNL     1      -0.900   3.043  27.162  0.00  0.00    -0.274 OA
ATOM      4  N   UNL     1      -0.740   2.267  23.599  0.00  0.00    -0.286 NA
ATOM      5  N   UNL     1      -0.110   1.186  26.110  0.00  0.00    -0.313 N 
ATOM      8  C   UNL     1      -0.827   3.154  24.765  0.00  0.00    +0.145 C 
ATOM      9  C   UNL     1      -2.858   3.133  23.436  0.00  0.00    +0.070 C 
ATOM     10  C   UNL     1       0.304   1.250  23.694  0.00  0.00    +0.075 C 
ATOM     11  C   UNL     1      -2.228   3.779  24.670  0.00  0.00    +0.048 C 
ATOM     12  C   UNL     1      -2.097   1.822  23.292  0.00  0.00    +0.104 C 
ATOM     13  C   UNL     1       0.104   0.385  24.928  0.00  0.00    +0.123 C 
ATOM     14  C   UNL     1      -0.640   2.454  26.108  0.00  0.00    +0.230 C 
ATOM     30  H   UNL     1       0.029   0.739  27.011  0.00  0.00    +0.149 HD
ENDROOT
BRANCH   9   6
ATOM      6  N   UNL     1      -4.297   2.957  23.556  0.00  0.00    -0.308 NA
ATOM     31  H   UNL     1      -4.750   3.869  23.489  0.00  0.00    +0.123 HD
BRANCH   6  17
ATOM     17  C   UNL     1      -4.645   2.348  24.834  0.00  0.00    +0.116 C 
BRANCH  17  19
ATOM     19  C   UNL     1      -4.300   0.882  24.869  0.00  0.00    -0.033 A 
ATOM     20  C   UNL     1      -3.588   0.358  25.947  0.00  0.00    +0.008 A 
ATOM     21  C   UNL     1      -4.694   0.049  23.822  0.00  0.00    +0.008 A 
ATOM     24  C   UNL     1      -3.269  -1.000  25.979  0.00  0.00    +0.046 A 
ATOM     25  C   UNL     1      -4.376  -1.309  23.853  0.00  0.00    +0.046 A 
ATOM     28  C   UNL     1      -3.664  -1.833  24.932  0.00  0.00    +0.120 A 
BRANCH  28   3
ATOM      3  O   UNL     1      -3.354  -3.157  24.963  0.00  0.00    -0.495 OA
ATOM     29  C   UNL     1      -2.456  -3.638  23.964  0.00  0.00    +0.277 C 
ENDBRANCH  28   3
ENDBRANCH  17  19
ENDBRANCH   6  17
ENDBRANCH   9   6
BRANCH  10  15
ATOM     15  C   UNL     1       0.412   0.392  22.433  0.00  0.00    +0.029 C 
BRANCH  15  16
ATOM     16  C   UNL     1       1.706  -0.414  22.423  0.00  0.00    +0.097 C 
BRANCH  16  18
ATOM      2  O   UNL     1       2.955   1.631  22.460  0.00  0.00    -0.276 OA
ATOM      7  N   UNL     1       3.959  -0.215  23.443  0.00  0.00    -0.302 N 
ATOM     18  C   UNL     1       2.920   0.437  22.770  0.00  0.00    +0.216 C 
BRANCH   7  22
ATOM     22  C   UNL     1       3.963  -1.623  23.831  0.00  0.00    +0.104 C 
ATOM     26  C   UNL     1       5.356  -2.098  24.188  0.00  0.00    +0.024 C 
ENDBRANCH   7  22
BRANCH   7  23
ATOM     23  C   UNL     1       5.160   0.529  23.801  0.00  0.00    +0.104 C 
ATOM     27  C   UNL     1       6.349   0.099  22.967  0.00  0.00    +0.024 C 
ENDBRANCH   7  23
ENDBRANCH  16  18
ENDBRANCH  15  16
ENDBRANCH  10  15
TORSDOF 9
ENDMDL
MODEL 10
REMARK VINA RESULT:       1.1      3.088      6.537
REMARK  Name = 45360758
REMARK  12 active torsions:
REMARK  status: ('A' for Active; 'I' for Inactive)
REMARK    1  A    between atoms: O_3  and  C_28
REMARK    2  A    between atoms: O_3  and  C_29
REMARK    3  A    between atoms: N_6  and  C_9
REMARK    4  A    between atoms: N_6  and  C_17
REMARK    5  A    between atoms: N_7  and  C_22
REMARK    6  A    between atoms: N_7  and  C_23
REMARK    7  A    between atoms: C_10  and  C_15
REMARK    8  A    between atoms: C_15  and  C_16
REMARK    9  A    between atoms: C_16  and  C_18
REMARK   10  A    between atoms: C_17  and  C_19
REMARK   11  A    between atoms: C_22  and  C_26
REMARK   12  A    between atoms: C_23  and  C_27
REMARK                            x       y       z     vdW  Elec       q    Type
REMARK                         _______ _______ _______ _____ _____    ______ ____
ROOT
ATOM      1  O   UNL     1      -0.914   4.459  25.588  0.00  0.00    -0.274 OA
ATOM      4  N   UNL     1      -0.263   1.450  23.626  0.00  0.00    -0.286 NA
ATOM      5  N   UNL     1      -0.631   2.307  26.272  0.00  0.00    -0.313 N 
ATOM      8  C   UNL     1      -0.281   2.896  23.879  0.00  0.00    +0.145 C 
ATOM      9  C   UNL     1      -1.840   2.216  22.146  0.00  0.00    +0.070 C 
ATOM     10  C   UNL     1       0.299   0.657  24.715  0.00  0.00    +0.075 C 
ATOM     11  C   UNL     1      -1.308   3.449  22.878  0.00  0.00    +0.048 C 
ATOM     12  C   UNL     1      -1.586   1.082  23.129  0.00  0.00    +0.104 C 
ATOM     13  C   UNL     1      -0.463   0.898  26.008  0.00  0.00    +0.123 C 
ATOM     14  C   UNL     1      -0.657   3.284  25.306  0.00  0.00    +0.230 C 
ATOM     30  H   UNL     1      -0.863   2.583  27.222  0.00  0.00    +0.149 HD
ENDROOT
BRANCH   9   6
ATOM      6  N   UNL     1      -3.235   2.343  21.755  0.00  0.00    -0.308 NA
ATOM     31  H   UNL     1      -3.289   2.424  20.739  0.00  0.00    +0.123 HD
BRANCH   6  17
ATOM     17  C   UNL     1      -3.842   3.524  22.357  0.00  0.00    +0.116 C 
BRANCH  17  19
ATOM     19  C   UNL     1      -4.466   3.214  23.692  0.00  0.00    -0.033 A 
ATOM     20  C   UNL     1      -5.305   2.108  23.830  0.00  0.00    +0.008 A 
ATOM     21  C   UNL     1      -4.204   4.032  24.791  0.00  0.00    +0.008 A 
ATOM     24  C   UNL     1      -5.883   1.821  25.067  0.00  0.00    +0.046 A 
ATOM     25  C   UNL     1      -4.781   3.745  26.027  0.00  0.00    +0.046 A 
ATOM     28  C   UNL     1      -5.621   2.640  26.166  0.00  0.00    +0.120 A 
BRANCH  28   3
ATOM      3  O   UNL     1      -6.184   2.360  27.372  0.00  0.00    -0.495 OA
ATOM     29  C   UNL     1      -6.986   1.184  27.457  0.00  0.00    +0.277 C 
ENDBRANCH  28   3
ENDBRANCH  17  19
ENDBRANCH   6  17
ENDBRANCH   9   6
BRANCH  10  15
ATOM     15  C   UNL     1       0.368  -0.835  24.387  0.00  0.00    +0.029 C 
BRANCH  15  16
ATOM     16  C   UNL     1      -0.519  -1.648  25.325  0.00  0.00    +0.097 C 
BRANCH  16  18
ATOM      2  O   UNL     1      -1.241  -3.137  23.590  0.00  0.00    -0.276 OA
ATOM      7  N   UNL     1      -2.873  -2.388  25.059  0.00  0.00    -0.302 N 
ATOM     18  C   UNL     1      -1.563  -2.462  24.571  0.00  0.00    +0.216 C 
BRANCH   7  22
ATOM     22  C   UNL     1      -3.301  -1.604  26.215  0.00  0.00    +0.104 C 
ATOM     26  C   UNL     1      -3.663  -0.186  25.822  0.00  0.00    +0.024 C 
ENDBRANCH   7  22
BRANCH   7  23
ATOM     23  C   UNL     1      -3.931  -3.130  24.386  0.00  0.00    +0.104 C 
ATOM     27  C   UNL     1      -4.677  -2.258  23.397  0.00  0.00    +0.024 C 
ENDBRANCH   7  23
ENDBRANCH  16  18
ENDBRANCH  15  16
ENDBRANCH  10  15
TORSDOF 9
ENDMDL
