MODEL 1
REMARK VINA RESULT:      -7.6      0.000      0.000
REMARK  Name = 28962512
REMARK  5 active torsions:
REMARK  status: ('A' for Active; 'I' for Inactive)
REMARK    1  A    between atoms: N_4  and  C_13
REMARK    2  A    between atoms: C_6  and  C_16
REMARK    3  A    between atoms: C_9  and  C_17
REMARK    4  A    between atoms: C_15  and  C_19
REMARK    5  A    between atoms: C_20  and  C_21
REMARK                            x       y       z     vdW  Elec       q    Type
REMARK                         _______ _______ _______ _____ _____    ______ ____
ROOT
ATOM      1  O   UNL     1      -3.105   2.935  24.719  0.00  0.00    -0.461 OA
ATOM      2  O   UNL     1      -4.827   4.431  25.012  0.00  0.00    -0.251 OA
ATOM      5  C   UNL     1      -1.856   0.780  24.296  0.00  0.00    +0.041 C 
ATOM      6  C   UNL     1      -1.890  -0.726  24.754  0.00  0.00    -0.025 C 
ATOM      7  C   UNL     1      -2.902   1.574  25.102  0.00  0.00    +0.184 C 
ATOM      8  C   UNL     1      -4.285   0.990  24.871  0.00  0.00    +0.044 C 
ATOM      9  C   UNL     1      -0.407   1.356  24.307  0.00  0.00    +0.013 C 
ATOM     10  C   UNL     1      -3.340  -1.294  24.662  0.00  0.00    +0.007 C 
ATOM     11  C   UNL     1      -0.984  -1.540  23.804  0.00  0.00    +0.009 C 
ATOM     12  C   UNL     1      -4.390  -0.433  25.380  0.00  0.00    +0.008 C 
ATOM     13  C   UNL     1       0.517   0.477  23.419  0.00  0.00    +0.076 C 
ATOM     14  C   UNL     1       0.446  -1.015  23.754  0.00  0.00    +0.023 C 
ATOM     15  C   UNL     1      -5.151   2.058  25.512  0.00  0.00    +0.101 C 
ATOM     16  C   UNL     1      -1.400  -0.921  26.212  0.00  0.00    +0.011 C 
ATOM     17  C   UNL     1      -0.347   2.817  23.834  0.00  0.00    +0.010 C 
ATOM     18  C   UNL     1      -4.392   3.292  25.062  0.00  0.00    +0.311 C 
ATOM     19  C   UNL     1      -6.586   2.044  25.020  0.00  0.00    +0.019 C 
ENDROOT
BRANCH  13   4
ATOM      3  O   UNL     1       2.656  -0.097  21.541  0.00  0.00    -0.276 OA
ATOM      4  N   UNL     1       1.898   0.906  23.501  0.00  0.00    -0.312 N 
ATOM     20  C   UNL     1       2.847   0.578  22.549  0.00  0.00    +0.210 C 
ATOM     21  C   UNL     1       4.193   1.172  22.864  0.00  0.00    +0.109 C 
ATOM     22  H   UNL     1       2.188   1.423  24.325  0.00  0.00    +0.149 HD
ENDBRANCH  13   4
TORSDOF 1
ENDMDL
MODEL 2
REMARK VINA RESULT:      -3.8     15.983     17.733
REMARK  Name = 28962512
REMARK  5 active torsions:
REMARK  status: ('A' for Active; 'I' for Inactive)
REMARK    1  A    between atoms: N_4  and  C_13
REMARK    2  A    between atoms: C_6  and  C_16
REMARK    3  A    between atoms: C_9  and  C_17
REMARK    4  A    between atoms: C_15  and  C_19
REMARK    5  A    between atoms: C_20  and  C_21
REMARK                            x       y       z     vdW  Elec       q    Type
REMARK                         _______ _______ _______ _____ _____    ______ ____
ROOT
ATOM      1  O   UNL     1      -7.153  -9.903  14.639  0.00  0.00    -0.461 OA
ATOM      2  O   UNL     1      -7.058  -9.923  16.936  0.00  0.00    -0.251 OA
ATOM      5  C   UNL     1      -6.518 -10.241  12.217  0.00  0.00    +0.041 C 
ATOM      6  C   UNL     1      -5.276 -10.036  11.270  0.00  0.00    -0.025 C 
ATOM      7  C   UNL     1      -6.186  -9.677  13.611  0.00  0.00    +0.184 C 
ATOM      8  C   UNL     1      -4.972 -10.389  14.182  0.00  0.00    +0.044 C 
ATOM      9  C   UNL     1      -7.835  -9.717  11.566  0.00  0.00    +0.013 C 
ATOM     10  C   UNL     1      -3.990 -10.634  11.918  0.00  0.00    +0.007 C 
ATOM     11  C   UNL     1      -5.551 -10.781   9.945  0.00  0.00    +0.009 C 
ATOM     12  C   UNL     1      -3.730 -10.145  13.350  0.00  0.00    +0.008 C 
ATOM     13  C   UNL     1      -8.056 -10.408  10.191  0.00  0.00    +0.076 C 
ATOM     14  C   UNL     1      -6.838 -10.327   9.266  0.00  0.00    +0.023 C 
ATOM     15  C   UNL     1      -5.000  -9.888  15.613  0.00  0.00    +0.101 C 
ATOM     16  C   UNL     1      -4.998  -8.542  10.963  0.00  0.00    +0.011 C 
ATOM     17  C   UNL     1      -9.066  -9.936  12.460  0.00  0.00    +0.010 C 
ATOM     18  C   UNL     1      -6.498  -9.910  15.852  0.00  0.00    +0.311 C 
ATOM     19  C   UNL     1      -4.242 -10.781  16.578  0.00  0.00    +0.019 C 
ENDROOT
BRANCH  13   4
ATOM      3  O   UNL     1      -8.341  -7.733   9.098  0.00  0.00    -0.276 OA
ATOM      4  N   UNL     1      -9.202  -9.859   9.498  0.00  0.00    -0.312 N 
ATOM     20  C   UNL     1      -9.241  -8.565   9.011  0.00  0.00    +0.210 C 
ATOM     21  C   UNL     1     -10.538  -8.260   8.311  0.00  0.00    +0.109 C 
ATOM     22  H   UNL     1     -10.032 -10.439   9.417  0.00  0.00    +0.149 HD
ENDBRANCH  13   4
TORSDOF 1
ENDMDL
