MODEL 1
REMARK VINA RESULT:       3.6      0.000      0.000
REMARK  Name = 11941488
REMARK  6 active torsions:
REMARK  status: ('A' for Active; 'I' for Inactive)
REMARK    1  A    between atoms: O_5  and  C_26
REMARK    2  A    between atoms: N_8  and  C_10
REMARK    3  A    between atoms: C_18  and  C_20
REMARK    4  A    between atoms: C_20  and  C_24
REMARK    5  A    between atoms: C_22  and  C_25
REMARK    6  A    between atoms: C_24  and  C_26
REMARK                            x       y       z     vdW  Elec       q    Type
REMARK                         _______ _______ _______ _____ _____    ______ ____
ROOT
ATOM      2  O   UNL     1      -4.938  -0.655  25.571  0.00  0.00    -0.273 OA
ATOM      3  O   UNL     1      -1.982   1.604  21.841  0.00  0.00    -0.270 OA
ATOM      7  N   UNL     1      -3.356   1.534  23.683  0.00  0.00    -0.284 N 
ATOM      9  N   UNL     1      -2.768  -1.034  24.994  0.00  0.00    -0.283 N 
ATOM     10  C   UNL     1      -4.801   2.157  25.449  0.00  0.00    +0.104 C 
ATOM     11  C   UNL     1      -3.588   1.285  25.094  0.00  0.00    +0.183 C 
ATOM     12  C   UNL     1      -5.546   2.290  24.119  0.00  0.00    +0.043 C 
ATOM     13  C   UNL     1      -4.426   2.323  23.091  0.00  0.00    +0.111 C 
ATOM     14  C   UNL     1      -3.850  -0.206  25.208  0.00  0.00    +0.240 C 
ATOM     15  C   UNL     1      -2.202   1.230  22.992  0.00  0.00    +0.249 C 
ATOM     16  C   UNL     1      -1.183   0.386  23.668  0.00  0.00    +0.059 A 
ATOM     17  C   UNL     1      -1.484  -0.698  24.511  0.00  0.00    +0.046 A 
ATOM     19  C   UNL     1       0.152   0.614  23.285  0.00  0.00    +0.024 A 
ATOM     21  C   UNL     1      -0.448  -1.567  24.893  0.00  0.00    +0.024 A 
ATOM     22  C   UNL     1       1.173  -0.233  23.713  0.00  0.00    -0.010 A 
ATOM     23  C   UNL     1       0.872  -1.331  24.507  0.00  0.00    +0.011 A 
ATOM     31  H   UNL     1      -2.888  -1.996  25.302  0.00  0.00    +0.155 HD
ENDROOT
BRANCH  22  25
ATOM      1  S   UNL     1       3.736  -1.148  23.685  0.00  0.00    -0.097 S 
ATOM     25  C   UNL     1       2.536   0.017  23.313  0.00  0.00    +0.019 A 
ATOM     27  C   UNL     1       3.061   1.101  22.644  0.00  0.00    +0.016 A 
ATOM     28  C   UNL     1       4.464   0.974  22.433  0.00  0.00    +0.008 A 
ATOM     29  C   UNL     1       4.960  -0.203  22.951  0.00  0.00    +0.046 A 
ENDBRANCH  22  25
BRANCH  10   8
ATOM      4  O   UNL     1      -2.147   2.920  26.313  0.00  0.00    -0.276 OA
ATOM      8  N   UNL     1      -4.380   3.448  25.944  0.00  0.00    -0.310 N 
ATOM     18  C   UNL     1      -3.078   3.721  26.336  0.00  0.00    +0.214 C 
ATOM     30  H   UNL     1      -5.087   4.170  26.057  0.00  0.00    +0.149 HD
BRANCH  18  20
ATOM     20  C   UNL     1      -2.928   5.154  26.813  0.00  0.00    +0.107 C 
BRANCH  20  24
ATOM     24  C   UNL     1      -2.312   6.062  25.752  0.00  0.00    +0.129 C 
BRANCH  24  26
ATOM      6  O   UNL     1      -0.252   5.246  24.746  0.00  0.00    -0.251 OA
ATOM     26  C   UNL     1      -1.474   5.286  24.764  0.00  0.00    +0.305 C 
BRANCH  26   5
ATOM      5  O   UNL     1      -2.251   4.619  23.871  0.00  0.00    -0.481 OA
ATOM     32  H   UNL     1      -1.761   4.406  23.047  0.00  0.00    +0.295 HD
ENDBRANCH  26   5
ENDBRANCH  24  26
ENDBRANCH  20  24
ENDBRANCH  18  20
ENDBRANCH  10   8
TORSDOF 6
ENDMDL
