MODEL 1
REMARK VINA RESULT:      11.7      0.000      0.000
REMARK  Name = 7142825
REMARK  2 active torsions:
REMARK  status: ('A' for Active; 'I' for Inactive)
REMARK    1  A    between atoms: N_7  and  C_19
REMARK    2  A    between atoms: C_23  and  C_25
REMARK                            x       y       z     vdW  Elec       q    Type
REMARK                         _______ _______ _______ _____ _____    ______ ____
ROOT
ATOM      1  O   UNL     1      -0.209  -0.425  22.351  0.00  0.00    -0.266 OA
ATOM      3  N   UNL     1      -3.999   1.687  24.898  0.00  0.00    -0.299 N 
ATOM      4  N   UNL     1      -2.003  -0.579  23.839  0.00  0.00    -0.310 N 
ATOM      5  N   UNL     1      -3.617   3.302  26.575  0.00  0.00    -0.223 NA
ATOM      6  N   UNL     1      -3.506   3.900  24.244  0.00  0.00    -0.223 NA
ATOM      9  C   UNL     1      -4.415  -0.049  23.164  0.00  0.00    +0.027 C 
ATOM     10  C   UNL     1      -3.918  -0.722  25.470  0.00  0.00    +0.054 C 
ATOM     11  C   UNL     1      -4.798  -1.028  24.263  0.00  0.00    +0.018 C 
ATOM     12  C   UNL     1      -4.652   1.405  23.615  0.00  0.00    +0.113 C 
ATOM     13  C   UNL     1      -2.956  -0.300  22.759  0.00  0.00    +0.130 C 
ATOM     14  C   UNL     1      -4.209   0.706  25.973  0.00  0.00    +0.117 C 
ATOM     15  C   UNL     1      -2.445  -0.863  25.135  0.00  0.00    +0.027 A 
ATOM     16  C   UNL     1      -1.566  -1.232  26.082  0.00  0.00    +0.024 A 
ATOM     17  C   UNL     1      -0.642  -0.649  23.482  0.00  0.00    +0.273 A 
ATOM     18  C   UNL     1      -3.698   3.005  25.251  0.00  0.00    +0.218 A 
ATOM     19  C   UNL     1       0.308  -1.038  24.573  0.00  0.00    +0.099 A 
ATOM     20  C   UNL     1      -0.162  -1.319  25.793  0.00  0.00    +0.030 A 
ATOM     21  C   UNL     1      -3.325   4.582  26.881  0.00  0.00    +0.116 A 
ATOM     22  C   UNL     1      -3.216   5.163  24.620  0.00  0.00    +0.116 A 
ATOM     24  C   UNL     1      -3.112   5.566  25.937  0.00  0.00    +0.039 A 
ENDROOT
BRANCH  19   7
ATOM      2  O   UNL     1       1.915   1.099  23.575  0.00  0.00    -0.270 OA
ATOM      7  N   UNL     1       1.637  -1.102  24.272  0.00  0.00    -0.277 N 
ATOM     23  C   UNL     1       2.365  -0.024  23.788  0.00  0.00    +0.248 C 
ATOM     30  H   UNL     1       2.036  -2.034  24.280  0.00  0.00    +0.155 HD
BRANCH  23  25
ATOM      8  N   UNL     1       6.490  -0.757  23.079  0.00  0.00    -0.263 NA
ATOM     25  C   UNL     1       3.807  -0.280  23.540  0.00  0.00    +0.040 A 
ATOM     26  C   UNL     1       4.331  -1.510  23.863  0.00  0.00    +0.033 A 
ATOM     27  C   UNL     1       4.577   0.719  22.995  0.00  0.00    +0.033 A 
ATOM     28  C   UNL     1       5.680  -1.699  23.612  0.00  0.00    +0.111 A 
ATOM     29  C   UNL     1       5.916   0.431  22.783  0.00  0.00    +0.111 A 
ENDBRANCH  23  25
ENDBRANCH  19   7
TORSDOF 2
ENDMDL
MODEL 2
REMARK VINA RESULT:      11.8      2.040      4.249
REMARK  Name = 7142825
REMARK  2 active torsions:
REMARK  status: ('A' for Active; 'I' for Inactive)
REMARK    1  A    between atoms: N_7  and  C_19
REMARK    2  A    between atoms: C_23  and  C_25
REMARK                            x       y       z     vdW  Elec       q    Type
REMARK                         _______ _______ _______ _____ _____    ______ ____
ROOT
ATOM      1  O   UNL     1       0.820   1.986  25.978  0.00  0.00    -0.266 OA
ATOM      3  N   UNL     1      -3.880   0.705  24.719  0.00  0.00    -0.299 N 
ATOM      4  N   UNL     1      -1.170   2.403  24.827  0.00  0.00    -0.310 N 
ATOM      5  N   UNL     1      -4.339  -1.233  23.455  0.00  0.00    -0.223 NA
ATOM      6  N   UNL     1      -3.842  -1.389  25.807  0.00  0.00    -0.223 NA
ATOM      9  C   UNL     1      -3.407   2.777  26.015  0.00  0.00    +0.027 C 
ATOM     10  C   UNL     1      -3.309   2.820  23.563  0.00  0.00    +0.054 C 
ATOM     11  C   UNL     1      -3.768   3.603  24.789  0.00  0.00    +0.018 C 
ATOM     12  C   UNL     1      -4.115   1.409  25.984  0.00  0.00    +0.113 C 
ATOM     13  C   UNL     1      -1.881   2.639  26.090  0.00  0.00    +0.130 C 
ATOM     14  C   UNL     1      -4.072   1.483  23.487  0.00  0.00    +0.117 C 
ATOM     15  C   UNL     1      -1.814   2.561  23.597  0.00  0.00    +0.027 A 
ATOM     16  C   UNL     1      -1.117   2.458  22.452  0.00  0.00    +0.024 A 
ATOM     17  C   UNL     1       0.207   2.117  24.918  0.00  0.00    +0.273 A 
ATOM     18  C   UNL     1      -4.026  -0.684  24.658  0.00  0.00    +0.218 A 
ATOM     19  C   UNL     1       0.941   1.983  23.620  0.00  0.00    +0.099 A 
ATOM     20  C   UNL     1       0.287   2.161  22.467  0.00  0.00    +0.030 A 
ATOM     21  C   UNL     1      -4.472  -2.575  23.431  0.00  0.00    +0.116 A 
ATOM     22  C   UNL     1      -3.990  -2.727  25.712  0.00  0.00    +0.116 A 
ATOM     24  C   UNL     1      -4.308  -3.381  24.539  0.00  0.00    +0.039 A 
ENDROOT
BRANCH  19   7
ATOM      2  O   UNL     1       2.189  -0.352  22.556  0.00  0.00    -0.270 OA
ATOM      7  N   UNL     1       2.272   1.691  23.664  0.00  0.00    -0.277 N 
ATOM     23  C   UNL     1       2.821   0.534  23.127  0.00  0.00    +0.248 C 
ATOM     30  H   UNL     1       2.829   2.303  24.251  0.00  0.00    +0.155 HD
BRANCH  23  25
ATOM      8  N   UNL     1       7.038   0.156  23.483  0.00  0.00    -0.263 NA
ATOM     25  C   UNL     1       4.295   0.402  23.251  0.00  0.00    +0.040 A 
ATOM     26  C   UNL     1       5.001  -0.180  22.225  0.00  0.00    +0.033 A 
ATOM     27  C   UNL     1       4.911   0.865  24.389  0.00  0.00    +0.033 A 
ATOM     28  C   UNL     1       6.373  -0.280  22.390  0.00  0.00    +0.111 A 
ATOM     29  C   UNL     1       6.288   0.719  24.457  0.00  0.00    +0.111 A 
ENDBRANCH  23  25
ENDBRANCH  19   7
TORSDOF 2
ENDMDL
MODEL 3
REMARK VINA RESULT:      15.6     13.755     17.895
REMARK  Name = 7142825
REMARK  2 active torsions:
REMARK  status: ('A' for Active; 'I' for Inactive)
REMARK    1  A    between atoms: N_7  and  C_19
REMARK    2  A    between atoms: C_23  and  C_25
REMARK                            x       y       z     vdW  Elec       q    Type
REMARK                         _______ _______ _______ _____ _____    ______ ____
ROOT
ATOM      1  O   UNL     1      15.963  -3.614  26.987  0.00  0.00    -0.266 OA
ATOM      3  N   UNL     1      14.709  -2.471  22.251  0.00  0.00    -0.299 N 
ATOM      4  N   UNL     1      16.539  -3.279  24.748  0.00  0.00    -0.310 N 
ATOM      5  N   UNL     1      13.281  -3.853  20.979  0.00  0.00    -0.223 NA
ATOM      6  N   UNL     1      12.386  -2.367  22.651  0.00  0.00    -0.223 NA
ATOM      9  C   UNL     1      16.253  -1.027  23.564  0.00  0.00    +0.027 C 
ATOM     10  C   UNL     1      17.138  -2.950  22.323  0.00  0.00    +0.054 C 
ATOM     11  C   UNL     1      17.405  -1.493  22.686  0.00  0.00    +0.018 C 
ATOM     12  C   UNL     1      14.912  -1.132  22.813  0.00  0.00    +0.113 C 
ATOM     13  C   UNL     1      16.256  -1.843  24.863  0.00  0.00    +0.130 C 
ATOM     14  C   UNL     1      15.836  -3.049  21.504  0.00  0.00    +0.117 C 
ATOM     15  C   UNL     1      17.040  -3.822  23.561  0.00  0.00    +0.027 A 
ATOM     16  C   UNL     1      17.405  -5.114  23.511  0.00  0.00    +0.024 A 
ATOM     17  C   UNL     1      16.383  -4.052  25.915  0.00  0.00    +0.273 A 
ATOM     18  C   UNL     1      13.417  -2.911  21.950  0.00  0.00    +0.218 A 
ATOM     19  C   UNL     1      16.776  -5.493  25.811  0.00  0.00    +0.099 A 
ATOM     20  C   UNL     1      17.268  -5.965  24.660  0.00  0.00    +0.030 A 
ATOM     21  C   UNL     1      12.022  -4.256  20.714  0.00  0.00    +0.116 A 
ATOM     22  C   UNL     1      11.153  -2.815  22.335  0.00  0.00    +0.116 A 
ATOM     24  C   UNL     1      10.908  -3.767  21.366  0.00  0.00    +0.039 A 
ENDROOT
BRANCH  19   7
ATOM      2  O   UNL     1      14.653  -7.339  26.287  0.00  0.00    -0.270 OA
ATOM      7  N   UNL     1      16.626  -6.280  26.915  0.00  0.00    -0.277 N 
ATOM     23  C   UNL     1      15.567  -7.161  27.088  0.00  0.00    +0.248 C 
ATOM     30  H   UNL     1      17.258  -6.075  27.680  0.00  0.00    +0.155 HD
BRANCH  23  25
ATOM      8  N   UNL     1      15.622  -9.420  30.686  0.00  0.00    -0.263 NA
ATOM     25  C   UNL     1      15.586  -7.951  28.346  0.00  0.00    +0.040 A 
ATOM     26  C   UNL     1      15.190  -7.349  29.517  0.00  0.00    +0.033 A 
ATOM     27  C   UNL     1      16.000  -9.261  28.304  0.00  0.00    +0.033 A 
ATOM     28  C   UNL     1      15.225  -8.128  30.662  0.00  0.00    +0.111 A 
ATOM     29  C   UNL     1      16.000  -9.955  29.504  0.00  0.00    +0.111 A 
ENDBRANCH  23  25
ENDBRANCH  19   7
TORSDOF 2
ENDMDL
