MODEL 1
REMARK VINA RESULT:      11.4      0.000      0.000
REMARK  Name = 40587832
REMARK  6 active torsions:
REMARK  status: ('A' for Active; 'I' for Inactive)
REMARK    1  A    between atoms: O_5  and  C_30
REMARK    2  A    between atoms: O_5  and  C_34
REMARK    3  A    between atoms: N_8  and  C_14
REMARK    4  A    between atoms: C_10  and  C_15
REMARK    5  A    between atoms: C_18  and  C_22
REMARK    6  A    between atoms: C_21  and  C_23
REMARK                            x       y       z     vdW  Elec       q    Type
REMARK                         _______ _______ _______ _____ _____    ______ ____
ROOT
ATOM      2  O   UNL     1      -3.654   3.304  22.275  0.00  0.00    -0.270 OA
ATOM      4  O   UNL     1       1.644  -1.187  21.063  0.00  0.00    -0.270 OA
ATOM      6  N   UNL     1      -1.703   2.169  22.903  0.00  0.00    -0.283 N 
ATOM      7  N   UNL     1       0.646   0.570  22.234  0.00  0.00    -0.294 N 
ATOM     10  C   UNL     1      -0.676   1.878  23.914  0.00  0.00    +0.179 C 
ATOM     11  C   UNL     1       0.695   1.580  23.303  0.00  0.00    +0.140 C 
ATOM     12  C   UNL     1      -1.424   1.741  21.531  0.00  0.00    +0.128 C 
ATOM     13  C   UNL     1      -0.599   0.464  21.476  0.00  0.00    +0.127 C 
ATOM     18  C   UNL     1      -2.848   2.944  23.132  0.00  0.00    +0.247 C 
ATOM     21  C   UNL     1       1.687  -0.314  21.929  0.00  0.00    +0.247 C 
ENDROOT
BRANCH  18  22
ATOM     22  C   UNL     1      -3.127   3.375  24.507  0.00  0.00    +0.037 A 
ATOM     24  C   UNL     1      -2.219   4.193  25.180  0.00  0.00    +0.016 A 
ATOM     25  C   UNL     1      -4.299   2.966  25.142  0.00  0.00    +0.016 A 
ATOM     28  C   UNL     1      -2.483   4.602  26.487  0.00  0.00    +0.046 A 
ATOM     29  C   UNL     1      -4.563   3.375  26.450  0.00  0.00    +0.046 A 
ATOM     30  C   UNL     1      -3.655   4.193  27.122  0.00  0.00    +0.120 A 
BRANCH  30   5
ATOM      5  O   UNL     1      -3.913   4.592  28.398  0.00  0.00    -0.495 OA
ATOM     34  C   UNL     1      -3.270   3.870  29.446  0.00  0.00    +0.277 C 
ENDBRANCH  30   5
ENDBRANCH  18  22
BRANCH  21  23
ATOM     23  C   UNL     1       2.943  -0.201  22.687  0.00  0.00    +0.037 A 
ATOM     26  C   UNL     1       3.417  -1.289  23.420  0.00  0.00    +0.013 A 
ATOM     27  C   UNL     1       3.661   0.996  22.674  0.00  0.00    +0.013 A 
ATOM     31  C   UNL     1       4.608  -1.182  24.138  0.00  0.00    +0.001 A 
ATOM     32  C   UNL     1       4.852   1.103  23.391  0.00  0.00    +0.001 A 
ATOM     33  C   UNL     1       5.326   0.014  24.123  0.00  0.00    +0.000 A 
ENDBRANCH  21  23
BRANCH  10  15
ATOM      1  O   UNL     1      -0.665   0.446  25.828  0.00  0.00    -0.274 OA
ATOM      8  N   UNL     1      -2.122  -0.028  24.074  0.00  0.00    -0.302 N 
ATOM     15  C   UNL     1      -1.142   0.702  24.725  0.00  0.00    +0.236 C 
ATOM     35  H   UNL     1      -2.462   0.296  23.174  0.00  0.00    +0.150 HD
BRANCH   8  14
ATOM      3  O   UNL     1      -0.518  -2.196  24.517  0.00  0.00    -0.274 OA
ATOM      9  N   UNL     1      -2.291  -3.622  24.320  0.00  0.00    -0.314 N 
ATOM     14  C   UNL     1      -2.720  -1.214  24.630  0.00  0.00    +0.159 C 
ATOM     16  C   UNL     1      -4.095  -1.462  24.026  0.00  0.00    +0.033 C 
ATOM     17  C   UNL     1      -4.624  -2.808  24.497  0.00  0.00    +0.021 C 
ATOM     19  C   UNL     1      -3.685  -3.901  24.028  0.00  0.00    +0.104 C 
ATOM     20  C   UNL     1      -1.737  -2.364  24.448  0.00  0.00    +0.233 C 
ATOM     36  H   UNL     1      -1.644  -4.403  24.256  0.00  0.00    +0.149 HD
ENDBRANCH   8  14
ENDBRANCH  10  15
TORSDOF 5
ENDMDL
MODEL 2
REMARK VINA RESULT:      12.6      2.688      4.431
REMARK  Name = 40587832
REMARK  6 active torsions:
REMARK  status: ('A' for Active; 'I' for Inactive)
REMARK    1  A    between atoms: O_5  and  C_30
REMARK    2  A    between atoms: O_5  and  C_34
REMARK    3  A    between atoms: N_8  and  C_14
REMARK    4  A    between atoms: C_10  and  C_15
REMARK    5  A    between atoms: C_18  and  C_22
REMARK    6  A    between atoms: C_21  and  C_23
REMARK                            x       y       z     vdW  Elec       q    Type
REMARK                         _______ _______ _______ _____ _____    ______ ____
ROOT
ATOM      2  O   UNL     1      -4.518  -1.348  24.155  0.00  0.00    -0.270 OA
ATOM      4  O   UNL     1       2.319  -2.963  24.755  0.00  0.00    -0.270 OA
ATOM      6  N   UNL     1      -2.249  -0.779  24.290  0.00  0.00    -0.283 N 
ATOM      7  N   UNL     1       0.575  -1.512  24.199  0.00  0.00    -0.294 N 
ATOM     10  C   UNL     1      -1.202   0.251  24.326  0.00  0.00    +0.179 C 
ATOM     11  C   UNL     1       0.111  -0.211  23.691  0.00  0.00    +0.140 C 
ATOM     12  C   UNL     1      -1.815  -2.160  24.070  0.00  0.00    +0.128 C 
ATOM     13  C   UNL     1      -0.448  -2.443  24.672  0.00  0.00    +0.127 C 
ATOM     18  C   UNL     1      -3.626  -0.515  24.308  0.00  0.00    +0.247 C 
ATOM     21  C   UNL     1       1.918  -1.893  24.297  0.00  0.00    +0.247 C 
ENDROOT
BRANCH  18  22
ATOM     22  C   UNL     1      -4.061   0.869  24.527  0.00  0.00    +0.037 A 
ATOM     24  C   UNL     1      -3.524   1.900  23.756  0.00  0.00    +0.016 A 
ATOM     25  C   UNL     1      -5.012   1.155  25.507  0.00  0.00    +0.016 A 
ATOM     28  C   UNL     1      -3.936   3.216  23.964  0.00  0.00    +0.046 A 
ATOM     29  C   UNL     1      -5.424   2.471  25.715  0.00  0.00    +0.046 A 
ATOM     30  C   UNL     1      -4.887   3.502  24.943  0.00  0.00    +0.120 A 
BRANCH  30   5
ATOM      5  O   UNL     1      -5.290   4.786  25.147  0.00  0.00    -0.495 OA
ATOM     34  C   UNL     1      -6.568   4.977  25.750  0.00  0.00    +0.277 C 
ENDBRANCH  30   5
ENDBRANCH  18  22
BRANCH  21  23
ATOM     23  C   UNL     1       2.946  -0.958  23.813  0.00  0.00    +0.037 A 
ATOM     26  C   UNL     1       4.295  -1.216  24.056  0.00  0.00    +0.013 A 
ATOM     27  C   UNL     1       2.571   0.188  23.110  0.00  0.00    +0.013 A 
ATOM     31  C   UNL     1       5.269  -0.330  23.596  0.00  0.00    +0.001 A 
ATOM     32  C   UNL     1       3.545   1.073  22.650  0.00  0.00    +0.001 A 
ATOM     33  C   UNL     1       4.894   0.814  22.892  0.00  0.00    +0.000 A 
ENDBRANCH  21  23
BRANCH  10  15
ATOM      1  O   UNL     1      -1.426  -0.033  26.689  0.00  0.00    -0.274 OA
ATOM      8  N   UNL     1      -0.228   1.793  25.882  0.00  0.00    -0.302 N 
ATOM     15  C   UNL     1      -0.971   0.631  25.761  0.00  0.00    +0.236 C 
ATOM     35  H   UNL     1       0.122   2.244  25.042  0.00  0.00    +0.150 HD
BRANCH   8  14
ATOM      3  O   UNL     1       1.254   4.089  25.884  0.00  0.00    -0.274 OA
ATOM      9  N   UNL     1       2.084   3.623  27.959  0.00  0.00    -0.314 N 
ATOM     14  C   UNL     1       0.113   2.381  27.152  0.00  0.00    +0.159 C 
ATOM     16  C   UNL     1       0.470   1.308  28.169  0.00  0.00    +0.033 C 
ATOM     17  C   UNL     1       0.993   1.961  29.438  0.00  0.00    +0.021 C 
ATOM     19  C   UNL     1       2.244   2.753  29.110  0.00  0.00    +0.104 C 
ATOM     20  C   UNL     1       1.211   3.411  26.912  0.00  0.00    +0.233 C 
ATOM     36  H   UNL     1       2.785   4.348  27.833  0.00  0.00    +0.149 HD
ENDBRANCH   8  14
ENDBRANCH  10  15
TORSDOF 5
ENDMDL
