MODEL 1
REMARK VINA RESULT:      -3.3      0.000      0.000
REMARK  Name = 71694125
REMARK  3 active torsions:
REMARK  status: ('A' for Active; 'I' for Inactive)
REMARK    1  A    between atoms: N_4  and  C_7
REMARK    2  A    between atoms: C_11  and  C_15
REMARK    3  A    between atoms: C_16  and  C_18
REMARK                            x       y       z     vdW  Elec       q    Type
REMARK                         _______ _______ _______ _____ _____    ______ ____
ROOT
ATOM      5  N   UNL     1      -1.102   1.305  23.765  0.00  0.00    -0.340 N 
ATOM      6  N   UNL     1      -1.166   3.164  24.976  0.00  0.00    -0.238 NA
ATOM     15  C   UNL     1      -1.885   2.222  24.408  0.00  0.00    +0.127 A 
ATOM     16  C   UNL     1       0.199   1.687  23.933  0.00  0.00    +0.073 A 
ATOM     17  C   UNL     1       0.134   2.837  24.683  0.00  0.00    +0.139 A 
ATOM     22  H   UNL     1      -1.427   0.492  23.258  0.00  0.00    +0.167 HD
ENDROOT
BRANCH  16  18
ATOM      1 CL   UNL     1       5.248   0.110  22.531  0.00  0.00    -0.076 Cl
ATOM      2  S   UNL     1       2.897   1.562  23.618  0.00  0.00    -0.075 S 
ATOM     18  C   UNL     1       1.302   0.978  23.407  0.00  0.00    +0.038 A 
ATOM     19  C   UNL     1       1.273  -0.202  22.697  0.00  0.00    +0.019 A 
ATOM     20  C   UNL     1       2.577  -0.632  22.320  0.00  0.00    +0.028 A 
ATOM     21  C   UNL     1       3.554   0.235  22.757  0.00  0.00    +0.079 A 
ENDBRANCH  16  18
BRANCH  15  11
ATOM      3  O   UNL     1      -5.425   3.246  25.174  0.00  0.00    -0.377 OA
ATOM      4  N   UNL     1      -3.887   0.839  25.044  0.00  0.00    -0.286 NA
ATOM     11  C   UNL     1      -3.401   2.097  24.421  0.00  0.00    +0.149 C 
ATOM     12  C   UNL     1      -5.358   0.835  25.110  0.00  0.00    +0.113 C 
ATOM     13  C   UNL     1      -4.000   3.311  25.160  0.00  0.00    +0.186 C 
ATOM     14  C   UNL     1      -5.865   2.068  25.846  0.00  0.00    +0.175 C 
BRANCH   4   7
ATOM      7  C   UNL     1      -3.467  -0.316  24.264  0.00  0.00    +0.058 C 
ATOM      8  C   UNL     1      -4.661  -1.282  24.102  0.00  0.00    +0.019 C 
ATOM      9  C   UNL     1      -2.838  -1.366  25.205  0.00  0.00    +0.019 C 
ATOM     10  C   UNL     1      -3.672  -2.421  24.442  0.00  0.00    +0.003 C 
ENDBRANCH   4   7
ENDBRANCH  15  11
TORSDOF 3
ENDMDL
MODEL 2
REMARK VINA RESULT:      -3.2      1.532      3.321
REMARK  Name = 71694125
REMARK  3 active torsions:
REMARK  status: ('A' for Active; 'I' for Inactive)
REMARK    1  A    between atoms: N_4  and  C_7
REMARK    2  A    between atoms: C_11  and  C_15
REMARK    3  A    between atoms: C_16  and  C_18
REMARK                            x       y       z     vdW  Elec       q    Type
REMARK                         _______ _______ _______ _____ _____    ______ ____
ROOT
ATOM      5  N   UNL     1      -1.332   0.847  24.283  0.00  0.00    -0.340 N 
ATOM      6  N   UNL     1      -2.430  -0.967  24.942  0.00  0.00    -0.238 NA
ATOM     15  C   UNL     1      -2.438   0.346  24.911  0.00  0.00    +0.127 A 
ATOM     16  C   UNL     1      -0.570  -0.217  23.888  0.00  0.00    +0.073 A 
ATOM     17  C   UNL     1      -1.268  -1.325  24.306  0.00  0.00    +0.139 A 
ATOM     22  H   UNL     1      -1.119   1.825  24.136  0.00  0.00    +0.167 HD
ENDROOT
BRANCH  16  18
ATOM      1 CL   UNL     1       4.526   1.153  22.439  0.00  0.00    -0.076 Cl
ATOM      2  S   UNL     1       1.927   0.860  23.844  0.00  0.00    -0.075 S 
ATOM     18  C   UNL     1       0.658  -0.092  23.201  0.00  0.00    +0.038 A 
ATOM     19  C   UNL     1       1.003  -0.670  21.999  0.00  0.00    +0.019 A 
ATOM     20  C   UNL     1       2.327  -0.327  21.601  0.00  0.00    +0.028 A 
ATOM     21  C   UNL     1       2.943   0.500  22.514  0.00  0.00    +0.079 A 
ENDBRANCH  16  18
BRANCH  15  11
ATOM      3  O   UNL     1      -5.935   1.531  25.647  0.00  0.00    -0.377 OA
ATOM      4  N   UNL     1      -3.390   2.672  25.014  0.00  0.00    -0.286 NA
ATOM     11  C   UNL     1      -3.509   1.267  25.479  0.00  0.00    +0.149 C 
ATOM     12  C   UNL     1      -4.513   3.477  25.524  0.00  0.00    +0.113 C 
ATOM     13  C   UNL     1      -4.899   0.709  25.111  0.00  0.00    +0.186 C 
ATOM     14  C   UNL     1      -5.844   2.854  25.124  0.00  0.00    +0.175 C 
BRANCH   4   7
ATOM      7  C   UNL     1      -2.153   3.269  25.494  0.00  0.00    +0.058 C 
ATOM      8  C   UNL     1      -2.392   4.765  25.793  0.00  0.00    +0.019 C 
ATOM      9  C   UNL     1      -1.303   3.721  24.287  0.00  0.00    +0.019 C 
ATOM     10  C   UNL     1      -1.056   5.035  25.065  0.00  0.00    +0.003 C 
ENDBRANCH   4   7
ENDBRANCH  15  11
TORSDOF 3
ENDMDL
MODEL 3
REMARK VINA RESULT:      -3.2      1.711      3.478
REMARK  Name = 71694125
REMARK  3 active torsions:
REMARK  status: ('A' for Active; 'I' for Inactive)
REMARK    1  A    between atoms: N_4  and  C_7
REMARK    2  A    between atoms: C_11  and  C_15
REMARK    3  A    between atoms: C_16  and  C_18
REMARK                            x       y       z     vdW  Elec       q    Type
REMARK                         _______ _______ _______ _____ _____    ______ ____
ROOT
ATOM      5  N   UNL     1      -0.116   0.750  24.277  0.00  0.00    -0.340 N 
ATOM      6  N   UNL     1      -1.208  -1.182  24.205  0.00  0.00    -0.238 NA
ATOM     15  C   UNL     1      -1.292   0.094  24.509  0.00  0.00    +0.127 A 
ATOM     16  C   UNL     1       0.776  -0.166  23.795  0.00  0.00    +0.073 A 
ATOM     17  C   UNL     1       0.080  -1.350  23.760  0.00  0.00    +0.139 A 
ATOM     22  H   UNL     1       0.061   1.734  24.434  0.00  0.00    +0.167 HD
ENDROOT
BRANCH  16  18
ATOM      1 CL   UNL     1       6.180  -0.384  22.960  0.00  0.00    -0.076 Cl
ATOM      2  S   UNL     1       3.366  -0.988  23.693  0.00  0.00    -0.075 S 
ATOM     18  C   UNL     1       2.107   0.144  23.438  0.00  0.00    +0.038 A 
ATOM     19  C   UNL     1       2.569   1.313  22.874  0.00  0.00    +0.019 A 
ATOM     20  C   UNL     1       3.974   1.279  22.648  0.00  0.00    +0.028 A 
ATOM     21  C   UNL     1       4.534   0.086  23.047  0.00  0.00    +0.079 A 
ENDBRANCH  16  18
BRANCH  15  11
ATOM      3  O   UNL     1      -4.953   0.702  25.141  0.00  0.00    -0.377 OA
ATOM      4  N   UNL     1      -2.600   2.239  24.612  0.00  0.00    -0.286 NA
ATOM     11  C   UNL     1      -2.511   0.824  25.053  0.00  0.00    +0.149 C 
ATOM     12  C   UNL     1      -3.851   2.849  25.094  0.00  0.00    +0.113 C 
ATOM     13  C   UNL     1      -3.784   0.063  24.630  0.00  0.00    +0.186 C 
ATOM     14  C   UNL     1      -5.054   2.034  24.640  0.00  0.00    +0.175 C 
BRANCH   4   7
ATOM      7  C   UNL     1      -1.488   3.013  25.143  0.00  0.00    +0.058 C 
ATOM      8  C   UNL     1      -2.017   4.358  25.687  0.00  0.00    +0.019 C 
ATOM      9  C   UNL     1      -0.834   3.817  23.998  0.00  0.00    +0.019 C 
ATOM     10  C   UNL     1      -0.819   5.020  24.969  0.00  0.00    +0.003 C 
ENDBRANCH   4   7
ENDBRANCH  15  11
TORSDOF 3
ENDMDL
MODEL 4
REMARK VINA RESULT:      -2.4      1.770      2.814
REMARK  Name = 71694125
REMARK  3 active torsions:
REMARK  status: ('A' for Active; 'I' for Inactive)
REMARK    1  A    between atoms: N_4  and  C_7
REMARK    2  A    between atoms: C_11  and  C_15
REMARK    3  A    between atoms: C_16  and  C_18
REMARK                            x       y       z     vdW  Elec       q    Type
REMARK                         _______ _______ _______ _____ _____    ______ ____
ROOT
ATOM      5  N   UNL     1       1.111   1.268  23.788  0.00  0.00    -0.340 N 
ATOM      6  N   UNL     1      -0.545   0.262  22.704  0.00  0.00    -0.238 NA
ATOM     15  C   UNL     1      -0.212   1.293  23.447  0.00  0.00    +0.127 A 
ATOM     16  C   UNL     1       1.657   0.148  23.226  0.00  0.00    +0.073 A 
ATOM     17  C   UNL     1       0.616  -0.457  22.563  0.00  0.00    +0.139 A 
ATOM     22  H   UNL     1       1.596   1.953  24.352  0.00  0.00    +0.167 HD
ENDROOT
BRANCH  16  18
ATOM      1 CL   UNL     1       7.129   0.150  23.173  0.00  0.00    -0.076 Cl
ATOM      2  S   UNL     1       4.260   0.869  22.912  0.00  0.00    -0.075 S 
ATOM     18  C   UNL     1       3.015  -0.217  23.360  0.00  0.00    +0.038 A 
ATOM     19  C   UNL     1       3.516  -1.409  23.835  0.00  0.00    +0.019 A 
ATOM     20  C   UNL     1       4.940  -1.432  23.830  0.00  0.00    +0.028 A 
ATOM     21  C   UNL     1       5.474  -0.256  23.352  0.00  0.00    +0.079 A 
ENDBRANCH  16  18
BRANCH  15  11
ATOM      3  O   UNL     1      -1.094   4.598  25.017  0.00  0.00    -0.377 OA
ATOM      4  N   UNL     1      -2.198   1.968  24.834  0.00  0.00    -0.286 NA
ATOM     11  C   UNL     1      -1.127   2.418  23.910  0.00  0.00    +0.149 C 
ATOM     12  C   UNL     1      -2.978   3.120  25.315  0.00  0.00    +0.113 C 
ATOM     13  C   UNL     1      -0.276   3.510  24.589  0.00  0.00    +0.186 C 
ATOM     14  C   UNL     1      -2.064   4.152  25.962  0.00  0.00    +0.175 C 
BRANCH   4   7
ATOM      7  C   UNL     1      -3.111   1.058  24.157  0.00  0.00    +0.058 C 
ATOM      8  C   UNL     1      -4.546   1.297  24.675  0.00  0.00    +0.019 C 
ATOM      9  C   UNL     1      -3.141  -0.289  24.911  0.00  0.00    +0.019 C 
ATOM     10  C   UNL     1      -4.679  -0.241  24.757  0.00  0.00    +0.003 C 
ENDBRANCH   4   7
ENDBRANCH  15  11
TORSDOF 3
ENDMDL
MODEL 5
REMARK VINA RESULT:      -2.2      1.960      3.219
REMARK  Name = 71694125
REMARK  3 active torsions:
REMARK  status: ('A' for Active; 'I' for Inactive)
REMARK    1  A    between atoms: N_4  and  C_7
REMARK    2  A    between atoms: C_11  and  C_15
REMARK    3  A    between atoms: C_16  and  C_18
REMARK                            x       y       z     vdW  Elec       q    Type
REMARK                         _______ _______ _______ _____ _____    ______ ____
ROOT
ATOM      5  N   UNL     1       0.343  -0.224  24.030  0.00  0.00    -0.340 N 
ATOM      6  N   UNL     1      -0.862   1.600  24.415  0.00  0.00    -0.238 NA
ATOM     15  C   UNL     1      -0.872   0.287  24.390  0.00  0.00    +0.127 A 
ATOM     16  C   UNL     1       1.182   0.831  23.809  0.00  0.00    +0.073 A 
ATOM     17  C   UNL     1       0.416   1.947  24.053  0.00  0.00    +0.139 A 
ATOM     22  H   UNL     1       0.577  -1.205  23.943  0.00  0.00    +0.167 HD
ENDROOT
BRANCH  16  18
ATOM      1 CL   UNL     1       6.260  -1.050  23.019  0.00  0.00    -0.076 Cl
ATOM      2  S   UNL     1       3.419  -0.715  23.817  0.00  0.00    -0.075 S 
ATOM     18  C   UNL     1       2.533   0.695  23.419  0.00  0.00    +0.038 A 
ATOM     19  C   UNL     1       3.292   1.601  22.712  0.00  0.00    +0.019 A 
ATOM     20  C   UNL     1       4.619   1.132  22.494  0.00  0.00    +0.028 A 
ATOM     21  C   UNL     1       4.824  -0.114  23.043  0.00  0.00    +0.079 A 
ENDBRANCH  16  18
BRANCH  15  11
ATOM      3  O   UNL     1      -2.850  -2.916  24.419  0.00  0.00    -0.377 OA
ATOM      4  N   UNL     1      -3.350  -0.107  24.218  0.00  0.00    -0.286 NA
ATOM     11  C   UNL     1      -2.049  -0.623  24.712  0.00  0.00    +0.149 C 
ATOM     12  C   UNL     1      -4.421  -1.084  24.477  0.00  0.00    +0.113 C 
ATOM     13  C   UNL     1      -1.780  -2.021  24.119  0.00  0.00    +0.186 C 
ATOM     14  C   UNL     1      -4.074  -2.435  23.866  0.00  0.00    +0.175 C 
BRANCH   4   7
ATOM      7  C   UNL     1      -3.700   1.134  24.891  0.00  0.00    +0.058 C 
ATOM      8  C   UNL     1      -5.181   1.080  25.325  0.00  0.00    +0.019 C 
ATOM      9  C   UNL     1      -4.122   2.184  23.840  0.00  0.00    +0.019 C 
ATOM     10  C   UNL     1      -5.303   2.521  24.779  0.00  0.00    +0.003 C 
ENDBRANCH   4   7
ENDBRANCH  15  11
TORSDOF 3
ENDMDL
MODEL 6
REMARK VINA RESULT:      -0.7      3.096      3.802
REMARK  Name = 71694125
REMARK  3 active torsions:
REMARK  status: ('A' for Active; 'I' for Inactive)
REMARK    1  A    between atoms: N_4  and  C_7
REMARK    2  A    between atoms: C_11  and  C_15
REMARK    3  A    between atoms: C_16  and  C_18
REMARK                            x       y       z     vdW  Elec       q    Type
REMARK                         _______ _______ _______ _____ _____    ______ ____
ROOT
ATOM      5  N   UNL     1      -1.315   2.424  26.241  0.00  0.00    -0.340 N 
ATOM      6  N   UNL     1      -0.772   2.606  24.096  0.00  0.00    -0.238 NA
ATOM     15  C   UNL     1      -1.759   2.447  24.949  0.00  0.00    +0.127 A 
ATOM     16  C   UNL     1       0.043   2.577  26.211  0.00  0.00    +0.073 A 
ATOM     17  C   UNL     1       0.355   2.687  24.877  0.00  0.00    +0.139 A 
ATOM     22  H   UNL     1      -1.888   2.314  27.068  0.00  0.00    +0.167 HD
ENDROOT
BRANCH  16  18
ATOM      1 CL   UNL     1       2.017   1.886  31.267  0.00  0.00    -0.076 Cl
ATOM      2  S   UNL     1       0.342   1.856  28.815  0.00  0.00    -0.075 S 
ATOM     18  C   UNL     1       0.857   2.604  27.364  0.00  0.00    +0.038 A 
ATOM     19  C   UNL     1       2.097   3.190  27.496  0.00  0.00    +0.019 A 
ATOM     20  C   UNL     1       2.631   3.023  28.806  0.00  0.00    +0.028 A 
ATOM     21  C   UNL     1       1.780   2.316  29.625  0.00  0.00    +0.079 A 
ENDBRANCH  16  18
BRANCH  15  11
ATOM      3  O   UNL     1      -5.395   3.418  24.900  0.00  0.00    -0.377 OA
ATOM      4  N   UNL     1      -3.832   1.033  25.106  0.00  0.00    -0.286 NA
ATOM     11  C   UNL     1      -3.237   2.302  24.618  0.00  0.00    +0.149 C 
ATOM     12  C   UNL     1      -5.280   1.009  24.838  0.00  0.00    +0.113 C 
ATOM     13  C   UNL     1      -4.005   3.502  25.209  0.00  0.00    +0.186 C 
ATOM     14  C   UNL     1      -5.958   2.228  25.447  0.00  0.00    +0.175 C 
BRANCH   4   7
ATOM      7  C   UNL     1      -3.230  -0.109  24.434  0.00  0.00    +0.058 C 
ATOM      8  C   UNL     1      -4.334  -1.122  24.062  0.00  0.00    +0.019 C 
ATOM      9  C   UNL     1      -2.751  -1.128  25.489  0.00  0.00    +0.019 C 
ATOM     10  C   UNL     1      -3.386  -2.220  24.596  0.00  0.00    +0.003 C 
ENDBRANCH   4   7
ENDBRANCH  15  11
TORSDOF 3
ENDMDL
MODEL 7
REMARK VINA RESULT:      -0.3      4.078      6.464
REMARK  Name = 71694125
REMARK  3 active torsions:
REMARK  status: ('A' for Active; 'I' for Inactive)
REMARK    1  A    between atoms: N_4  and  C_7
REMARK    2  A    between atoms: C_11  and  C_15
REMARK    3  A    between atoms: C_16  and  C_18
REMARK                            x       y       z     vdW  Elec       q    Type
REMARK                         _______ _______ _______ _____ _____    ______ ____
ROOT
ATOM      5  N   UNL     1      -1.423   2.001  24.647  0.00  0.00    -0.340 N 
ATOM      6  N   UNL     1       0.079   3.607  24.955  0.00  0.00    -0.238 NA
ATOM     15  C   UNL     1      -0.100   2.345  24.636  0.00  0.00    +0.127 A 
ATOM     16  C   UNL     1      -2.133   3.115  24.997  0.00  0.00    +0.073 A 
ATOM     17  C   UNL     1      -1.184   4.093  25.182  0.00  0.00    +0.139 A 
ATOM     22  H   UNL     1      -1.806   1.089  24.435  0.00  0.00    +0.167 HD
ENDROOT
BRANCH  16  18
ATOM      1 CL   UNL     1      -7.458   1.889  24.717  0.00  0.00    -0.076 Cl
ATOM      2  S   UNL     1      -4.497   1.868  24.498  0.00  0.00    -0.075 S 
ATOM     18  C   UNL     1      -3.540   3.148  25.114  0.00  0.00    +0.038 A 
ATOM     19  C   UNL     1      -4.307   4.134  25.694  0.00  0.00    +0.019 A 
ATOM     20  C   UNL     1      -5.698   3.836  25.633  0.00  0.00    +0.028 A 
ATOM     21  C   UNL     1      -5.942   2.633  25.007  0.00  0.00    +0.079 A 
ENDBRANCH  16  18
BRANCH  15  11
ATOM      3  O   UNL     1       2.991   1.050  22.923  0.00  0.00    -0.377 OA
ATOM      4  N   UNL     1       0.438   0.057  23.741  0.00  0.00    -0.286 NA
ATOM     11  C   UNL     1       0.977   1.330  24.282  0.00  0.00    +0.149 C 
ATOM     12  C   UNL     1       1.538  -0.833  23.331  0.00  0.00    +0.113 C 
ATOM     13  C   UNL     1       1.948   1.962  23.264  0.00  0.00    +0.186 C 
ATOM     14  C   UNL     1       2.450  -0.131  22.334  0.00  0.00    +0.175 C 
BRANCH   4   7
ATOM      7  C   UNL     1      -0.350  -0.637  24.750  0.00  0.00    +0.058 C 
ATOM      8  C   UNL     1       0.083  -2.118  24.805  0.00  0.00    +0.019 C 
ATOM      9  C   UNL     1      -1.673  -1.122  24.118  0.00  0.00    +0.019 C 
ATOM     10  C   UNL     1      -1.423  -2.466  24.841  0.00  0.00    +0.003 C 
ENDBRANCH   4   7
ENDBRANCH  15  11
TORSDOF 3
ENDMDL
MODEL 8
REMARK VINA RESULT:       0.1      1.824      2.586
REMARK  Name = 71694125
REMARK  3 active torsions:
REMARK  status: ('A' for Active; 'I' for Inactive)
REMARK    1  A    between atoms: N_4  and  C_7
REMARK    2  A    between atoms: C_11  and  C_15
REMARK    3  A    between atoms: C_16  and  C_18
REMARK                            x       y       z     vdW  Elec       q    Type
REMARK                         _______ _______ _______ _____ _____    ______ ____
ROOT
ATOM      5  N   UNL     1      -0.377   1.821  23.805  0.00  0.00    -0.340 N 
ATOM      6  N   UNL     1      -1.964   0.400  24.430  0.00  0.00    -0.238 NA
ATOM     15  C   UNL     1      -1.632   1.667  24.324  0.00  0.00    +0.127 A 
ATOM     16  C   UNL     1       0.123   0.572  23.565  0.00  0.00    +0.073 A 
ATOM     17  C   UNL     1      -0.874  -0.288  23.959  0.00  0.00    +0.139 A 
ATOM     22  H   UNL     1       0.094   2.699  23.630  0.00  0.00    +0.167 HD
ENDROOT
BRANCH  16  18
ATOM      1 CL   UNL     1       5.533   0.232  22.814  0.00  0.00    -0.076 Cl
ATOM      2  S   UNL     1       2.816   0.724  23.908  0.00  0.00    -0.075 S 
ATOM     18  C   UNL     1       1.405   0.328  23.024  0.00  0.00    +0.038 A 
ATOM     19  C   UNL     1       1.701  -0.222  21.796  0.00  0.00    +0.019 A 
ATOM     20  C   UNL     1       3.105  -0.321  21.578  0.00  0.00    +0.028 A 
ATOM     21  C   UNL     1       3.829   0.159  22.648  0.00  0.00    +0.079 A 
ENDBRANCH  16  18
BRANCH  15  11
ATOM      3  O   UNL     1      -2.315   5.163  25.540  0.00  0.00    -0.377 OA
ATOM      4  N   UNL     1      -3.500   2.569  25.745  0.00  0.00    -0.286 NA
ATOM     11  C   UNL     1      -2.483   2.869  24.707  0.00  0.00    +0.149 C 
ATOM     12  C   UNL     1      -4.214   3.797  26.134  0.00  0.00    +0.113 C 
ATOM     13  C   UNL     1      -1.558   4.004  25.193  0.00  0.00    +0.186 C 
ATOM     14  C   UNL     1      -3.231   4.865  26.592  0.00  0.00    +0.175 C 
BRANCH   4   7
ATOM      7  C   UNL     1      -4.481   1.618  25.242  0.00  0.00    +0.058 C 
ATOM      8  C   UNL     1      -5.227   2.241  24.042  0.00  0.00    +0.019 C 
ATOM      9  C   UNL     1      -5.793   1.768  26.042  0.00  0.00    +0.019 C 
ATOM     10  C   UNL     1      -6.527   1.703  24.683  0.00  0.00    +0.003 C 
ENDBRANCH   4   7
ENDBRANCH  15  11
TORSDOF 3
ENDMDL
MODEL 9
REMARK VINA RESULT:       0.7      3.995      5.443
REMARK  Name = 71694125
REMARK  3 active torsions:
REMARK  status: ('A' for Active; 'I' for Inactive)
REMARK    1  A    between atoms: N_4  and  C_7
REMARK    2  A    between atoms: C_11  and  C_15
REMARK    3  A    between atoms: C_16  and  C_18
REMARK                            x       y       z     vdW  Elec       q    Type
REMARK                         _______ _______ _______ _____ _____    ______ ____
ROOT
ATOM      5  N   UNL     1      -2.328   0.980  24.291  0.00  0.00    -0.340 N 
ATOM      6  N   UNL     1      -0.637   1.353  25.680  0.00  0.00    -0.238 NA
ATOM     15  C   UNL     1      -1.480   1.903  24.836  0.00  0.00    +0.127 A 
ATOM     16  C   UNL     1      -2.003  -0.237  24.821  0.00  0.00    +0.073 A 
ATOM     17  C   UNL     1      -0.957   0.019  25.675  0.00  0.00    +0.139 A 
ATOM     22  H   UNL     1      -3.061   1.165  23.619  0.00  0.00    +0.167 HD
ENDROOT
BRANCH  16  18
ATOM      1 CL   UNL     1      -5.687  -3.915  23.134  0.00  0.00    -0.076 Cl
ATOM      2  S   UNL     1      -4.248  -1.414  23.838  0.00  0.00    -0.075 S 
ATOM     18  C   UNL     1      -2.667  -1.440  24.494  0.00  0.00    +0.038 A 
ATOM     19  C   UNL     1      -2.188  -2.723  24.639  0.00  0.00    +0.019 A 
ATOM     20  C   UNL     1      -3.131  -3.699  24.206  0.00  0.00    +0.028 A 
ATOM     21  C   UNL     1      -4.295  -3.124  23.746  0.00  0.00    +0.079 A 
ENDBRANCH  16  18
BRANCH  15  11
ATOM      3  O   UNL     1      -0.261   5.444  24.448  0.00  0.00    -0.377 OA
ATOM      4  N   UNL     1      -2.688   4.090  25.122  0.00  0.00    -0.286 NA
ATOM     11  C   UNL     1      -1.567   3.376  24.461  0.00  0.00    +0.149 C 
ATOM     12  C   UNL     1      -2.649   5.525  24.790  0.00  0.00    +0.113 C 
ATOM     13  C   UNL     1      -0.231   4.063  24.808  0.00  0.00    +0.186 C 
ATOM     14  C   UNL     1      -1.297   6.122  25.156  0.00  0.00    +0.175 C 
BRANCH   4   7
ATOM      7  C   UNL     1      -3.969   3.560  24.678  0.00  0.00    +0.058 C 
ATOM      8  C   UNL     1      -5.105   4.463  25.206  0.00  0.00    +0.019 C 
ATOM      9  C   UNL     1      -4.453   2.489  25.679  0.00  0.00    +0.019 C 
ATOM     10  C   UNL     1      -5.843   3.161  25.590  0.00  0.00    +0.003 C 
ENDBRANCH   4   7
ENDBRANCH  15  11
TORSDOF 3
ENDMDL
