MODEL 1
REMARK VINA RESULT:      -1.3      0.000      0.000
REMARK  Name = 40777147
REMARK  11 active torsions:
REMARK  status: ('A' for Active; 'I' for Inactive)
REMARK    1  A    between atoms: O_5  and  C_34
REMARK    2  A    between atoms: N_8  and  C_18
REMARK    3  A    between atoms: C_12  and  C_19
REMARK    4  A    between atoms: C_13  and  C_18
REMARK    5  A    between atoms: C_21  and  C_25
REMARK    6  A    between atoms: C_22  and  C_24
REMARK    7  A    between atoms: C_23  and  C_26
REMARK    8  A    between atoms: C_24  and  C_27
REMARK    9  A    between atoms: C_27  and  C_30
REMARK   10  A    between atoms: C_30  and  C_34
REMARK   11  A    between atoms: C_33  and  C_35
REMARK                            x       y       z     vdW  Elec       q    Type
REMARK                         _______ _______ _______ _____ _____    ______ ____
ROOT
ATOM      7  N   UNL     1      -4.978   3.217  26.130  0.00  0.00    -0.297 NA
ATOM     11  C   UNL     1      -5.455   1.685  24.078  0.00  0.00    +0.002 C 
ATOM     12  C   UNL     1      -4.785   0.871  25.220  0.00  0.00    +0.055 C 
ATOM     13  C   UNL     1      -4.461   3.853  24.890  0.00  0.00    +0.074 C 
ATOM     14  C   UNL     1      -4.548   2.874  23.699  0.00  0.00    +0.024 C 
ATOM     15  C   UNL     1      -6.758   2.276  24.659  0.00  0.00    +0.019 C 
ATOM     16  C   UNL     1      -4.350   1.884  26.318  0.00  0.00    +0.094 C 
ATOM     17  C   UNL     1      -6.438   3.021  25.967  0.00  0.00    +0.085 C 
ENDROOT
BRANCH  12  19
ATOM      9  N   UNL     1      -3.970  -1.411  24.889  0.00  0.00    -0.237 NA
ATOM     10  N   UNL     1      -1.706  -1.879  24.210  0.00  0.00    -0.232 NA
ATOM     19  C   UNL     1      -3.669  -0.096  24.853  0.00  0.00    +0.050 A 
ATOM     20  C   UNL     1      -2.427   0.397  24.511  0.00  0.00    +0.052 A 
ATOM     21  C   UNL     1      -1.475  -0.551  24.195  0.00  0.00    +0.075 A 
ATOM     23  C   UNL     1      -2.957  -2.235  24.560  0.00  0.00    +0.127 A 
ATOM     26  C   UNL     1      -3.250  -3.697  24.591  0.00  0.00    +0.088 C 
BRANCH  21  25
ATOM     25  C   UNL     1      -0.135  -0.165  23.820  0.00  0.00    +0.000 A 
ATOM     28  C   UNL     1       0.784  -1.136  23.420  0.00  0.00    +0.010 A 
ATOM     29  C   UNL     1       0.241   1.178  23.858  0.00  0.00    +0.010 A 
ATOM     31  C   UNL     1       2.078  -0.763  23.057  0.00  0.00    +0.013 A 
ATOM     32  C   UNL     1       1.536   1.550  23.496  0.00  0.00    +0.013 A 
ATOM     33  C   UNL     1       2.454   0.580  23.095  0.00  0.00    +0.055 A 
BRANCH  33  35
ATOM      1  F   UNL     1       4.783   0.643  23.635  0.00  0.00    -0.166 F 
ATOM      2  F   UNL     1       3.967   2.324  22.525  0.00  0.00    -0.166 F 
ATOM      3  F   UNL     1       4.265   0.408  21.542  0.00  0.00    -0.166 F 
ATOM     35  C   UNL     1       3.838   0.978  22.708  0.00  0.00    +0.417 C 
ENDBRANCH  33  35
ENDBRANCH  21  25
ENDBRANCH  12  19
BRANCH  13  18
ATOM     18  C   UNL     1      -3.046   4.411  25.067  0.00  0.00    +0.123 C 
BRANCH  18   8
ATOM      4  O   UNL     1      -0.178   4.293  25.013  0.00  0.00    -0.276 OA
ATOM      8  N   UNL     1      -2.217   3.485  25.776  0.00  0.00    -0.314 N 
ATOM     22  C   UNL     1      -0.826   3.500  25.691  0.00  0.00    +0.213 C 
ATOM     36  H   UNL     1      -2.669   2.786  26.358  0.00  0.00    +0.149 HD
BRANCH  22  24
ATOM     24  C   UNL     1      -0.191   2.396  26.519  0.00  0.00    +0.096 C 
BRANCH  24  27
ATOM     27  C   UNL     1       0.962   2.874  27.400  0.00  0.00    +0.020 C 
BRANCH  27  30
ATOM     30  C   UNL     1       0.764   2.501  28.871  0.00  0.00    +0.121 C 
BRANCH  30  34
ATOM      6  O   UNL     1       2.202   1.702  30.667  0.00  0.00    -0.251 OA
ATOM     34  C   UNL     1       2.078   2.203  29.558  0.00  0.00    +0.305 C 
BRANCH  34   5
ATOM      5  O   UNL     1       3.135   2.562  28.783  0.00  0.00    -0.481 OA
ATOM     37  H   UNL     1       2.847   3.019  27.963  0.00  0.00    +0.295 HD
ENDBRANCH  34   5
ENDBRANCH  30  34
ENDBRANCH  27  30
ENDBRANCH  24  27
ENDBRANCH  22  24
ENDBRANCH  18   8
ENDBRANCH  13  18
TORSDOF 10
ENDMDL
MODEL 2
REMARK VINA RESULT:       2.1      1.858      3.403
REMARK  Name = 40777147
REMARK  11 active torsions:
REMARK  status: ('A' for Active; 'I' for Inactive)
REMARK    1  A    between atoms: O_5  and  C_34
REMARK    2  A    between atoms: N_8  and  C_18
REMARK    3  A    between atoms: C_12  and  C_19
REMARK    4  A    between atoms: C_13  and  C_18
REMARK    5  A    between atoms: C_21  and  C_25
REMARK    6  A    between atoms: C_22  and  C_24
REMARK    7  A    between atoms: C_23  and  C_26
REMARK    8  A    between atoms: C_24  and  C_27
REMARK    9  A    between atoms: C_27  and  C_30
REMARK   10  A    between atoms: C_30  and  C_34
REMARK   11  A    between atoms: C_33  and  C_35
REMARK                            x       y       z     vdW  Elec       q    Type
REMARK                         _______ _______ _______ _____ _____    ______ ____
ROOT
ATOM      7  N   UNL     1      -5.565   2.505  26.664  0.00  0.00    -0.297 NA
ATOM     11  C   UNL     1      -5.480   1.677  24.196  0.00  0.00    +0.002 C 
ATOM     12  C   UNL     1      -5.136   0.517  25.171  0.00  0.00    +0.055 C 
ATOM     13  C   UNL     1      -4.738   3.431  25.845  0.00  0.00    +0.074 C 
ATOM     14  C   UNL     1      -4.506   2.849  24.433  0.00  0.00    +0.024 C 
ATOM     15  C   UNL     1      -6.891   2.175  24.578  0.00  0.00    +0.019 C 
ATOM     16  C   UNL     1      -5.008   1.131  26.595  0.00  0.00    +0.094 C 
ATOM     17  C   UNL     1      -6.929   2.481  26.085  0.00  0.00    +0.085 C 
ENDROOT
BRANCH  12  19
ATOM      9  N   UNL     1      -4.183  -1.717  24.879  0.00  0.00    -0.237 NA
ATOM     10  N   UNL     1      -1.891  -2.059  24.221  0.00  0.00    -0.232 NA
ATOM     19  C   UNL     1      -3.961  -0.388  24.826  0.00  0.00    +0.050 A 
ATOM     20  C   UNL     1      -2.748   0.174  24.484  0.00  0.00    +0.052 A 
ATOM     21  C   UNL     1      -1.739  -0.720  24.188  0.00  0.00    +0.075 A 
ATOM     23  C   UNL     1      -3.121  -2.484  24.569  0.00  0.00    +0.127 A 
ATOM     26  C   UNL     1      -3.327  -3.960  24.619  0.00  0.00    +0.088 C 
BRANCH  21  25
ATOM     25  C   UNL     1      -0.422  -0.260  23.816  0.00  0.00    +0.000 A 
ATOM     28  C   UNL     1       0.196   0.753  24.550  0.00  0.00    +0.010 A 
ATOM     29  C   UNL     1       0.233  -0.830  22.725  0.00  0.00    +0.010 A 
ATOM     31  C   UNL     1       1.469   1.196  24.191  0.00  0.00    +0.013 A 
ATOM     32  C   UNL     1       1.506  -0.386  22.366  0.00  0.00    +0.013 A 
ATOM     33  C   UNL     1       2.124   0.627  23.099  0.00  0.00    +0.055 A 
BRANCH  33  35
ATOM      1  F   UNL     1       3.898   0.649  21.495  0.00  0.00    -0.166 F 
ATOM      2  F   UNL     1       4.448   0.706  23.598  0.00  0.00    -0.166 F 
ATOM      3  F   UNL     1       3.589   2.462  22.645  0.00  0.00    -0.166 F 
ATOM     35  C   UNL     1       3.485   1.102  22.715  0.00  0.00    +0.417 C 
ENDBRANCH  33  35
ENDBRANCH  21  25
ENDBRANCH  12  19
BRANCH  13  18
ATOM     18  C   UNL     1      -3.422   3.801  26.533  0.00  0.00    +0.123 C 
BRANCH  18   8
ATOM      4  O   UNL     1      -0.684   2.944  26.435  0.00  0.00    -0.276 OA
ATOM      8  N   UNL     1      -2.438   4.197  25.572  0.00  0.00    -0.314 N 
ATOM     22  C   UNL     1      -1.125   3.730  25.600  0.00  0.00    +0.213 C 
ATOM     36  H   UNL     1      -2.713   4.853  24.847  0.00  0.00    +0.149 HD
BRANCH  22  24
ATOM     24  C   UNL     1      -0.282   4.327  24.487  0.00  0.00    +0.096 C 
BRANCH  24  27
ATOM     27  C   UNL     1      -0.772   3.970  23.085  0.00  0.00    +0.020 C 
BRANCH  27  30
ATOM     30  C   UNL     1      -1.618   2.695  23.071  0.00  0.00    +0.121 C 
BRANCH  30  34
ATOM      6  O   UNL     1      -3.556   3.305  21.727  0.00  0.00    -0.251 OA
ATOM     34  C   UNL     1      -2.537   2.643  21.871  0.00  0.00    +0.305 C 
BRANCH  34   5
ATOM      5  O   UNL     1      -2.091   1.755  20.944  0.00  0.00    -0.481 OA
ATOM     37  H   UNL     1      -2.230   2.083  20.030  0.00  0.00    +0.295 HD
ENDBRANCH  34   5
ENDBRANCH  30  34
ENDBRANCH  27  30
ENDBRANCH  24  27
ENDBRANCH  22  24
ENDBRANCH  18   8
ENDBRANCH  13  18
TORSDOF 10
ENDMDL
MODEL 3
REMARK VINA RESULT:       2.2      1.460      2.041
REMARK  Name = 40777147
REMARK  11 active torsions:
REMARK  status: ('A' for Active; 'I' for Inactive)
REMARK    1  A    between atoms: O_5  and  C_34
REMARK    2  A    between atoms: N_8  and  C_18
REMARK    3  A    between atoms: C_12  and  C_19
REMARK    4  A    between atoms: C_13  and  C_18
REMARK    5  A    between atoms: C_21  and  C_25
REMARK    6  A    between atoms: C_22  and  C_24
REMARK    7  A    between atoms: C_23  and  C_26
REMARK    8  A    between atoms: C_24  and  C_27
REMARK    9  A    between atoms: C_27  and  C_30
REMARK   10  A    between atoms: C_30  and  C_34
REMARK   11  A    between atoms: C_33  and  C_35
REMARK                            x       y       z     vdW  Elec       q    Type
REMARK                         _______ _______ _______ _____ _____    ______ ____
ROOT
ATOM      7  N   UNL     1      -4.718   3.196  25.690  0.00  0.00    -0.297 NA
ATOM     11  C   UNL     1      -5.713   0.823  25.282  0.00  0.00    +0.002 C 
ATOM     12  C   UNL     1      -4.264   0.718  25.834  0.00  0.00    +0.055 C 
ATOM     13  C   UNL     1      -5.298   3.116  24.323  0.00  0.00    +0.074 C 
ATOM     14  C   UNL     1      -5.706   1.665  23.988  0.00  0.00    +0.024 C 
ATOM     15  C   UNL     1      -6.532   1.608  26.329  0.00  0.00    +0.019 C 
ATOM     16  C   UNL     1      -3.671   2.156  25.859  0.00  0.00    +0.094 C 
ATOM     17  C   UNL     1      -5.803   2.922  26.661  0.00  0.00    +0.085 C 
ENDROOT
BRANCH  12  19
ATOM      9  N   UNL     1      -3.814  -1.516  24.945  0.00  0.00    -0.237 NA
ATOM     10  N   UNL     1      -1.670  -2.125  24.031  0.00  0.00    -0.232 NA
ATOM     19  C   UNL     1      -3.319  -0.284  25.187  0.00  0.00    +0.050 A 
ATOM     20  C   UNL     1      -2.028   0.096  24.884  0.00  0.00    +0.052 A 
ATOM     21  C   UNL     1      -1.240  -0.876  24.301  0.00  0.00    +0.075 A 
ATOM     23  C   UNL     1      -2.948  -2.374  24.373  0.00  0.00    +0.127 A 
ATOM     26  C   UNL     1      -3.459  -3.747  24.092  0.00  0.00    +0.088 C 
BRANCH  21  25
ATOM     25  C   UNL     1       0.130  -0.605  23.936  0.00  0.00    +0.000 A 
ATOM     28  C   UNL     1       1.113  -1.571  24.154  0.00  0.00    +0.010 A 
ATOM     29  C   UNL     1       0.471   0.621  23.366  0.00  0.00    +0.010 A 
ATOM     31  C   UNL     1       2.437  -1.309  23.801  0.00  0.00    +0.013 A 
ATOM     32  C   UNL     1       1.796   0.882  23.014  0.00  0.00    +0.013 A 
ATOM     33  C   UNL     1       2.778  -0.083  23.231  0.00  0.00    +0.055 A 
BRANCH  33  35
ATOM      1  F   UNL     1       4.399   0.259  21.505  0.00  0.00    -0.166 F 
ATOM      2  F   UNL     1       5.057  -0.757  23.311  0.00  0.00    -0.166 F 
ATOM      3  F   UNL     1       4.666   1.381  23.343  0.00  0.00    -0.166 F 
ATOM     35  C   UNL     1       4.194   0.196  22.854  0.00  0.00    +0.417 C 
ENDBRANCH  33  35
ENDBRANCH  21  25
ENDBRANCH  12  19
BRANCH  13  18
ATOM     18  C   UNL     1      -4.370   3.707  23.260  0.00  0.00    +0.123 C 
BRANCH  18   8
ATOM      4  O   UNL     1      -2.101   2.258  22.262  0.00  0.00    -0.276 OA
ATOM      8  N   UNL     1      -3.026   3.788  23.744  0.00  0.00    -0.314 N 
ATOM     22  C   UNL     1      -1.980   3.045  23.198  0.00  0.00    +0.213 C 
ATOM     36  H   UNL     1      -2.834   4.411  24.524  0.00  0.00    +0.149 HD
BRANCH  22  24
ATOM     24  C   UNL     1      -0.665   3.297  23.913  0.00  0.00    +0.096 C 
BRANCH  24  27
ATOM     27  C   UNL     1      -0.786   4.238  25.111  0.00  0.00    +0.020 C 
BRANCH  27  30
ATOM     30  C   UNL     1      -1.030   3.485  26.420  0.00  0.00    +0.121 C 
BRANCH  30  34
ATOM      6  O   UNL     1       1.231   2.890  27.103  0.00  0.00    -0.251 OA
ATOM     34  C   UNL     1       0.110   2.548  26.751  0.00  0.00    +0.305 C 
BRANCH  34   5
ATOM      5  O   UNL     1      -0.261   1.249  26.613  0.00  0.00    -0.481 OA
ATOM     37  H   UNL     1      -1.236   1.152  26.551  0.00  0.00    +0.295 HD
ENDBRANCH  34   5
ENDBRANCH  30  34
ENDBRANCH  27  30
ENDBRANCH  24  27
ENDBRANCH  22  24
ENDBRANCH  18   8
ENDBRANCH  13  18
TORSDOF 10
ENDMDL
