MODEL 1
REMARK VINA RESULT:      -2.9      0.000      0.000
REMARK  Name = 45360564
REMARK  7 active torsions:
REMARK  status: ('A' for Active; 'I' for Inactive)
REMARK    1  A    between atoms: O_3  and  C_9
REMARK    2  A    between atoms: O_4  and  C_21
REMARK    3  A    between atoms: N_5  and  C_8
REMARK    4  A    between atoms: N_6  and  C_10
REMARK    5  A    between atoms: N_6  and  C_18
REMARK    6  A    between atoms: N_7  and  C_19
REMARK    7  A    between atoms: C_18  and  C_20
REMARK                            x       y       z     vdW  Elec       q    Type
REMARK                         _______ _______ _______ _____ _____    ______ ____
ROOT
ATOM      1  O   UNL     1      -2.141  -0.368  23.296  0.00  0.00    -0.343 OA
ATOM      2  O   UNL     1      -3.014  -1.647  25.023  0.00  0.00    -0.347 OA
ATOM      8  C   UNL     1      -2.159   0.557  25.526  0.00  0.00    +0.143 C 
ATOM      9  C   UNL     1      -0.752  -0.027  25.795  0.00  0.00    +0.156 C 
ATOM     10  C   UNL     1      -0.108  -0.705  24.561  0.00  0.00    +0.116 C 
ATOM     11  C   UNL     1      -1.155  -1.353  23.627  0.00  0.00    +0.166 C 
ATOM     12  C   UNL     1      -2.914  -0.311  24.503  0.00  0.00    +0.270 C 
ATOM     13  C   UNL     1      -2.027  -2.398  24.300  0.00  0.00    +0.196 C 
ENDROOT
BRANCH   8   5
ATOM      5  N   UNL     1      -2.063   1.933  25.040  0.00  0.00    -0.290 NA
ATOM      7  N   UNL     1      -2.051   4.799  25.412  0.00  0.00    -0.303 NA
ATOM     14  C   UNL     1      -0.912   2.618  25.638  0.00  0.00    +0.100 C 
ATOM     15  C   UNL     1      -3.302   2.672  25.318  0.00  0.00    +0.100 C 
ATOM     16  C   UNL     1      -0.813   4.062  25.132  0.00  0.00    +0.099 C 
ATOM     17  C   UNL     1      -3.202   4.115  24.812  0.00  0.00    +0.099 C 
ATOM     19  C   UNL     1      -1.956   6.176  24.928  0.00  0.00    +0.105 C 
ENDBRANCH   8   5
BRANCH   9   3
ATOM      3  O   UNL     1      -0.881  -1.005  26.838  0.00  0.00    -0.388 OA
ATOM     27  H   UNL     1      -0.966  -1.876  26.414  0.00  0.00    +0.210 HD
ENDBRANCH   9   3
BRANCH  10   6
ATOM      6  N   UNL     1       0.660   0.270  23.780  0.00  0.00    -0.305 NA
ATOM     26  H   UNL     1       1.243   0.827  24.406  0.00  0.00    +0.123 HD
BRANCH   6  18
ATOM     18  C   UNL     1       1.485  -0.403  22.791  0.00  0.00    +0.120 C 
BRANCH  18  20
ATOM     20  C   UNL     1       2.941  -0.389  23.171  0.00  0.00    +0.008 A 
ATOM     21  C   UNL     1       3.682   0.792  23.110  0.00  0.00    +0.121 A 
ATOM     22  C   UNL     1       3.549  -1.573  23.589  0.00  0.00    +0.008 A 
ATOM     23  C   UNL     1       5.031   0.788  23.466  0.00  0.00    +0.046 A 
ATOM     24  C   UNL     1       4.898  -1.576  23.944  0.00  0.00    +0.001 A 
ATOM     25  C   UNL     1       5.639  -0.396  23.882  0.00  0.00    +0.004 A 
BRANCH  21   4
ATOM      4  O   UNL     1       3.105   1.957  22.705  0.00  0.00    -0.506 OA
ATOM     28  H   UNL     1       3.664   2.703  22.983  0.00  0.00    +0.292 HD
ENDBRANCH  21   4
ENDBRANCH  18  20
ENDBRANCH   6  18
ENDBRANCH  10   6
TORSDOF 6
ENDMDL
MODEL 2
REMARK VINA RESULT:      -2.4      3.080      4.002
REMARK  Name = 45360564
REMARK  7 active torsions:
REMARK  status: ('A' for Active; 'I' for Inactive)
REMARK    1  A    between atoms: O_3  and  C_9
REMARK    2  A    between atoms: O_4  and  C_21
REMARK    3  A    between atoms: N_5  and  C_8
REMARK    4  A    between atoms: N_6  and  C_10
REMARK    5  A    between atoms: N_6  and  C_18
REMARK    6  A    between atoms: N_7  and  C_19
REMARK    7  A    between atoms: C_18  and  C_20
REMARK                            x       y       z     vdW  Elec       q    Type
REMARK                         _______ _______ _______ _____ _____    ______ ____
ROOT
ATOM      1  O   UNL     1      -2.600  -1.178  23.399  0.00  0.00    -0.343 OA
ATOM      2  O   UNL     1      -4.074  -2.630  24.448  0.00  0.00    -0.347 OA
ATOM      8  C   UNL     1      -3.857  -0.377  25.299  0.00  0.00    +0.143 C 
ATOM      9  C   UNL     1      -2.726  -0.825  26.253  0.00  0.00    +0.156 C 
ATOM     10  C   UNL     1      -1.470  -1.367  25.528  0.00  0.00    +0.116 C 
ATOM     11  C   UNL     1      -1.813  -2.071  24.196  0.00  0.00    +0.166 C 
ATOM     12  C   UNL     1      -3.880  -1.265  24.040  0.00  0.00    +0.270 C 
ATOM     13  C   UNL     1      -2.777  -3.235  24.337  0.00  0.00    +0.196 C 
ENDROOT
BRANCH   8   5
ATOM      5  N   UNL     1      -3.688   1.024  24.918  0.00  0.00    -0.290 NA
ATOM      7  N   UNL     1      -4.415   3.392  23.429  0.00  0.00    -0.303 NA
ATOM     14  C   UNL     1      -4.880   1.806  25.265  0.00  0.00    +0.100 C 
ATOM     15  C   UNL     1      -3.394   1.144  23.484  0.00  0.00    +0.100 C 
ATOM     16  C   UNL     1      -4.706   3.275  24.863  0.00  0.00    +0.099 C 
ATOM     17  C   UNL     1      -3.221   2.612  23.083  0.00  0.00    +0.099 C 
ATOM     19  C   UNL     1      -4.248   4.794  23.047  0.00  0.00    +0.105 C 
ENDBRANCH   8   5
BRANCH   9   3
ATOM      3  O   UNL     1      -3.253  -1.864  27.092  0.00  0.00    -0.388 OA
ATOM     27  H   UNL     1      -3.561  -2.582  26.512  0.00  0.00    +0.210 HD
ENDBRANCH   9   3
BRANCH  10   6
ATOM      6  N   UNL     1      -0.530  -0.278  25.242  0.00  0.00    -0.305 NA
ATOM     26  H   UNL     1      -0.751   0.135  24.334  0.00  0.00    +0.123 HD
BRANCH   6  18
ATOM     18  C   UNL     1      -0.588   0.734  26.282  0.00  0.00    +0.120 C 
BRANCH  18  20
ATOM     20  C   UNL     1      -0.629   2.126  25.710  0.00  0.00    +0.008 A 
ATOM     21  C   UNL     1       0.211   2.488  24.656  0.00  0.00    +0.121 A 
ATOM     22  C   UNL     1      -1.518   3.057  26.244  0.00  0.00    +0.008 A 
ATOM     23  C   UNL     1       0.161   3.781  24.137  0.00  0.00    +0.046 A 
ATOM     24  C   UNL     1      -1.568   4.351  25.726  0.00  0.00    +0.001 A 
ATOM     25  C   UNL     1      -0.728   4.713  24.673  0.00  0.00    +0.004 A 
BRANCH  21   4
ATOM      4  O   UNL     1       1.086   1.591  24.122  0.00  0.00    -0.506 OA
ATOM     28  H   UNL     1       0.617   1.036  23.475  0.00  0.00    +0.292 HD
ENDBRANCH  21   4
ENDBRANCH  18  20
ENDBRANCH   6  18
ENDBRANCH  10   6
TORSDOF 6
ENDMDL
MODEL 3
REMARK VINA RESULT:      -1.6      2.940      5.528
REMARK  Name = 45360564
REMARK  7 active torsions:
REMARK  status: ('A' for Active; 'I' for Inactive)
REMARK    1  A    between atoms: O_3  and  C_9
REMARK    2  A    between atoms: O_4  and  C_21
REMARK    3  A    between atoms: N_5  and  C_8
REMARK    4  A    between atoms: N_6  and  C_10
REMARK    5  A    between atoms: N_6  and  C_18
REMARK    6  A    between atoms: N_7  and  C_19
REMARK    7  A    between atoms: C_18  and  C_20
REMARK                            x       y       z     vdW  Elec       q    Type
REMARK                         _______ _______ _______ _____ _____    ______ ____
ROOT
ATOM      1  O   UNL     1      -2.345  -0.471  25.872  0.00  0.00    -0.343 OA
ATOM      2  O   UNL     1      -0.329  -1.612  25.984  0.00  0.00    -0.347 OA
ATOM      8  C   UNL     1      -0.424   0.462  24.745  0.00  0.00    +0.143 C 
ATOM      9  C   UNL     1      -0.794  -0.302  23.453  0.00  0.00    +0.156 C 
ATOM     10  C   UNL     1      -2.137  -1.067  23.538  0.00  0.00    +0.116 C 
ATOM     11  C   UNL     1      -2.439  -1.577  24.966  0.00  0.00    +0.166 C 
ATOM     12  C   UNL     1      -0.925  -0.304  25.984  0.00  0.00    +0.270 C 
ATOM     13  C   UNL     1      -1.372  -2.492  25.539  0.00  0.00    +0.196 C 
ENDROOT
BRANCH   8   5
ATOM      5  N   UNL     1      -0.991   1.810  24.729  0.00  0.00    -0.290 NA
ATOM      7  N   UNL     1      -0.855   4.664  25.162  0.00  0.00    -0.303 NA
ATOM     14  C   UNL     1      -0.234   2.682  23.824  0.00  0.00    +0.100 C 
ATOM     15  C   UNL     1      -1.024   2.378  26.083  0.00  0.00    +0.100 C 
ATOM     16  C   UNL     1      -0.825   4.097  23.809  0.00  0.00    +0.099 C 
ATOM     17  C   UNL     1      -1.613   3.792  26.067  0.00  0.00    +0.099 C 
ATOM     19  C   UNL     1      -1.420   6.013  25.148  0.00  0.00    +0.105 C 
ENDBRANCH   8   5
BRANCH   9   3
ATOM      3  O   UNL     1       0.255  -1.248  23.194  0.00  0.00    -0.388 OA
ATOM     27  H   UNL     1       0.950  -1.105  23.858  0.00  0.00    +0.210 HD
ENDBRANCH   9   3
BRANCH  10   6
ATOM      6  N   UNL     1      -3.247  -0.208  23.114  0.00  0.00    -0.305 NA
ATOM     26  H   UNL     1      -3.610  -0.536  22.217  0.00  0.00    +0.123 HD
BRANCH   6  18
ATOM     18  C   UNL     1      -4.302  -0.207  24.112  0.00  0.00    +0.120 C 
BRANCH  18  20
ATOM     20  C   UNL     1      -4.652   1.188  24.557  0.00  0.00    +0.008 A 
ATOM     21  C   UNL     1      -4.153   2.300  23.876  0.00  0.00    +0.121 A 
ATOM     22  C   UNL     1      -5.486   1.363  25.661  0.00  0.00    +0.008 A 
ATOM     23  C   UNL     1      -4.487   3.585  24.301  0.00  0.00    +0.046 A 
ATOM     24  C   UNL     1      -5.820   2.649  26.086  0.00  0.00    +0.001 A 
ATOM     25  C   UNL     1      -5.320   3.760  25.406  0.00  0.00    +0.004 A 
BRANCH  21   4
ATOM      4  O   UNL     1      -3.338   2.147  22.796  0.00  0.00    -0.506 OA
ATOM     28  H   UNL     1      -2.447   2.465  23.023  0.00  0.00    +0.292 HD
ENDBRANCH  21   4
ENDBRANCH  18  20
ENDBRANCH   6  18
ENDBRANCH  10   6
TORSDOF 6
ENDMDL
MODEL 4
REMARK VINA RESULT:      -1.5      2.970      5.443
REMARK  Name = 45360564
REMARK  7 active torsions:
REMARK  status: ('A' for Active; 'I' for Inactive)
REMARK    1  A    between atoms: O_3  and  C_9
REMARK    2  A    between atoms: O_4  and  C_21
REMARK    3  A    between atoms: N_5  and  C_8
REMARK    4  A    between atoms: N_6  and  C_10
REMARK    5  A    between atoms: N_6  and  C_18
REMARK    6  A    between atoms: N_7  and  C_19
REMARK    7  A    between atoms: C_18  and  C_20
REMARK                            x       y       z     vdW  Elec       q    Type
REMARK                         _______ _______ _______ _____ _____    ______ ____
ROOT
ATOM      1  O   UNL     1      -4.165   2.945  26.534  0.00  0.00    -0.343 OA
ATOM      2  O   UNL     1      -5.694   4.071  25.202  0.00  0.00    -0.347 OA
ATOM      8  C   UNL     1      -4.408   2.271  24.228  0.00  0.00    +0.143 C 
ATOM      9  C   UNL     1      -3.299   3.263  23.807  0.00  0.00    +0.156 C 
ATOM     10  C   UNL     1      -2.613   3.980  24.996  0.00  0.00    +0.116 C 
ATOM     11  C   UNL     1      -3.572   4.202  26.187  0.00  0.00    +0.166 C 
ATOM     12  C   UNL     1      -5.133   2.779  25.488  0.00  0.00    +0.270 C 
ATOM     13  C   UNL     1      -4.814   5.006  25.845  0.00  0.00    +0.196 C 
ENDROOT
BRANCH   8   5
ATOM      5  N   UNL     1      -3.847   0.944  24.476  0.00  0.00    -0.290 NA
ATOM      7  N   UNL     1      -3.990  -1.943  24.528  0.00  0.00    -0.303 NA
ATOM     14  C   UNL     1      -3.804   0.156  23.238  0.00  0.00    +0.100 C 
ATOM     15  C   UNL     1      -4.616   0.237  25.508  0.00  0.00    +0.100 C 
ATOM     16  C   UNL     1      -3.219  -1.237  23.497  0.00  0.00    +0.099 C 
ATOM     17  C   UNL     1      -4.031  -1.156  25.766  0.00  0.00    +0.099 C 
ATOM     19  C   UNL     1      -3.432  -3.271  24.776  0.00  0.00    +0.105 C 
ENDBRANCH   8   5
BRANCH   9   3
ATOM      3  O   UNL     1      -3.904   4.255  22.963  0.00  0.00    -0.388 OA
ATOM     27  H   UNL     1      -3.273   4.990  22.875  0.00  0.00    +0.210 HD
ENDBRANCH   9   3
BRANCH  10   6
ATOM      6  N   UNL     1      -1.464   3.203  25.472  0.00  0.00    -0.305 NA
ATOM     26  H   UNL     1      -1.780   2.505  26.148  0.00  0.00    +0.123 HD
BRANCH   6  18
ATOM     18  C   UNL     1      -0.788   2.557  24.361  0.00  0.00    +0.120 C 
BRANCH  18  20
ATOM     20  C   UNL     1      -0.557   1.092  24.618  0.00  0.00    +0.008 A 
ATOM     21  C   UNL     1       0.077   0.292  23.667  0.00  0.00    +0.121 A 
ATOM     22  C   UNL     1      -0.985   0.536  25.823  0.00  0.00    +0.008 A 
ATOM     23  C   UNL     1       0.283  -1.063  23.922  0.00  0.00    +0.046 A 
ATOM     24  C   UNL     1      -0.780  -0.820  26.078  0.00  0.00    +0.001 A 
ATOM     25  C   UNL     1      -0.146  -1.620  25.126  0.00  0.00    +0.004 A 
BRANCH  21   4
ATOM      4  O   UNL     1       0.502   0.819  22.485  0.00  0.00    -0.506 OA
ATOM     28  H   UNL     1      -0.262   1.187  22.008  0.00  0.00    +0.292 HD
ENDBRANCH  21   4
ENDBRANCH  18  20
ENDBRANCH   6  18
ENDBRANCH  10   6
TORSDOF 6
ENDMDL
MODEL 5
REMARK VINA RESULT:      -1.2      1.968      4.160
REMARK  Name = 45360564
REMARK  7 active torsions:
REMARK  status: ('A' for Active; 'I' for Inactive)
REMARK    1  A    between atoms: O_3  and  C_9
REMARK    2  A    between atoms: O_4  and  C_21
REMARK    3  A    between atoms: N_5  and  C_8
REMARK    4  A    between atoms: N_6  and  C_10
REMARK    5  A    between atoms: N_6  and  C_18
REMARK    6  A    between atoms: N_7  and  C_19
REMARK    7  A    between atoms: C_18  and  C_20
REMARK                            x       y       z     vdW  Elec       q    Type
REMARK                         _______ _______ _______ _____ _____    ______ ____
ROOT
ATOM      1  O   UNL     1      -0.717   2.113  26.029  0.00  0.00    -0.343 OA
ATOM      2  O   UNL     1      -1.751   3.964  25.089  0.00  0.00    -0.347 OA
ATOM      8  C   UNL     1      -2.402   1.762  24.335  0.00  0.00    +0.143 C 
ATOM      9  C   UNL     1      -1.319   1.797  23.231  0.00  0.00    +0.156 C 
ATOM     10  C   UNL     1       0.128   1.893  23.774  0.00  0.00    +0.116 C 
ATOM     11  C   UNL     1       0.211   2.684  25.099  0.00  0.00    +0.166 C 
ATOM     12  C   UNL     1      -1.968   2.617  25.540  0.00  0.00    +0.270 C 
ATOM     13  C   UNL     1      -0.324   4.102  25.014  0.00  0.00    +0.196 C 
ENDROOT
BRANCH   8   5
ATOM      5  N   UNL     1      -2.659   0.388  24.764  0.00  0.00    -0.290 NA
ATOM      7  N   UNL     1      -3.272  -2.393  24.266  0.00  0.00    -0.303 NA
ATOM     14  C   UNL     1      -1.653  -0.527  24.212  0.00  0.00    +0.100 C 
ATOM     15  C   UNL     1      -4.009  -0.037  24.374  0.00  0.00    +0.100 C 
ATOM     16  C   UNL     1      -1.923  -1.969  24.658  0.00  0.00    +0.099 C 
ATOM     17  C   UNL     1      -4.278  -1.479  24.820  0.00  0.00    +0.099 C 
ATOM     19  C   UNL     1      -3.530  -3.767  24.694  0.00  0.00    +0.105 C 
ENDBRANCH   8   5
BRANCH   9   3
ATOM      3  O   UNL     1      -1.576   2.945  22.409  0.00  0.00    -0.388 OA
ATOM     27  H   UNL     1      -0.983   3.656  22.704  0.00  0.00    +0.210 HD
ENDBRANCH   9   3
BRANCH  10   6
ATOM      6  N   UNL     1       0.683   0.555  24.002  0.00  0.00    -0.305 NA
ATOM     26  H   UNL     1      -0.075  -0.099  24.203  0.00  0.00    +0.123 HD
BRANCH   6  18
ATOM     18  C   UNL     1       1.438   0.111  22.844  0.00  0.00    +0.120 C 
BRANCH  18  20
ATOM     20  C   UNL     1       2.889  -0.116  23.174  0.00  0.00    +0.008 A 
ATOM     21  C   UNL     1       3.814   0.924  23.076  0.00  0.00    +0.121 A 
ATOM     22  C   UNL     1       3.305  -1.383  23.582  0.00  0.00    +0.008 A 
ATOM     23  C   UNL     1       5.155   0.696  23.386  0.00  0.00    +0.046 A 
ATOM     24  C   UNL     1       4.647  -1.611  23.891  0.00  0.00    +0.001 A 
ATOM     25  C   UNL     1       5.571  -0.572  23.792  0.00  0.00    +0.004 A 
BRANCH  21   4
ATOM      4  O   UNL     1       3.425   2.168  22.680  0.00  0.00    -0.506 OA
ATOM     28  H   UNL     1       4.180   2.776  22.757  0.00  0.00    +0.292 HD
ENDBRANCH  21   4
ENDBRANCH  18  20
ENDBRANCH   6  18
ENDBRANCH  10   6
TORSDOF 6
ENDMDL
MODEL 6
REMARK VINA RESULT:      -1.0      3.333      7.129
REMARK  Name = 45360564
REMARK  7 active torsions:
REMARK  status: ('A' for Active; 'I' for Inactive)
REMARK    1  A    between atoms: O_3  and  C_9
REMARK    2  A    between atoms: O_4  and  C_21
REMARK    3  A    between atoms: N_5  and  C_8
REMARK    4  A    between atoms: N_6  and  C_10
REMARK    5  A    between atoms: N_6  and  C_18
REMARK    6  A    between atoms: N_7  and  C_19
REMARK    7  A    between atoms: C_18  and  C_20
REMARK                            x       y       z     vdW  Elec       q    Type
REMARK                         _______ _______ _______ _____ _____    ______ ____
ROOT
ATOM      1  O   UNL     1      -1.634   3.161  23.960  0.00  0.00    -0.343 OA
ATOM      2  O   UNL     1       0.677   3.318  23.839  0.00  0.00    -0.347 OA
ATOM      8  C   UNL     1      -0.301   1.453  25.025  0.00  0.00    +0.143 C 
ATOM      9  C   UNL     1      -0.295   2.260  26.344  0.00  0.00    +0.156 C 
ATOM     10  C   UNL     1      -1.173   3.535  26.304  0.00  0.00    +0.116 C 
ATOM     11  C   UNL     1      -1.234   4.169  24.896  0.00  0.00    +0.166 C 
ATOM     12  C   UNL     1      -0.428   2.399  23.816  0.00  0.00    +0.270 C 
ATOM     13  C   UNL     1       0.121   4.549  24.326  0.00  0.00    +0.196 C 
ENDROOT
BRANCH   8   5
ATOM      5  N   UNL     1      -1.397   0.484  25.018  0.00  0.00    -0.290 NA
ATOM      7  N   UNL     1      -2.454  -2.205  24.948  0.00  0.00    -0.303 NA
ATOM     14  C   UNL     1      -1.325  -0.393  26.192  0.00  0.00    +0.100 C 
ATOM     15  C   UNL     1      -1.384  -0.309  23.782  0.00  0.00    +0.100 C 
ATOM     16  C   UNL     1      -2.470  -1.412  26.183  0.00  0.00    +0.099 C 
ATOM     17  C   UNL     1      -2.528  -1.328  23.774  0.00  0.00    +0.099 C 
ATOM     19  C   UNL     1      -3.548  -3.176  24.940  0.00  0.00    +0.105 C 
ENDBRANCH   8   5
BRANCH   9   3
ATOM      3  O   UNL     1       1.062   2.650  26.606  0.00  0.00    -0.388 OA
ATOM     27  H   UNL     1       1.349   2.190  27.413  0.00  0.00    +0.210 HD
ENDBRANCH   9   3
BRANCH  10   6
ATOM      6  N   UNL     1      -2.544   3.229  26.727  0.00  0.00    -0.305 NA
ATOM     26  H   UNL     1      -2.693   3.573  27.677  0.00  0.00    +0.123 HD
BRANCH   6  18
ATOM     18  C   UNL     1      -3.505   3.829  25.818  0.00  0.00    +0.120 C 
BRANCH  18  20
ATOM     20  C   UNL     1      -4.578   2.854  25.412  0.00  0.00    +0.008 A 
ATOM     21  C   UNL     1      -5.925   3.216  25.458  0.00  0.00    +0.121 A 
ATOM     22  C   UNL     1      -4.212   1.577  24.986  0.00  0.00    +0.008 A 
ATOM     23  C   UNL     1      -6.905   2.300  25.078  0.00  0.00    +0.046 A 
ATOM     24  C   UNL     1      -5.194   0.661  24.606  0.00  0.00    +0.001 A 
ATOM     25  C   UNL     1      -6.540   1.023  24.653  0.00  0.00    +0.004 A 
BRANCH  21   4
ATOM      4  O   UNL     1      -6.299   4.458  25.871  0.00  0.00    -0.506 OA
ATOM     28  H   UNL     1      -5.996   5.114  25.220  0.00  0.00    +0.292 HD
ENDBRANCH  21   4
ENDBRANCH  18  20
ENDBRANCH   6  18
ENDBRANCH  10   6
TORSDOF 6
ENDMDL
MODEL 7
REMARK VINA RESULT:      -0.9      2.563      5.883
REMARK  Name = 45360564
REMARK  7 active torsions:
REMARK  status: ('A' for Active; 'I' for Inactive)
REMARK    1  A    between atoms: O_3  and  C_9
REMARK    2  A    between atoms: O_4  and  C_21
REMARK    3  A    between atoms: N_5  and  C_8
REMARK    4  A    between atoms: N_6  and  C_10
REMARK    5  A    between atoms: N_6  and  C_18
REMARK    6  A    between atoms: N_7  and  C_19
REMARK    7  A    between atoms: C_18  and  C_20
REMARK                            x       y       z     vdW  Elec       q    Type
REMARK                         _______ _______ _______ _____ _____    ______ ____
ROOT
ATOM      1  O   UNL     1      -4.239   2.751  23.720  0.00  0.00    -0.343 OA
ATOM      2  O   UNL     1      -4.635   4.934  24.397  0.00  0.00    -0.347 OA
ATOM      8  C   UNL     1      -2.408   4.026  24.645  0.00  0.00    +0.143 C 
ATOM      9  C   UNL     1      -2.752   3.516  26.064  0.00  0.00    +0.156 C 
ATOM     10  C   UNL     1      -3.887   2.463  26.095  0.00  0.00    +0.116 C 
ATOM     11  C   UNL     1      -4.929   2.682  24.974  0.00  0.00    +0.166 C 
ATOM     12  C   UNL     1      -3.674   4.069  23.769  0.00  0.00    +0.270 C 
ATOM     13  C   UNL     1      -5.592   4.048  24.997  0.00  0.00    +0.196 C 
ENDROOT
BRANCH   8   5
ATOM      5  N   UNL     1      -1.397   3.175  24.020  0.00  0.00    -0.290 NA
ATOM      7  N   UNL     1       0.008   0.672  23.682  0.00  0.00    -0.303 NA
ATOM     14  C   UNL     1      -2.024   2.035  23.340  0.00  0.00    +0.100 C 
ATOM     15  C   UNL     1      -0.422   2.708  25.014  0.00  0.00    +0.100 C 
ATOM     16  C   UNL     1      -0.965   1.140  22.688  0.00  0.00    +0.099 C 
ATOM     17  C   UNL     1       0.636   1.812  24.361  0.00  0.00    +0.099 C 
ATOM     19  C   UNL     1       1.019  -0.181  23.059  0.00  0.00    +0.105 C 
ENDBRANCH   8   5
BRANCH   9   3
ATOM      3  O   UNL     1      -3.159   4.650  26.845  0.00  0.00    -0.388 OA
ATOM     27  H   UNL     1      -3.554   4.313  27.667  0.00  0.00    +0.210 HD
ENDBRANCH   9   3
BRANCH  10   6
ATOM      6  N   UNL     1      -3.340   1.110  25.954  0.00  0.00    -0.305 NA
ATOM     26  H   UNL     1      -3.046   0.763  26.868  0.00  0.00    +0.123 HD
BRANCH   6  18
ATOM     18  C   UNL     1      -4.327   0.218  25.370  0.00  0.00    +0.120 C 
BRANCH  18  20
ATOM     20  C   UNL     1      -3.700  -1.045  24.843  0.00  0.00    +0.008 A 
ATOM     21  C   UNL     1      -2.376  -1.364  25.148  0.00  0.00    +0.121 A 
ATOM     22  C   UNL     1      -4.457  -1.899  24.043  0.00  0.00    +0.008 A 
ATOM     23  C   UNL     1      -1.810  -2.538  24.651  0.00  0.00    +0.046 A 
ATOM     24  C   UNL     1      -3.891  -3.074  23.546  0.00  0.00    +0.001 A 
ATOM     25  C   UNL     1      -2.568  -3.393  23.850  0.00  0.00    +0.004 A 
BRANCH  21   4
ATOM      4  O   UNL     1      -1.622  -0.541  25.928  0.00  0.00    -0.506 OA
ATOM     28  H   UNL     1      -0.892  -0.179  25.395  0.00  0.00    +0.292 HD
ENDBRANCH  21   4
ENDBRANCH  18  20
ENDBRANCH   6  18
ENDBRANCH  10   6
TORSDOF 6
ENDMDL
MODEL 8
REMARK VINA RESULT:      -0.6      2.964      5.462
REMARK  Name = 45360564
REMARK  7 active torsions:
REMARK  status: ('A' for Active; 'I' for Inactive)
REMARK    1  A    between atoms: O_3  and  C_9
REMARK    2  A    between atoms: O_4  and  C_21
REMARK    3  A    between atoms: N_5  and  C_8
REMARK    4  A    between atoms: N_6  and  C_10
REMARK    5  A    between atoms: N_6  and  C_18
REMARK    6  A    between atoms: N_7  and  C_19
REMARK    7  A    between atoms: C_18  and  C_20
REMARK                            x       y       z     vdW  Elec       q    Type
REMARK                         _______ _______ _______ _____ _____    ______ ____
ROOT
ATOM      1  O   UNL     1      -0.669   3.096  25.731  0.00  0.00    -0.343 OA
ATOM      2  O   UNL     1      -0.279   3.844  23.570  0.00  0.00    -0.347 OA
ATOM      8  C   UNL     1      -2.248   2.509  24.000  0.00  0.00    +0.143 C 
ATOM      9  C   UNL     1      -1.460   1.212  23.702  0.00  0.00    +0.156 C 
ATOM     10  C   UNL     1      -0.280   0.957  24.672  0.00  0.00    +0.116 C 
ATOM     11  C   UNL     1       0.362   2.268  25.181  0.00  0.00    +0.166 C 
ATOM     12  C   UNL     1      -1.305   3.597  24.546  0.00  0.00    +0.270 C 
ATOM     13  C   UNL     1       0.884   3.174  24.080  0.00  0.00    +0.196 C 
ENDROOT
BRANCH   8   5
ATOM      5  N   UNL     1      -3.322   2.252  24.958  0.00  0.00    -0.290 NA
ATOM      7  N   UNL     1      -6.099   2.192  25.757  0.00  0.00    -0.303 NA
ATOM     14  C   UNL     1      -4.238   1.224  24.452  0.00  0.00    +0.100 C 
ATOM     15  C   UNL     1      -4.054   3.488  25.264  0.00  0.00    +0.100 C 
ATOM     16  C   UNL     1      -5.367   0.957  25.454  0.00  0.00    +0.099 C 
ATOM     17  C   UNL     1      -5.183   3.220  26.266  0.00  0.00    +0.099 C 
ATOM     19  C   UNL     1      -7.175   1.937  26.714  0.00  0.00    +0.105 C 
ENDBRANCH   8   5
BRANCH   9   3
ATOM      3  O   UNL     1      -0.939   1.319  22.368  0.00  0.00    -0.388 OA
ATOM     27  H   UNL     1      -1.233   0.535  21.874  0.00  0.00    +0.210 HD
ENDBRANCH   9   3
BRANCH  10   6
ATOM      6  N   UNL     1      -0.728   0.185  25.835  0.00  0.00    -0.305 NA
ATOM     26  H   UNL     1      -1.726   0.340  25.985  0.00  0.00    +0.123 HD
BRANCH   6  18
ATOM     18  C   UNL     1      -0.462  -1.230  25.642  0.00  0.00    +0.120 C 
BRANCH  18  20
ATOM     20  C   UNL     1      -1.644  -1.947  25.046  0.00  0.00    +0.008 A 
ATOM     21  C   UNL     1      -2.919  -1.797  25.595  0.00  0.00    +0.121 A 
ATOM     22  C   UNL     1      -1.455  -2.767  23.935  0.00  0.00    +0.008 A 
ATOM     23  C   UNL     1      -4.003  -2.469  25.030  0.00  0.00    +0.046 A 
ATOM     24  C   UNL     1      -2.540  -3.440  23.371  0.00  0.00    +0.001 A 
ATOM     25  C   UNL     1      -3.814  -3.290  23.919  0.00  0.00    +0.004 A 
BRANCH  21   4
ATOM      4  O   UNL     1      -3.122  -1.000  26.680  0.00  0.00    -0.506 OA
ATOM     28  H   UNL     1      -3.305  -0.094  26.378  0.00  0.00    +0.292 HD
ENDBRANCH  21   4
ENDBRANCH  18  20
ENDBRANCH   6  18
ENDBRANCH  10   6
TORSDOF 6
ENDMDL
MODEL 9
REMARK VINA RESULT:      -0.6      1.747      6.252
REMARK  Name = 45360564
REMARK  7 active torsions:
REMARK  status: ('A' for Active; 'I' for Inactive)
REMARK    1  A    between atoms: O_3  and  C_9
REMARK    2  A    between atoms: O_4  and  C_21
REMARK    3  A    between atoms: N_5  and  C_8
REMARK    4  A    between atoms: N_6  and  C_10
REMARK    5  A    between atoms: N_6  and  C_18
REMARK    6  A    between atoms: N_7  and  C_19
REMARK    7  A    between atoms: C_18  and  C_20
REMARK                            x       y       z     vdW  Elec       q    Type
REMARK                         _______ _______ _______ _____ _____    ______ ____
ROOT
ATOM      1  O   UNL     1      -0.208  -1.208  25.533  0.00  0.00    -0.343 OA
ATOM      2  O   UNL     1      -1.682  -1.693  23.810  0.00  0.00    -0.347 OA
ATOM      8  C   UNL     1       0.253  -0.325  23.334  0.00  0.00    +0.143 C 
ATOM      9  C   UNL     1      -0.545   0.957  23.666  0.00  0.00    +0.156 C 
ATOM     10  C   UNL     1      -1.042   1.025  25.131  0.00  0.00    +0.116 C 
ATOM     11  C   UNL     1      -1.355  -0.371  25.716  0.00  0.00    +0.166 C 
ATOM     12  C   UNL     1      -0.293  -1.521  24.136  0.00  0.00    +0.270 C 
ATOM     13  C   UNL     1      -2.394  -1.154  24.934  0.00  0.00    +0.196 C 
ENDROOT
BRANCH   8   5
ATOM      5  N   UNL     1       1.674  -0.138  23.621  0.00  0.00    -0.290 NA
ATOM      7  N   UNL     1       4.473  -0.173  22.899  0.00  0.00    -0.303 NA
ATOM     14  C   UNL     1       2.250   0.896  22.754  0.00  0.00    +0.100 C 
ATOM     15  C   UNL     1       2.407  -1.401  23.471  0.00  0.00    +0.100 C 
ATOM     16  C   UNL     1       3.741   1.090  23.051  0.00  0.00    +0.099 C 
ATOM     17  C   UNL     1       3.898  -1.206  23.768  0.00  0.00    +0.099 C 
ATOM     19  C   UNL     1       5.895   0.013  23.185  0.00  0.00    +0.105 C 
ENDBRANCH   8   5
BRANCH   9   3
ATOM      3  O   UNL     1      -1.686   0.995  22.795  0.00  0.00    -0.388 OA
ATOM     27  H   UNL     1      -1.532   1.695  22.139  0.00  0.00    +0.210 HD
ENDBRANCH   9   3
BRANCH  10   6
ATOM      6  N   UNL     1      -0.037   1.665  25.986  0.00  0.00    -0.305 NA
ATOM     26  H   UNL     1       0.790   1.892  25.431  0.00  0.00    +0.123 HD
BRANCH   6  18
ATOM     18  C   UNL     1      -0.577   2.866  26.599  0.00  0.00    +0.120 C 
BRANCH  18  20
ATOM     20  C   UNL     1      -1.777   3.385  25.853  0.00  0.00    +0.008 A 
ATOM     21  C   UNL     1      -1.656   4.455  24.965  0.00  0.00    +0.121 A 
ATOM     22  C   UNL     1      -3.019   2.785  26.058  0.00  0.00    +0.008 A 
ATOM     23  C   UNL     1      -2.778   4.923  24.282  0.00  0.00    +0.046 A 
ATOM     24  C   UNL     1      -4.141   3.255  25.374  0.00  0.00    +0.001 A 
ATOM     25  C   UNL     1      -4.021   4.324  24.487  0.00  0.00    +0.004 A 
BRANCH  21   4
ATOM      4  O   UNL     1      -0.451   5.052  24.753  0.00  0.00    -0.506 OA
ATOM     28  H   UNL     1      -0.525   5.999  24.960  0.00  0.00    +0.292 HD
ENDBRANCH  21   4
ENDBRANCH  18  20
ENDBRANCH   6  18
ENDBRANCH  10   6
TORSDOF 6
ENDMDL
MODEL 10
REMARK VINA RESULT:      -0.4      3.339      5.451
REMARK  Name = 45360564
REMARK  7 active torsions:
REMARK  status: ('A' for Active; 'I' for Inactive)
REMARK    1  A    between atoms: O_3  and  C_9
REMARK    2  A    between atoms: O_4  and  C_21
REMARK    3  A    between atoms: N_5  and  C_8
REMARK    4  A    between atoms: N_6  and  C_10
REMARK    5  A    between atoms: N_6  and  C_18
REMARK    6  A    between atoms: N_7  and  C_19
REMARK    7  A    between atoms: C_18  and  C_20
REMARK                            x       y       z     vdW  Elec       q    Type
REMARK                         _______ _______ _______ _____ _____    ______ ____
ROOT
ATOM      1  O   UNL     1      -1.866   4.309  25.678  0.00  0.00    -0.343 OA
ATOM      2  O   UNL     1      -0.808   4.963  23.720  0.00  0.00    -0.347 OA
ATOM      8  C   UNL     1      -2.622   3.370  23.586  0.00  0.00    +0.143 C 
ATOM      9  C   UNL     1      -1.629   2.195  23.738  0.00  0.00    +0.156 C 
ATOM     10  C   UNL     1      -0.862   2.191  25.083  0.00  0.00    +0.116 C 
ATOM     11  C   UNL     1      -0.613   3.616  25.628  0.00  0.00    +0.166 C 
ATOM     12  C   UNL     1      -2.081   4.626  24.296  0.00  0.00    +0.270 C 
ATOM     13  C   UNL     1       0.161   4.517  24.682  0.00  0.00    +0.196 C 
ENDROOT
BRANCH   8   5
ATOM      5  N   UNL     1      -3.932   3.015  24.129  0.00  0.00    -0.290 NA
ATOM      7  N   UNL     1      -5.663   1.946  26.182  0.00  0.00    -0.303 NA
ATOM     14  C   UNL     1      -4.207   3.765  25.360  0.00  0.00    +0.100 C 
ATOM     15  C   UNL     1      -4.019   1.570  24.377  0.00  0.00    +0.100 C 
ATOM     16  C   UNL     1      -5.578   3.390  25.933  0.00  0.00    +0.099 C 
ATOM     17  C   UNL     1      -5.390   1.196  24.951  0.00  0.00    +0.099 C 
ATOM     19  C   UNL     1      -6.972   1.589  26.727  0.00  0.00    +0.105 C 
ENDBRANCH   8   5
BRANCH   9   3
ATOM      3  O   UNL     1      -0.675   2.293  22.669  0.00  0.00    -0.388 OA
ATOM     27  H   UNL     1      -0.618   1.420  22.245  0.00  0.00    +0.210 HD
ENDBRANCH   9   3
BRANCH  10   6
ATOM      6  N   UNL     1      -1.606   1.437  26.098  0.00  0.00    -0.305 NA
ATOM     26  H   UNL     1      -2.571   1.306  25.788  0.00  0.00    +0.123 HD
BRANCH   6  18
ATOM     18  C   UNL     1      -0.978   0.150  26.341  0.00  0.00    +0.120 C 
BRANCH  18  20
ATOM     20  C   UNL     1      -1.669  -0.962  25.598  0.00  0.00    +0.008 A 
ATOM     21  C   UNL     1      -1.041  -1.602  24.528  0.00  0.00    +0.121 A 
ATOM     22  C   UNL     1      -2.949  -1.350  25.989  0.00  0.00    +0.008 A 
ATOM     23  C   UNL     1      -1.695  -2.630  23.850  0.00  0.00    +0.046 A 
ATOM     24  C   UNL     1      -3.604  -2.379  25.310  0.00  0.00    +0.001 A 
ATOM     25  C   UNL     1      -2.977  -3.018  24.241  0.00  0.00    +0.004 A 
BRANCH  21   4
ATOM      4  O   UNL     1       0.210  -1.235  24.133  0.00  0.00    -0.506 OA
ATOM     28  H   UNL     1       0.195  -0.302  23.858  0.00  0.00    +0.292 HD
ENDBRANCH  21   4
ENDBRANCH  18  20
ENDBRANCH   6  18
ENDBRANCH  10   6
TORSDOF 6
ENDMDL
