MODEL 1
REMARK VINA RESULT:      -5.0      0.000      0.000
REMARK  Name = 26743838
REMARK  6 active torsions:
REMARK  status: ('A' for Active; 'I' for Inactive)
REMARK    1  A    between atoms: O_1  and  C_13
REMARK    2  A    between atoms: N_3  and  C_7
REMARK    3  A    between atoms: C_6  and  C_7
REMARK    4  A    between atoms: C_8  and  C_17
REMARK    5  A    between atoms: C_18  and  C_19
REMARK    6  A    between atoms: C_22  and  C_25
REMARK                            x       y       z     vdW  Elec       q    Type
REMARK                         _______ _______ _______ _____ _____    ______ ____
ROOT
ATOM      3  N   UNL     1      -4.698   1.582  25.254  0.00  0.00    -0.289 NA
ATOM      8  C   UNL     1      -3.954   2.382  24.261  0.00  0.00    +0.148 C 
ATOM     11  C   UNL     1      -5.827   2.405  25.685  0.00  0.00    +0.116 C 
ATOM     12  C   UNL     1      -4.232   3.847  24.645  0.00  0.00    +0.061 C 
ATOM     13  C   UNL     1      -5.180   3.769  25.836  0.00  0.00    +0.130 C 
ENDROOT
BRANCH   8  17
ATOM      2  O   UNL     1      -1.748   2.469  25.310  0.00  0.00    -0.336 OA
ATOM      4  N   UNL     1      -1.779   1.420  23.331  0.00  0.00    -0.190 NA
ATOM      5  N   UNL     1      -0.431   2.058  25.067  0.00  0.00    -0.056 NA
ATOM     17  C   UNL     1      -2.476   2.054  24.240  0.00  0.00    +0.245 A 
ATOM     18  C   UNL     1      -0.530   1.447  23.882  0.00  0.00    +0.202 A 
BRANCH  18  19
ATOM     19  C   UNL     1       0.597   0.854  23.223  0.00  0.00    +0.023 A 
ATOM     20  C   UNL     1       1.890   1.258  23.553  0.00  0.00    +0.015 A 
ATOM     21  C   UNL     1       0.400  -0.126  22.251  0.00  0.00    +0.012 A 
ATOM     22  C   UNL     1       2.987   0.680  22.913  0.00  0.00    -0.050 A 
ATOM     23  C   UNL     1       1.495  -0.704  21.610  0.00  0.00    +0.001 A 
ATOM     24  C   UNL     1       2.789  -0.301  21.942  0.00  0.00    +0.003 A 
ATOM     25  C   UNL     1       4.370   1.111  23.266  0.00  0.00    +0.044 C 
ENDBRANCH  18  19
ENDBRANCH   8  17
BRANCH  13   1
ATOM      1  O   UNL     1      -6.134   4.811  25.787  0.00  0.00    -0.390 OA
ATOM     26  H   UNL     1      -6.794   4.636  26.479  0.00  0.00    +0.210 HD
ENDBRANCH  13   1
BRANCH   3   7
ATOM      7  C   UNL     1      -5.128   0.287  24.742  0.00  0.00    +0.088 C 
BRANCH   7   6
ATOM      6  C   UNL     1      -3.925  -0.614  24.466  0.00  0.00    +0.003 C 
ATOM      9  C   UNL     1      -3.070  -0.781  25.730  0.00  0.00    +0.005 C 
ATOM     10  C   UNL     1      -4.382  -1.978  23.930  0.00  0.00    +0.005 C 
ATOM     14  C   UNL     1      -1.891  -1.721  25.493  0.00  0.00    +0.000 C 
ATOM     15  C   UNL     1      -3.200  -2.916  23.697  0.00  0.00    +0.000 C 
ATOM     16  C   UNL     1      -2.348  -3.073  24.953  0.00  0.00    +0.000 C 
ENDBRANCH   7   6
ENDBRANCH   3   7
TORSDOF 5
ENDMDL
MODEL 2
REMARK VINA RESULT:      -3.9      1.955      6.327
REMARK  Name = 26743838
REMARK  6 active torsions:
REMARK  status: ('A' for Active; 'I' for Inactive)
REMARK    1  A    between atoms: O_1  and  C_13
REMARK    2  A    between atoms: N_3  and  C_7
REMARK    3  A    between atoms: C_6  and  C_7
REMARK    4  A    between atoms: C_8  and  C_17
REMARK    5  A    between atoms: C_18  and  C_19
REMARK    6  A    between atoms: C_22  and  C_25
REMARK                            x       y       z     vdW  Elec       q    Type
REMARK                         _______ _______ _______ _____ _____    ______ ____
ROOT
ATOM      3  N   UNL     1       0.771  -0.254  23.492  0.00  0.00    -0.289 NA
ATOM      8  C   UNL     1       1.193   1.006  24.135  0.00  0.00    +0.148 C 
ATOM     11  C   UNL     1       1.920  -0.732  22.724  0.00  0.00    +0.116 C 
ATOM     12  C   UNL     1       2.276   1.581  23.203  0.00  0.00    +0.061 C 
ATOM     13  C   UNL     1       2.426   0.550  22.090  0.00  0.00    +0.130 C 
ENDROOT
BRANCH   8  17
ATOM      2  O   UNL     1       0.324   3.288  24.244  0.00  0.00    -0.336 OA
ATOM      4  N   UNL     1      -1.213   1.705  24.632  0.00  0.00    -0.190 NA
ATOM      5  N   UNL     1      -0.880   3.964  24.481  0.00  0.00    -0.056 NA
ATOM     17  C   UNL     1       0.040   1.964  24.351  0.00  0.00    +0.245 A 
ATOM     18  C   UNL     1      -1.738   2.963  24.702  0.00  0.00    +0.202 A 
BRANCH  18  19
ATOM     19  C   UNL     1      -3.124   3.186  24.995  0.00  0.00    +0.023 A 
ATOM     20  C   UNL     1      -4.056   2.173  24.770  0.00  0.00    +0.015 A 
ATOM     21  C   UNL     1      -3.540   4.415  25.505  0.00  0.00    +0.012 A 
ATOM     22  C   UNL     1      -5.404   2.389  25.055  0.00  0.00    -0.050 A 
ATOM     23  C   UNL     1      -4.887   4.632  25.791  0.00  0.00    +0.001 A 
ATOM     24  C   UNL     1      -5.820   3.618  25.567  0.00  0.00    +0.003 A 
ATOM     25  C   UNL     1      -6.401   1.306  24.815  0.00  0.00    +0.044 C 
ENDBRANCH  18  19
ENDBRANCH   8  17
BRANCH  13   1
ATOM      1  O   UNL     1       3.777   0.440  21.689  0.00  0.00    -0.390 OA
ATOM     26  H   UNL     1       4.217   1.278  21.909  0.00  0.00    +0.210 HD
ENDBRANCH  13   1
BRANCH   3   7
ATOM      7  C   UNL     1       0.294  -1.251  24.442  0.00  0.00    +0.088 C 
BRANCH   7   6
ATOM      6  C   UNL     1      -1.233  -1.300  24.459  0.00  0.00    +0.003 C 
ATOM      9  C   UNL     1      -1.736  -2.679  24.010  0.00  0.00    +0.005 C 
ATOM     10  C   UNL     1      -1.771  -0.948  25.852  0.00  0.00    +0.005 C 
ATOM     14  C   UNL     1      -3.259  -2.770  24.070  0.00  0.00    +0.000 C 
ATOM     15  C   UNL     1      -3.294  -1.042  25.908  0.00  0.00    +0.000 C 
ATOM     16  C   UNL     1      -3.791  -2.411  25.454  0.00  0.00    +0.000 C 
ENDBRANCH   7   6
ENDBRANCH   3   7
TORSDOF 5
ENDMDL
MODEL 3
REMARK VINA RESULT:      -3.6      1.666      2.494
REMARK  Name = 26743838
REMARK  6 active torsions:
REMARK  status: ('A' for Active; 'I' for Inactive)
REMARK    1  A    between atoms: O_1  and  C_13
REMARK    2  A    between atoms: N_3  and  C_7
REMARK    3  A    between atoms: C_6  and  C_7
REMARK    4  A    between atoms: C_8  and  C_17
REMARK    5  A    between atoms: C_18  and  C_19
REMARK    6  A    between atoms: C_22  and  C_25
REMARK                            x       y       z     vdW  Elec       q    Type
REMARK                         _______ _______ _______ _____ _____    ______ ____
ROOT
ATOM      3  N   UNL     1      -3.069   2.005  24.837  0.00  0.00    -0.289 NA
ATOM      8  C   UNL     1      -2.008   2.638  24.029  0.00  0.00    +0.148 C 
ATOM     11  C   UNL     1      -3.703   3.077  25.602  0.00  0.00    +0.116 C 
ATOM     12  C   UNL     1      -1.589   3.883  24.834  0.00  0.00    +0.061 C 
ATOM     13  C   UNL     1      -2.503   3.889  26.053  0.00  0.00    +0.130 C 
ENDROOT
BRANCH   8  17
ATOM      2  O   UNL     1      -1.167   0.412  23.472  0.00  0.00    -0.336 OA
ATOM      4  N   UNL     1       0.436   1.952  23.747  0.00  0.00    -0.190 NA
ATOM      5  N   UNL     1       0.049  -0.250  23.257  0.00  0.00    -0.056 NA
ATOM     17  C   UNL     1      -0.849   1.703  23.754  0.00  0.00    +0.245 A 
ATOM     18  C   UNL     1       0.947   0.724  23.438  0.00  0.00    +0.202 A 
BRANCH  18  19
ATOM     19  C   UNL     1       2.358   0.504  23.315  0.00  0.00    +0.023 A 
ATOM     20  C   UNL     1       2.906  -0.728  23.671  0.00  0.00    +0.015 A 
ATOM     21  C   UNL     1       3.183   1.523  22.840  0.00  0.00    +0.012 A 
ATOM     22  C   UNL     1       4.279  -0.942  23.550  0.00  0.00    -0.050 A 
ATOM     23  C   UNL     1       4.556   1.310  22.719  0.00  0.00    +0.001 A 
ATOM     24  C   UNL     1       5.104   0.077  23.074  0.00  0.00    +0.003 A 
ATOM     25  C   UNL     1       4.865  -2.260  23.930  0.00  0.00    +0.044 C 
ENDBRANCH  18  19
ENDBRANCH   8  17
BRANCH  13   1
ATOM      1  O   UNL     1      -2.864   5.211  26.402  0.00  0.00    -0.390 OA
ATOM     26  H   UNL     1      -2.059   5.665  26.702  0.00  0.00    +0.210 HD
ENDBRANCH  13   1
BRANCH   3   7
ATOM      7  C   UNL     1      -4.032   1.260  24.036  0.00  0.00    +0.088 C 
BRANCH   7   6
ATOM      6  C   UNL     1      -4.206  -0.159  24.575  0.00  0.00    +0.003 C 
ATOM      9  C   UNL     1      -4.116  -1.186  23.437  0.00  0.00    +0.005 C 
ATOM     10  C   UNL     1      -3.166  -0.457  25.664  0.00  0.00    +0.005 C 
ATOM     14  C   UNL     1      -4.234  -2.616  23.958  0.00  0.00    +0.000 C 
ATOM     15  C   UNL     1      -3.286  -1.888  26.181  0.00  0.00    +0.000 C 
ATOM     16  C   UNL     1      -3.204  -2.905  25.046  0.00  0.00    +0.000 C 
ENDBRANCH   7   6
ENDBRANCH   3   7
TORSDOF 5
ENDMDL
MODEL 4
REMARK VINA RESULT:      -2.7      3.257      4.089
REMARK  Name = 26743838
REMARK  6 active torsions:
REMARK  status: ('A' for Active; 'I' for Inactive)
REMARK    1  A    between atoms: O_1  and  C_13
REMARK    2  A    between atoms: N_3  and  C_7
REMARK    3  A    between atoms: C_6  and  C_7
REMARK    4  A    between atoms: C_8  and  C_17
REMARK    5  A    between atoms: C_18  and  C_19
REMARK    6  A    between atoms: C_22  and  C_25
REMARK                            x       y       z     vdW  Elec       q    Type
REMARK                         _______ _______ _______ _____ _____    ______ ____
ROOT
ATOM      3  N   UNL     1      -3.780   1.823  24.545  0.00  0.00    -0.289 NA
ATOM      8  C   UNL     1      -3.020   3.081  24.689  0.00  0.00    +0.148 C 
ATOM     11  C   UNL     1      -5.194   2.182  24.631  0.00  0.00    +0.116 C 
ATOM     12  C   UNL     1      -3.928   3.997  25.530  0.00  0.00    +0.061 C 
ATOM     13  C   UNL     1      -5.194   3.183  25.771  0.00  0.00    +0.130 C 
ENDROOT
BRANCH   8  17
ATOM      2  O   UNL     1      -0.655   2.501  24.478  0.00  0.00    -0.336 OA
ATOM      4  N   UNL     1      -1.293   2.991  26.568  0.00  0.00    -0.190 NA
ATOM      5  N   UNL     1       0.489   2.367  25.275  0.00  0.00    -0.056 NA
ATOM     17  C   UNL     1      -1.659   2.870  25.317  0.00  0.00    +0.245 A 
ATOM     18  C   UNL     1       0.032   2.673  26.494  0.00  0.00    +0.202 A 
BRANCH  18  19
ATOM     19  C   UNL     1       0.872   2.670  27.655  0.00  0.00    +0.023 A 
ATOM     20  C   UNL     1       0.311   2.511  28.922  0.00  0.00    +0.015 A 
ATOM     21  C   UNL     1       2.251   2.826  27.518  0.00  0.00    +0.012 A 
ATOM     22  C   UNL     1       1.129   2.507  30.052  0.00  0.00    -0.050 A 
ATOM     23  C   UNL     1       3.070   2.823  28.647  0.00  0.00    +0.001 A 
ATOM     24  C   UNL     1       2.508   2.662  29.915  0.00  0.00    +0.003 A 
ATOM     25  C   UNL     1       0.529   2.336  31.407  0.00  0.00    +0.044 C 
ENDBRANCH  18  19
ENDBRANCH   8  17
BRANCH  13   1
ATOM      1  O   UNL     1      -6.338   4.014  25.741  0.00  0.00    -0.390 OA
ATOM     26  H   UNL     1      -6.810   3.891  26.582  0.00  0.00    +0.210 HD
ENDBRANCH  13   1
BRANCH   3   7
ATOM      7  C   UNL     1      -3.471   1.103  23.317  0.00  0.00    +0.088 C 
BRANCH   7   6
ATOM      6  C   UNL     1      -3.128  -0.357  23.614  0.00  0.00    +0.003 C 
ATOM      9  C   UNL     1      -2.212  -0.460  24.841  0.00  0.00    +0.005 C 
ATOM     10  C   UNL     1      -4.405  -1.184  23.813  0.00  0.00    +0.005 C 
ATOM     14  C   UNL     1      -1.898  -1.912  25.190  0.00  0.00    +0.000 C 
ATOM     15  C   UNL     1      -4.087  -2.636  24.164  0.00  0.00    +0.000 C 
ATOM     16  C   UNL     1      -3.171  -2.733  25.380  0.00  0.00    +0.000 C 
ENDBRANCH   7   6
ENDBRANCH   3   7
TORSDOF 5
ENDMDL
MODEL 5
REMARK VINA RESULT:      -2.4      1.899      4.253
REMARK  Name = 26743838
REMARK  6 active torsions:
REMARK  status: ('A' for Active; 'I' for Inactive)
REMARK    1  A    between atoms: O_1  and  C_13
REMARK    2  A    between atoms: N_3  and  C_7
REMARK    3  A    between atoms: C_6  and  C_7
REMARK    4  A    between atoms: C_8  and  C_17
REMARK    5  A    between atoms: C_18  and  C_19
REMARK    6  A    between atoms: C_22  and  C_25
REMARK                            x       y       z     vdW  Elec       q    Type
REMARK                         _______ _______ _______ _____ _____    ______ ____
ROOT
ATOM      3  N   UNL     1      -3.136  -0.387  23.508  0.00  0.00    -0.289 NA
ATOM      8  C   UNL     1      -2.273  -0.218  24.694  0.00  0.00    +0.148 C 
ATOM     11  C   UNL     1      -4.030  -1.505  23.803  0.00  0.00    +0.116 C 
ATOM     12  C   UNL     1      -2.196  -1.619  25.329  0.00  0.00    +0.061 C 
ATOM     13  C   UNL     1      -3.086  -2.496  24.456  0.00  0.00    +0.130 C 
ENDROOT
BRANCH   8  17
ATOM      2  O   UNL     1      -0.795   1.696  24.339  0.00  0.00    -0.336 OA
ATOM      4  N   UNL     1       0.196  -0.291  24.046  0.00  0.00    -0.190 NA
ATOM      5  N   UNL     1       0.535   1.971  23.995  0.00  0.00    -0.056 NA
ATOM     17  C   UNL     1      -0.909   0.342  24.346  0.00  0.00    +0.245 A 
ATOM     18  C   UNL     1       1.055   0.750  23.838  0.00  0.00    +0.202 A 
BRANCH  18  19
ATOM     19  C   UNL     1       2.425   0.535  23.476  0.00  0.00    +0.023 A 
ATOM     20  C   UNL     1       3.064  -0.652  23.833  0.00  0.00    +0.015 A 
ATOM     21  C   UNL     1       3.119   1.514  22.765  0.00  0.00    +0.012 A 
ATOM     22  C   UNL     1       4.397  -0.861  23.480  0.00  0.00    -0.050 A 
ATOM     23  C   UNL     1       4.452   1.306  22.411  0.00  0.00    +0.001 A 
ATOM     24  C   UNL     1       5.091   0.118  22.768  0.00  0.00    +0.003 A 
ATOM     25  C   UNL     1       5.081  -2.130  23.862  0.00  0.00    +0.044 C 
ENDBRANCH  18  19
ENDBRANCH   8  17
BRANCH  13   1
ATOM      1  O   UNL     1      -3.781  -3.445  25.242  0.00  0.00    -0.390 OA
ATOM     26  H   UNL     1      -3.287  -3.553  26.073  0.00  0.00    +0.210 HD
ENDBRANCH  13   1
BRANCH   3   7
ATOM      7  C   UNL     1      -3.868   0.822  23.154  0.00  0.00    +0.088 C 
BRANCH   7   6
ATOM      6  C   UNL     1      -4.118   1.688  24.389  0.00  0.00    +0.003 C 
ATOM      9  C   UNL     1      -3.753   3.152  24.107  0.00  0.00    +0.005 C 
ATOM     10  C   UNL     1      -5.576   1.566  24.851  0.00  0.00    +0.005 C 
ATOM     14  C   UNL     1      -4.044   4.046  25.310  0.00  0.00    +0.000 C 
ATOM     15  C   UNL     1      -5.864   2.463  26.052  0.00  0.00    +0.000 C 
ATOM     16  C   UNL     1      -5.493   3.916  25.771  0.00  0.00    +0.000 C 
ENDBRANCH   7   6
ENDBRANCH   3   7
TORSDOF 5
ENDMDL
MODEL 6
REMARK VINA RESULT:      -2.0      2.278      4.570
REMARK  Name = 26743838
REMARK  6 active torsions:
REMARK  status: ('A' for Active; 'I' for Inactive)
REMARK    1  A    between atoms: O_1  and  C_13
REMARK    2  A    between atoms: N_3  and  C_7
REMARK    3  A    between atoms: C_6  and  C_7
REMARK    4  A    between atoms: C_8  and  C_17
REMARK    5  A    between atoms: C_18  and  C_19
REMARK    6  A    between atoms: C_22  and  C_25
REMARK                            x       y       z     vdW  Elec       q    Type
REMARK                         _______ _______ _______ _____ _____    ______ ____
ROOT
ATOM      3  N   UNL     1      -3.236  -0.138  24.513  0.00  0.00    -0.289 NA
ATOM      8  C   UNL     1      -2.062  -1.011  24.716  0.00  0.00    +0.148 C 
ATOM     11  C   UNL     1      -4.410  -1.009  24.543  0.00  0.00    +0.116 C 
ATOM     12  C   UNL     1      -2.493  -2.384  24.169  0.00  0.00    +0.061 C 
ATOM     13  C   UNL     1      -3.939  -2.195  23.724  0.00  0.00    +0.130 C 
ENDROOT
BRANCH   8  17
ATOM      2  O   UNL     1      -1.009   0.375  23.000  0.00  0.00    -0.336 OA
ATOM      4  N   UNL     1       0.442  -0.715  24.313  0.00  0.00    -0.190 NA
ATOM      5  N   UNL     1       0.269   0.728  22.546  0.00  0.00    -0.056 NA
ATOM     17  C   UNL     1      -0.816  -0.477  24.042  0.00  0.00    +0.245 A 
ATOM     18  C   UNL     1       1.070   0.045  23.370  0.00  0.00    +0.202 A 
BRANCH  18  19
ATOM     19  C   UNL     1       2.500   0.102  23.278  0.00  0.00    +0.023 A 
ATOM     20  C   UNL     1       3.271  -0.973  23.719  0.00  0.00    +0.015 A 
ATOM     21  C   UNL     1       3.119   1.233  22.745  0.00  0.00    +0.012 A 
ATOM     22  C   UNL     1       4.662  -0.918  23.628  0.00  0.00    -0.050 A 
ATOM     23  C   UNL     1       4.510   1.288  22.654  0.00  0.00    +0.001 A 
ATOM     24  C   UNL     1       5.281   0.213  23.095  0.00  0.00    +0.003 A 
ATOM     25  C   UNL     1       5.486  -2.067  24.100  0.00  0.00    +0.044 C 
ENDBRANCH  18  19
ENDBRANCH   8  17
BRANCH  13   1
ATOM      1  O   UNL     1      -4.701  -3.355  23.993  0.00  0.00    -0.390 OA
ATOM     26  H   UNL     1      -5.616  -3.175  23.717  0.00  0.00    +0.210 HD
ENDBRANCH  13   1
BRANCH   3   7
ATOM      7  C   UNL     1      -3.327   0.938  25.492  0.00  0.00    +0.088 C 
BRANCH   7   6
ATOM      6  C   UNL     1      -2.720   2.228  24.940  0.00  0.00    +0.003 C 
ATOM      9  C   UNL     1      -3.682   3.407  25.135  0.00  0.00    +0.005 C 
ATOM     10  C   UNL     1      -1.364   2.514  25.600  0.00  0.00    +0.005 C 
ATOM     14  C   UNL     1      -3.076   4.718  24.640  0.00  0.00    +0.000 C 
ATOM     15  C   UNL     1      -0.761   3.827  25.104  0.00  0.00    +0.000 C 
ATOM     16  C   UNL     1      -1.725   4.995  25.292  0.00  0.00    +0.000 C 
ENDBRANCH   7   6
ENDBRANCH   3   7
TORSDOF 5
ENDMDL
MODEL 7
REMARK VINA RESULT:      -1.2      1.976      3.644
REMARK  Name = 26743838
REMARK  6 active torsions:
REMARK  status: ('A' for Active; 'I' for Inactive)
REMARK    1  A    between atoms: O_1  and  C_13
REMARK    2  A    between atoms: N_3  and  C_7
REMARK    3  A    between atoms: C_6  and  C_7
REMARK    4  A    between atoms: C_8  and  C_17
REMARK    5  A    between atoms: C_18  and  C_19
REMARK    6  A    between atoms: C_22  and  C_25
REMARK                            x       y       z     vdW  Elec       q    Type
REMARK                         _______ _______ _______ _____ _____    ______ ____
ROOT
ATOM      3  N   UNL     1      -4.004   2.596  25.468  0.00  0.00    -0.289 NA
ATOM      8  C   UNL     1      -3.929   1.143  25.717  0.00  0.00    +0.148 C 
ATOM     11  C   UNL     1      -5.420   2.910  25.278  0.00  0.00    +0.116 C 
ATOM     12  C   UNL     1      -5.153   0.554  24.992  0.00  0.00    +0.061 C 
ATOM     13  C   UNL     1      -5.880   1.758  24.405  0.00  0.00    +0.130 C 
ENDROOT
BRANCH   8  17
ATOM      2  O   UNL     1      -2.109  -0.463  26.007  0.00  0.00    -0.336 OA
ATOM      4  N   UNL     1      -1.898   0.841  24.199  0.00  0.00    -0.190 NA
ATOM      5  N   UNL     1      -0.918  -0.855  25.382  0.00  0.00    -0.056 NA
ATOM     17  C   UNL     1      -2.623   0.539  25.246  0.00  0.00    +0.245 A 
ATOM     18  C   UNL     1      -0.863  -0.040  24.324  0.00  0.00    +0.202 A 
BRANCH  18  19
ATOM     19  C   UNL     1       0.210  -0.082  23.374  0.00  0.00    +0.023 A 
ATOM     20  C   UNL     1       1.445   0.482  23.692  0.00  0.00    +0.015 A 
ATOM     21  C   UNL     1       0.019  -0.687  22.132  0.00  0.00    +0.012 A 
ATOM     22  C   UNL     1       2.490   0.441  22.768  0.00  0.00    -0.050 A 
ATOM     23  C   UNL     1       1.062  -0.729  21.208  0.00  0.00    +0.001 A 
ATOM     24  C   UNL     1       2.298  -0.165  21.526  0.00  0.00    +0.003 A 
ATOM     25  C   UNL     1       3.811   1.044  23.108  0.00  0.00    +0.044 C 
ENDBRANCH  18  19
ENDBRANCH   8  17
BRANCH  13   1
ATOM      1  O   UNL     1      -7.281   1.577  24.469  0.00  0.00    -0.390 OA
ATOM     26  H   UNL     1      -7.494   1.256  25.362  0.00  0.00    +0.210 HD
ENDBRANCH  13   1
BRANCH   3   7
ATOM      7  C   UNL     1      -3.405   3.393  26.531  0.00  0.00    +0.088 C 
BRANCH   7   6
ATOM      6  C   UNL     1      -2.044   3.938  26.100  0.00  0.00    +0.003 C 
ATOM      9  C   UNL     1      -0.970   2.844  26.183  0.00  0.00    +0.005 C 
ATOM     10  C   UNL     1      -2.119   4.525  24.684  0.00  0.00    +0.005 C 
ATOM     14  C   UNL     1       0.389   3.351  25.707  0.00  0.00    +0.000 C 
ATOM     15  C   UNL     1      -0.757   5.028  24.210  0.00  0.00    +0.000 C 
ATOM     16  C   UNL     1       0.308   3.940  24.301  0.00  0.00    +0.000 C 
ENDBRANCH   7   6
ENDBRANCH   3   7
TORSDOF 5
ENDMDL
