MODEL 1
REMARK VINA RESULT:       2.3      0.000      0.000
REMARK  Name = 40777165
REMARK  7 active torsions:
REMARK  status: ('A' for Active; 'I' for Inactive)
REMARK    1  A    between atoms: N_7  and  C_17
REMARK    2  A    between atoms: C_11  and  C_18
REMARK    3  A    between atoms: C_12  and  C_17
REMARK    4  A    between atoms: C_20  and  C_23
REMARK    5  A    between atoms: C_21  and  C_24
REMARK    6  A    between atoms: C_22  and  C_25
REMARK    7  A    between atoms: C_31  and  C_34
REMARK                            x       y       z     vdW  Elec       q    Type
REMARK                         _______ _______ _______ _____ _____    ______ ____
ROOT
ATOM      6  N   UNL     1      -3.707   3.446  25.948  0.00  0.00    -0.297 NA
ATOM     10  C   UNL     1      -4.558   1.874  24.054  0.00  0.00    +0.002 C 
ATOM     11  C   UNL     1      -3.849   1.052  25.165  0.00  0.00    +0.055 C 
ATOM     12  C   UNL     1      -3.272   3.964  24.624  0.00  0.00    +0.074 C 
ATOM     13  C   UNL     1      -3.586   2.942  23.510  0.00  0.00    +0.024 C 
ATOM     14  C   UNL     1      -5.724   2.625  24.732  0.00  0.00    +0.019 C 
ATOM     15  C   UNL     1      -3.197   2.066  26.148  0.00  0.00    +0.094 C 
ATOM     16  C   UNL     1      -5.189   3.396  25.951  0.00  0.00    +0.085 C 
ENDROOT
BRANCH  11  18
ATOM      8  N   UNL     1      -3.389  -1.288  24.620  0.00  0.00    -0.237 NA
ATOM      9  N   UNL     1      -1.193  -2.051  23.985  0.00  0.00    -0.232 NA
ATOM     18  C   UNL     1      -2.880  -0.044  24.741  0.00  0.00    +0.050 A 
ATOM     19  C   UNL     1      -1.557   0.271  24.506  0.00  0.00    +0.052 A 
ATOM     20  C   UNL     1      -0.751  -0.783  24.127  0.00  0.00    +0.075 A 
ATOM     21  C   UNL     1      -2.502  -2.229  24.244  0.00  0.00    +0.127 A 
ATOM     24  C   UNL     1      -3.025  -3.618  24.101  0.00  0.00    +0.088 C 
BRANCH  20  23
ATOM     23  C   UNL     1       0.652  -0.587  23.852  0.00  0.00    +0.000 A 
ATOM     26  C   UNL     1       1.079   0.565  23.193  0.00  0.00    +0.010 A 
ATOM     27  C   UNL     1       1.581  -1.550  24.246  0.00  0.00    +0.010 A 
ATOM     29  C   UNL     1       2.435   0.755  22.927  0.00  0.00    +0.013 A 
ATOM     30  C   UNL     1       2.937  -1.360  23.982  0.00  0.00    +0.013 A 
ATOM     31  C   UNL     1       3.365  -0.208  23.323  0.00  0.00    +0.055 A 
BRANCH  31  34
ATOM      1  F   UNL     1       5.094   0.166  21.714  0.00  0.00    -0.166 F 
ATOM      2  F   UNL     1       5.581  -1.061  23.442  0.00  0.00    -0.166 F 
ATOM      3  F   UNL     1       5.345   1.089  23.659  0.00  0.00    -0.166 F 
ATOM     34  C   UNL     1       4.814  -0.006  23.039  0.00  0.00    +0.417 C 
ENDBRANCH  31  34
ENDBRANCH  20  23
ENDBRANCH  11  18
BRANCH  12  17
ATOM     17  C   UNL     1      -1.800   4.380  24.616  0.00  0.00    +0.123 C 
BRANCH  17   7
ATOM      4  O   UNL     1       0.556   2.760  24.875  0.00  0.00    -0.267 OA
ATOM      7  N   UNL     1      -1.155   3.999  25.835  0.00  0.00    -0.307 N 
ATOM     22  C   UNL     1      -0.009   3.205  25.870  0.00  0.00    +0.279 C 
ATOM     35  H   UNL     1      -1.560   4.315  26.712  0.00  0.00    +0.149 HD
BRANCH  22  25
ATOM      5  O   UNL     1       1.839   3.119  27.458  0.00  0.00    -0.458 OA
ATOM     25  C   UNL     1       0.524   2.875  27.217  0.00  0.00    +0.189 A 
ATOM     28  C   UNL     1      -0.082   2.344  28.332  0.00  0.00    +0.054 A 
ATOM     32  C   UNL     1       0.927   2.256  29.322  0.00  0.00    +0.042 A 
ATOM     33  C   UNL     1       2.077   2.739  28.740  0.00  0.00    +0.196 A 
ENDBRANCH  22  25
ENDBRANCH  17   7
ENDBRANCH  12  17
TORSDOF 6
ENDMDL
MODEL 2
REMARK VINA RESULT:       5.2      2.038      4.016
REMARK  Name = 40777165
REMARK  7 active torsions:
REMARK  status: ('A' for Active; 'I' for Inactive)
REMARK    1  A    between atoms: N_7  and  C_17
REMARK    2  A    between atoms: C_11  and  C_18
REMARK    3  A    between atoms: C_12  and  C_17
REMARK    4  A    between atoms: C_20  and  C_23
REMARK    5  A    between atoms: C_21  and  C_24
REMARK    6  A    between atoms: C_22  and  C_25
REMARK    7  A    between atoms: C_31  and  C_34
REMARK                            x       y       z     vdW  Elec       q    Type
REMARK                         _______ _______ _______ _____ _____    ______ ____
ROOT
ATOM      6  N   UNL     1      -3.921  -1.360  26.036  0.00  0.00    -0.297 NA
ATOM     10  C   UNL     1      -2.931  -1.998  23.713  0.00  0.00    +0.002 C 
ATOM     11  C   UNL     1      -1.824  -1.418  24.636  0.00  0.00    +0.055 C 
ATOM     12  C   UNL     1      -4.756  -0.780  24.952  0.00  0.00    +0.074 C 
ATOM     13  C   UNL     1      -4.074  -0.970  23.579  0.00  0.00    +0.024 C 
ATOM     14  C   UNL     1      -3.513  -3.231  24.438  0.00  0.00    +0.019 C 
ATOM     15  C   UNL     1      -2.522  -0.878  25.916  0.00  0.00    +0.094 C 
ATOM     16  C   UNL     1      -3.918  -2.834  25.868  0.00  0.00    +0.085 C 
ENDROOT
BRANCH  11  18
ATOM      8  N   UNL     1      -1.382   0.714  23.521  0.00  0.00    -0.237 NA
ATOM      9  N   UNL     1       0.850   1.432  22.961  0.00  0.00    -0.232 NA
ATOM     18  C   UNL     1      -0.849  -0.410  24.042  0.00  0.00    +0.050 A 
ATOM     19  C   UNL     1       0.504  -0.683  24.058  0.00  0.00    +0.052 A 
ATOM     20  C   UNL     1       1.314   0.284  23.498  0.00  0.00    +0.075 A 
ATOM     21  C   UNL     1      -0.488   1.580  23.005  0.00  0.00    +0.127 A 
ATOM     24  C   UNL     1      -1.039   2.834  22.417  0.00  0.00    +0.088 C 
BRANCH  20  23
ATOM     23  C   UNL     1       2.747   0.121  23.451  0.00  0.00    +0.000 A 
ATOM     26  C   UNL     1       3.324  -1.091  23.834  0.00  0.00    +0.010 A 
ATOM     27  C   UNL     1       3.557   1.173  23.023  0.00  0.00    +0.010 A 
ATOM     29  C   UNL     1       4.709  -1.250  23.789  0.00  0.00    +0.013 A 
ATOM     30  C   UNL     1       4.941   1.014  22.977  0.00  0.00    +0.013 A 
ATOM     31  C   UNL     1       5.518  -0.196  23.360  0.00  0.00    +0.055 A 
BRANCH  31  34
ATOM      1  F   UNL     1       7.436  -1.045  22.211  0.00  0.00    -0.166 F 
ATOM      2  F   UNL     1       7.483  -1.056  24.384  0.00  0.00    -0.166 F 
ATOM      3  F   UNL     1       7.684   0.815  23.297  0.00  0.00    -0.166 F 
ATOM     34  C   UNL     1       6.998  -0.366  23.312  0.00  0.00    +0.417 C 
ENDBRANCH  31  34
ENDBRANCH  20  23
ENDBRANCH  11  18
BRANCH  12  17
ATOM     17  C   UNL     1      -5.113   0.685  25.213  0.00  0.00    +0.123 C 
BRANCH  17   7
ATOM      4  O   UNL     1      -4.977   3.483  25.841  0.00  0.00    -0.267 OA
ATOM      7  N   UNL     1      -3.941   1.506  25.206  0.00  0.00    -0.307 N 
ATOM     22  C   UNL     1      -3.965   2.862  25.525  0.00  0.00    +0.279 C 
ATOM     35  H   UNL     1      -3.057   1.077  24.947  0.00  0.00    +0.149 HD
BRANCH  22  25
ATOM      5  O   UNL     1      -1.559   2.946  25.907  0.00  0.00    -0.458 OA
ATOM     25  C   UNL     1      -2.668   3.581  25.446  0.00  0.00    +0.189 A 
ATOM     28  C   UNL     1      -2.346   4.831  24.970  0.00  0.00    +0.054 A 
ATOM     32  C   UNL     1      -0.948   4.972  25.151  0.00  0.00    +0.042 A 
ATOM     33  C   UNL     1      -0.517   3.798  25.725  0.00  0.00    +0.196 A 
ENDBRANCH  22  25
ENDBRANCH  17   7
ENDBRANCH  12  17
TORSDOF 6
ENDMDL
MODEL 3
REMARK VINA RESULT:       5.4      2.771      4.103
REMARK  Name = 40777165
REMARK  7 active torsions:
REMARK  status: ('A' for Active; 'I' for Inactive)
REMARK    1  A    between atoms: N_7  and  C_17
REMARK    2  A    between atoms: C_11  and  C_18
REMARK    3  A    between atoms: C_12  and  C_17
REMARK    4  A    between atoms: C_20  and  C_23
REMARK    5  A    between atoms: C_21  and  C_24
REMARK    6  A    between atoms: C_22  and  C_25
REMARK    7  A    between atoms: C_31  and  C_34
REMARK                            x       y       z     vdW  Elec       q    Type
REMARK                         _______ _______ _______ _____ _____    ______ ____
ROOT
ATOM      6  N   UNL     1      -3.601   4.466  24.156  0.00  0.00    -0.297 NA
ATOM     10  C   UNL     1      -1.384   3.972  25.430  0.00  0.00    +0.002 C 
ATOM     11  C   UNL     1      -1.302   3.445  23.970  0.00  0.00    +0.055 C 
ATOM     12  C   UNL     1      -3.898   3.819  25.461  0.00  0.00    +0.074 C 
ATOM     13  C   UNL     1      -2.597   3.331  26.135  0.00  0.00    +0.024 C 
ATOM     14  C   UNL     1      -1.659   5.488  25.340  0.00  0.00    +0.019 C 
ATOM     15  C   UNL     1      -2.718   3.592  23.343  0.00  0.00    +0.094 C 
ATOM     16  C   UNL     1      -2.876   5.730  24.431  0.00  0.00    +0.085 C 
ENDROOT
BRANCH  11  18
ATOM      8  N   UNL     1      -1.583   1.048  23.568  0.00  0.00    -0.237 NA
ATOM      9  N   UNL     1       0.295  -0.440  23.317  0.00  0.00    -0.232 NA
ATOM     18  C   UNL     1      -0.709   2.062  23.737  0.00  0.00    +0.050 A 
ATOM     19  C   UNL     1       0.662   1.906  23.711  0.00  0.00    +0.052 A 
ATOM     20  C   UNL     1       1.112   0.619  23.495  0.00  0.00    +0.075 A 
ATOM     21  C   UNL     1      -1.021  -0.158  23.366  0.00  0.00    +0.127 A 
ATOM     24  C   UNL     1      -1.954  -1.306  23.177  0.00  0.00    +0.088 C 
BRANCH  20  23
ATOM     23  C   UNL     1       2.523   0.321  23.446  0.00  0.00    +0.000 A 
ATOM     26  C   UNL     1       3.428   1.296  23.024  0.00  0.00    +0.010 A 
ATOM     27  C   UNL     1       2.984  -0.941  23.821  0.00  0.00    +0.010 A 
ATOM     29  C   UNL     1       4.791   1.009  22.976  0.00  0.00    +0.013 A 
ATOM     30  C   UNL     1       4.348  -1.228  23.775  0.00  0.00    +0.013 A 
ATOM     31  C   UNL     1       5.252  -0.254  23.352  0.00  0.00    +0.055 A 
BRANCH  31  34
ATOM      1  F   UNL     1       7.090  -1.229  22.173  0.00  0.00    -0.166 F 
ATOM      2  F   UNL     1       7.118  -1.342  24.344  0.00  0.00    -0.166 F 
ATOM      3  F   UNL     1       7.505   0.549  23.344  0.00  0.00    -0.166 F 
ATOM     34  C   UNL     1       6.709  -0.561  23.302  0.00  0.00    +0.417 C 
ENDBRANCH  31  34
ENDBRANCH  20  23
ENDBRANCH  11  18
BRANCH  12  17
ATOM     17  C   UNL     1      -4.929   2.695  25.333  0.00  0.00    +0.123 C 
BRANCH  17   7
ATOM      4  O   UNL     1      -5.901   0.187  24.330  0.00  0.00    -0.267 OA
ATOM      7  N   UNL     1      -4.311   1.415  25.492  0.00  0.00    -0.307 N 
ATOM     22  C   UNL     1      -4.855   0.242  24.970  0.00  0.00    +0.279 C 
ATOM     35  H   UNL     1      -3.444   1.362  26.018  0.00  0.00    +0.149 HD
BRANCH  22  25
ATOM      5  O   UNL     1      -4.336  -2.080  24.438  0.00  0.00    -0.458 OA
ATOM     25  C   UNL     1      -4.106  -1.011  25.245  0.00  0.00    +0.189 A 
ATOM     28  C   UNL     1      -3.173  -1.324  26.207  0.00  0.00    +0.054 A 
ATOM     32  C   UNL     1      -2.806  -2.672  25.974  0.00  0.00    +0.042 A 
ATOM     33  C   UNL     1      -3.542  -3.086  24.888  0.00  0.00    +0.196 A 
ENDBRANCH  22  25
ENDBRANCH  17   7
ENDBRANCH  12  17
TORSDOF 6
ENDMDL
