MODEL 1
REMARK VINA RESULT:      14.2      0.000      0.000
REMARK  Name = 7155621
REMARK  8 active torsions:
REMARK  status: ('A' for Active; 'I' for Inactive)
REMARK    1  A    between atoms: O_5  and  C_36
REMARK    2  A    between atoms: O_5  and  C_38
REMARK    3  A    between atoms: N_8  and  C_22
REMARK    4  A    between atoms: N_9  and  C_20
REMARK    5  A    between atoms: C_23  and  C_26
REMARK    6  A    between atoms: C_26  and  C_29
REMARK    7  A    between atoms: C_30  and  C_33
REMARK    8  A    between atoms: C_33  and  C_37
REMARK                            x       y       z     vdW  Elec       q    Type
REMARK                         _______ _______ _______ _____ _____    ______ ____
ROOT
ATOM      1  O   UNL     1      -1.795   1.375  22.281  0.00  0.00    -0.266 OA
ATOM      2  O   UNL     1      -2.357   5.064  25.938  0.00  0.00    -0.252 OA
ATOM      6  N   UNL     1      -4.246   3.728  25.963  0.00  0.00    -0.284 N 
ATOM      7  N   UNL     1      -3.596   1.511  23.763  0.00  0.00    -0.310 N 
ATOM      8  N   UNL     1      -2.543   3.427  27.569  0.00  0.00    -0.269 N 
ATOM     10  C   UNL     1      -5.290   3.429  23.712  0.00  0.00    +0.027 C 
ATOM     11  C   UNL     1      -5.507   1.656  25.399  0.00  0.00    +0.054 C 
ATOM     12  C   UNL     1      -6.255   2.410  24.303  0.00  0.00    +0.018 C 
ATOM     13  C   UNL     1      -4.816   4.410  24.798  0.00  0.00    +0.114 C 
ATOM     14  C   UNL     1      -4.120   2.687  23.055  0.00  0.00    +0.130 C 
ATOM     15  C   UNL     1      -5.076   2.638  26.509  0.00  0.00    +0.119 C 
ATOM     16  C   UNL     1      -4.286   0.949  24.841  0.00  0.00    +0.027 A 
ATOM     17  C   UNL     1      -3.850  -0.194  25.400  0.00  0.00    +0.024 A 
ATOM     18  C   UNL     1      -2.426   0.926  23.238  0.00  0.00    +0.273 A 
ATOM     19  C   UNL     1      -2.988   4.138  26.456  0.00  0.00    +0.306 C 
ATOM     20  C   UNL     1      -1.960  -0.331  23.906  0.00  0.00    +0.099 A 
ATOM     21  C   UNL     1      -2.662  -0.842  24.922  0.00  0.00    +0.030 A 
ATOM     39  H   UNL     1      -3.238   3.037  28.198  0.00  0.00    +0.156 HD
ENDROOT
BRANCH   8  22
ATOM     22  C   UNL     1      -1.202   3.156  27.933  0.00  0.00    +0.035 A 
ATOM     24  C   UNL     1      -0.261   2.851  26.950  0.00  0.00    +0.024 A 
ATOM     25  C   UNL     1      -0.821   3.194  29.275  0.00  0.00    +0.024 A 
ATOM     27  C   UNL     1       1.060   2.583  27.309  0.00  0.00    +0.013 A 
ATOM     28  C   UNL     1       0.500   2.926  29.634  0.00  0.00    +0.013 A 
ATOM     30  C   UNL     1       1.441   2.621  28.651  0.00  0.00    +0.017 A 
BRANCH  30  33
ATOM      4  O   UNL     1       3.771   2.677  28.290  0.00  0.00    -0.292 OA
ATOM     33  C   UNL     1       2.818   2.342  29.023  0.00  0.00    +0.160 C 
ATOM     37  C   UNL     1       3.131   1.627  30.332  0.00  0.00    +0.091 C 
ENDBRANCH  30  33
ENDBRANCH   8  22
BRANCH  20   9
ATOM      3  O   UNL     1       0.669   0.801  23.929  0.00  0.00    -0.275 OA
ATOM      9  N   UNL     1      -0.821  -0.919  23.438  0.00  0.00    -0.281 N 
ATOM     23  C   UNL     1       0.430  -0.317  23.477  0.00  0.00    +0.222 C 
ATOM     40  H   UNL     1      -0.948  -1.731  22.838  0.00  0.00    +0.155 HD
BRANCH  23  26
ATOM     26  C   UNL     1       1.495  -1.220  22.884  0.00  0.00    +0.131 C 
BRANCH  26  29
ATOM     29  C   UNL     1       2.898  -0.730  23.127  0.00  0.00    -0.038 A 
ATOM     31  C   UNL     1       3.802  -1.524  23.834  0.00  0.00    +0.007 A 
ATOM     32  C   UNL     1       3.295   0.517  22.645  0.00  0.00    +0.007 A 
ATOM     34  C   UNL     1       5.102  -1.071  24.059  0.00  0.00    +0.046 A 
ATOM     35  C   UNL     1       4.595   0.971  22.870  0.00  0.00    +0.046 A 
ATOM     36  C   UNL     1       5.498   0.177  23.576  0.00  0.00    +0.120 A 
BRANCH  36   5
ATOM      5  O   UNL     1       6.766   0.619  23.795  0.00  0.00    -0.495 OA
ATOM     38  C   UNL     1       7.828  -0.153  23.237  0.00  0.00    +0.277 C 
ENDBRANCH  36   5
ENDBRANCH  26  29
ENDBRANCH  23  26
ENDBRANCH  20   9
TORSDOF 6
ENDMDL
