MODEL 1
REMARK VINA RESULT:      -3.3      0.000      0.000
REMARK  Name = 7051752
REMARK  4 active torsions:
REMARK  status: ('A' for Active; 'I' for Inactive)
REMARK    1  A    between atoms: N_3  and  C_13
REMARK    2  A    between atoms: C_13  and  C_18
REMARK    3  A    between atoms: C_16  and  C_19
REMARK    4  A    between atoms: C_21  and  C_25
REMARK                            x       y       z     vdW  Elec       q    Type
REMARK                         _______ _______ _______ _____ _____    ______ ____
ROOT
ATOM      2  O   UNL     1      15.622  -7.467  26.179  0.00  0.00    -0.267 OA
ATOM      3  N   UNL     1      13.492  -8.958  30.458  0.00  0.00    -0.296 NA
ATOM      4  N   UNL     1      15.781  -8.418  28.301  0.00  0.00    -0.311 N 
ATOM      6  C   UNL     1      14.600 -10.606  28.927  0.00  0.00    +0.024 C 
ATOM      7  C   UNL     1      15.943  -9.427  30.602  0.00  0.00    +0.050 C 
ATOM      8  C   UNL     1      15.753 -10.773  29.909  0.00  0.00    +0.017 C 
ATOM      9  C   UNL     1      13.319 -10.192  29.680  0.00  0.00    +0.090 C 
ATOM     10  C   UNL     1      14.649  -9.049  31.361  0.00  0.00    +0.094 C 
ATOM     11  C   UNL     1      15.008  -9.585  27.854  0.00  0.00    +0.130 C 
ATOM     12  C   UNL     1      16.301  -8.349  29.595  0.00  0.00    +0.026 A 
ATOM     14  C   UNL     1      17.096  -7.327  29.948  0.00  0.00    +0.022 A 
ATOM     15  C   UNL     1      16.050  -7.428  27.334  0.00  0.00    +0.259 A 
ATOM     16  C   UNL     1      16.922  -6.279  27.767  0.00  0.00    +0.040 A 
ATOM     17  C   UNL     1      17.405  -6.279  29.017  0.00  0.00    +0.015 A 
ENDROOT
BRANCH  16  19
ATOM     19  C   UNL     1      17.228  -5.219  26.840  0.00  0.00    +0.014 C 
ATOM     21  C   UNL     1      16.312  -4.672  26.032  0.00  0.00    +0.008 C 
BRANCH  21  25
ATOM      1 CL   UNL     1      17.395  -0.309  22.112  0.00  0.00    -0.084 Cl
ATOM     25  C   UNL     1      16.579  -3.595  25.063  0.00  0.00    -0.025 A 
ATOM     26  C   UNL     1      16.681  -3.902  23.716  0.00  0.00    +0.009 A 
ATOM     27  C   UNL     1      16.725  -2.294  25.519  0.00  0.00    +0.009 A 
ATOM     28  C   UNL     1      16.934  -2.882  22.800  0.00  0.00    +0.020 A 
ATOM     29  C   UNL     1      16.978  -1.274  24.602  0.00  0.00    +0.020 A 
ATOM     30  C   UNL     1      17.084  -1.568  23.243  0.00  0.00    +0.041 A 
ENDBRANCH  21  25
ENDBRANCH  16  19
BRANCH   3  13
ATOM     13  C   UNL     1      12.276  -8.629  31.197  0.00  0.00    +0.139 C 
BRANCH  13  18
ATOM      5  N   UNL     1      11.307  -6.826  32.490  0.00  0.00    -0.259 NA
ATOM     18  C   UNL     1      12.211  -7.172  31.552  0.00  0.00    +0.055 A 
ATOM     20  C   UNL     1      13.058  -6.288  30.912  0.00  0.00    +0.024 A 
ATOM     22  C   UNL     1      12.972  -4.945  31.263  0.00  0.00    +0.003 A 
ATOM     23  C   UNL     1      11.253  -5.512  32.806  0.00  0.00    +0.111 A 
ATOM     24  C   UNL     1      12.056  -4.542  32.227  0.00  0.00    +0.020 A 
ENDBRANCH  13  18
ENDBRANCH   3  13
TORSDOF 4
ENDMDL
