MODEL 1
REMARK VINA RESULT:      15.5      0.000      0.000
REMARK  Name = 45783538
REMARK  7 active torsions:
REMARK  status: ('A' for Active; 'I' for Inactive)
REMARK    1  A    between atoms: S_1  and  C_35
REMARK    2  A    between atoms: S_1  and  C_36
REMARK    3  A    between atoms: N_6  and  C_16
REMARK    4  A    between atoms: C_12  and  C_20
REMARK    5  A    between atoms: C_16  and  C_23
REMARK    6  A    between atoms: C_17  and  C_25
REMARK    7  A    between atoms: C_26  and  C_29
REMARK                            x       y       z     vdW  Elec       q    Type
REMARK                         _______ _______ _______ _____ _____    ______ ____
ROOT
ATOM      2  O   UNL     1      -3.617   2.697  22.243  0.00  0.00    -0.336 OA
ATOM      8  N   UNL     1      -2.549   2.421  24.192  0.00  0.00    -0.190 NA
ATOM      9  N   UNL     1      -2.365   2.154  21.927  0.00  0.00    -0.056 NA
ATOM     20  C   UNL     1      -3.643   2.821  23.596  0.00  0.00    +0.245 A 
ATOM     26  C   UNL     1      -1.794   2.020  23.129  0.00  0.00    +0.204 A 
ENDROOT
BRANCH  26  29
ATOM      7  N   UNL     1       3.369   0.050  23.760  0.00  0.00    -0.315 N 
ATOM     10  N   UNL     1       1.918   1.816  23.140  0.00  0.00    -0.240 NA
ATOM     17  C   UNL     1       6.079  -0.931  24.110  0.00  0.00    +0.078 C 
ATOM     18  C   UNL     1       4.928  -1.859  23.727  0.00  0.00    +0.031 C 
ATOM     19  C   UNL     1       5.570   0.316  24.831  0.00  0.00    +0.031 C 
ATOM     21  C   UNL     1       3.779  -1.142  23.013  0.00  0.00    +0.107 C 
ATOM     22  C   UNL     1       4.431   1.010  24.085  0.00  0.00    +0.107 C 
ATOM     24  C   UNL     1       2.072   0.553  23.597  0.00  0.00    +0.121 A 
ATOM     29  C   UNL     1      -0.473   1.492  23.299  0.00  0.00    +0.041 A 
ATOM     30  C   UNL     1       1.020  -0.288  23.924  0.00  0.00    +0.044 A 
ATOM     31  C   UNL     1      -0.274   0.198  23.769  0.00  0.00    +0.016 A 
ATOM     34  C   UNL     1       0.646   2.253  23.002  0.00  0.00    +0.124 A 
BRANCH  17  25
ATOM      3  O   UNL     1       6.421  -0.501  21.782  0.00  0.00    -0.276 OA
ATOM     11  N   UNL     1       8.216  -0.285  23.204  0.00  0.00    -0.329 N 
ATOM     25  C   UNL     1       6.899  -0.549  22.913  0.00  0.00    +0.214 C 
ATOM     37  H   UNL     1       8.865  -0.015  22.472  0.00  0.00    +0.145 HD
ATOM     38  H   UNL     1       8.608  -0.390  24.134  0.00  0.00    +0.145 HD
ENDBRANCH  17  25
ENDBRANCH  26  29
BRANCH  20  12
ATOM      6  N   UNL     1      -5.145   2.926  25.576  0.00  0.00    -0.287 NA
ATOM     12  C   UNL     1      -4.910   3.393  24.196  0.00  0.00    +0.146 C 
ATOM     13  C   UNL     1      -4.876   4.929  24.304  0.00  0.00    +0.030 C 
ATOM     14  C   UNL     1      -5.163   5.231  25.768  0.00  0.00    +0.017 C 
ATOM     15  C   UNL     1      -5.885   3.991  26.253  0.00  0.00    +0.085 C 
BRANCH   6  16
ATOM     16  C   UNL     1      -5.843   1.648  25.639  0.00  0.00    +0.120 C 
BRANCH  16  23
ATOM     23  C   UNL     1      -4.936   0.496  25.300  0.00  0.00    -0.033 A 
ATOM     27  C   UNL     1      -5.144  -0.234  24.128  0.00  0.00    +0.007 A 
ATOM     28  C   UNL     1      -3.887   0.158  26.154  0.00  0.00    +0.007 A 
ATOM     32  C   UNL     1      -4.304  -1.301  23.814  0.00  0.00    +0.027 A 
ATOM     33  C   UNL     1      -3.047  -0.909  25.840  0.00  0.00    +0.027 A 
ATOM     35  C   UNL     1      -3.255  -1.639  24.669  0.00  0.00    +0.088 A 
BRANCH  35   1
ATOM      1  S   UNL     1      -2.200  -2.973  24.272  0.00  0.00    -0.006 S 
ATOM      4  O   UNL     1      -2.979  -4.203  24.258  0.00  0.00    -0.170 OA
ATOM      5  O   UNL     1      -1.425  -2.596  23.099  0.00  0.00    -0.170 OA
ATOM     36  C   UNL     1      -1.085  -3.082  25.653  0.00  0.00    +0.200 C 
ENDBRANCH  35   1
ENDBRANCH  16  23
ENDBRANCH   6  16
ENDBRANCH  20  12
TORSDOF 6
ENDMDL
MODEL 2
REMARK VINA RESULT:      16.6      1.123      1.416
REMARK  Name = 45783538
REMARK  7 active torsions:
REMARK  status: ('A' for Active; 'I' for Inactive)
REMARK    1  A    between atoms: S_1  and  C_35
REMARK    2  A    between atoms: S_1  and  C_36
REMARK    3  A    between atoms: N_6  and  C_16
REMARK    4  A    between atoms: C_12  and  C_20
REMARK    5  A    between atoms: C_16  and  C_23
REMARK    6  A    between atoms: C_17  and  C_25
REMARK    7  A    between atoms: C_26  and  C_29
REMARK                            x       y       z     vdW  Elec       q    Type
REMARK                         _______ _______ _______ _____ _____    ______ ____
ROOT
ATOM      2  O   UNL     1      -3.702   2.765  22.240  0.00  0.00    -0.336 OA
ATOM      8  N   UNL     1      -2.625   2.042  24.065  0.00  0.00    -0.190 NA
ATOM      9  N   UNL     1      -2.419   2.395  21.814  0.00  0.00    -0.056 NA
ATOM     20  C   UNL     1      -3.738   2.526  23.576  0.00  0.00    +0.245 A 
ATOM     26  C   UNL     1      -1.845   1.979  22.948  0.00  0.00    +0.204 A 
ENDROOT
BRANCH  26  29
ATOM      7  N   UNL     1       3.406   0.166  23.211  0.00  0.00    -0.315 N 
ATOM     10  N   UNL     1       1.683   1.560  24.043  0.00  0.00    -0.240 NA
ATOM     17  C   UNL     1       6.143  -0.783  23.402  0.00  0.00    +0.078 C 
ATOM     18  C   UNL     1       5.410  -0.699  22.065  0.00  0.00    +0.031 C 
ATOM     19  C   UNL     1       5.162  -0.902  24.567  0.00  0.00    +0.031 C 
ATOM     21  C   UNL     1       4.285   0.339  22.051  0.00  0.00    +0.107 C 
ATOM     22  C   UNL     1       4.059   0.155  24.525  0.00  0.00    +0.107 C 
ATOM     24  C   UNL     1       2.086   0.628  23.150  0.00  0.00    +0.121 A 
ATOM     29  C   UNL     1      -0.497   1.497  22.997  0.00  0.00    +0.041 A 
ATOM     30  C   UNL     1       1.269   0.089  22.169  0.00  0.00    +0.044 A 
ATOM     31  C   UNL     1      -0.045   0.537  22.097  0.00  0.00    +0.016 A 
ATOM     34  C   UNL     1       0.399   1.972  23.942  0.00  0.00    +0.124 A 
BRANCH  17  25
ATOM      3  O   UNL     1       6.655   1.465  24.040  0.00  0.00    -0.276 OA
ATOM     11  N   UNL     1       8.360   0.149  23.232  0.00  0.00    -0.329 N 
ATOM     25  C   UNL     1       7.058   0.391  23.602  0.00  0.00    +0.214 C 
ATOM     37  H   UNL     1       9.067   0.870  23.325  0.00  0.00    +0.145 HD
ATOM     38  H   UNL     1       8.662  -0.725  22.815  0.00  0.00    +0.145 HD
ENDBRANCH  17  25
ENDBRANCH  26  29
BRANCH  20  12
ATOM      6  N   UNL     1      -5.102   2.275  25.642  0.00  0.00    -0.287 NA
ATOM     12  C   UNL     1      -5.038   2.848  24.283  0.00  0.00    +0.146 C 
ATOM     13  C   UNL     1      -5.246   4.361  24.486  0.00  0.00    +0.030 C 
ATOM     14  C   UNL     1      -5.479   4.533  25.980  0.00  0.00    +0.017 C 
ATOM     15  C   UNL     1      -5.958   3.167  26.427  0.00  0.00    +0.085 C 
BRANCH   6  16
ATOM     16  C   UNL     1      -5.579   0.899  25.664  0.00  0.00    +0.120 C 
BRANCH  16  23
ATOM     23  C   UNL     1      -4.474  -0.082  25.382  0.00  0.00    -0.033 A 
ATOM     27  C   UNL     1      -3.351  -0.125  26.210  0.00  0.00    +0.007 A 
ATOM     28  C   UNL     1      -4.571  -0.950  24.295  0.00  0.00    +0.007 A 
ATOM     32  C   UNL     1      -2.327  -1.035  25.948  0.00  0.00    +0.027 A 
ATOM     33  C   UNL     1      -3.547  -1.860  24.033  0.00  0.00    +0.027 A 
ATOM     35  C   UNL     1      -2.425  -1.902  24.861  0.00  0.00    +0.088 A 
BRANCH  35   1
ATOM      1  S   UNL     1      -1.144  -3.044  24.536  0.00  0.00    -0.006 S 
ATOM      4  O   UNL     1      -1.135  -4.054  25.586  0.00  0.00    -0.170 OA
ATOM      5  O   UNL     1      -1.251  -3.452  23.143  0.00  0.00    -0.170 OA
ATOM     36  C   UNL     1       0.351  -2.097  24.716  0.00  0.00    +0.200 C 
ENDBRANCH  35   1
ENDBRANCH  16  23
ENDBRANCH   6  16
ENDBRANCH  20  12
TORSDOF 6
ENDMDL
MODEL 3
REMARK VINA RESULT:      16.9      1.470      2.034
REMARK  Name = 45783538
REMARK  7 active torsions:
REMARK  status: ('A' for Active; 'I' for Inactive)
REMARK    1  A    between atoms: S_1  and  C_35
REMARK    2  A    between atoms: S_1  and  C_36
REMARK    3  A    between atoms: N_6  and  C_16
REMARK    4  A    between atoms: C_12  and  C_20
REMARK    5  A    between atoms: C_16  and  C_23
REMARK    6  A    between atoms: C_17  and  C_25
REMARK    7  A    between atoms: C_26  and  C_29
REMARK                            x       y       z     vdW  Elec       q    Type
REMARK                         _______ _______ _______ _____ _____    ______ ____
ROOT
ATOM      2  O   UNL     1      -3.755   4.666  24.532  0.00  0.00    -0.336 OA
ATOM      8  N   UNL     1      -3.261   2.482  24.514  0.00  0.00    -0.190 NA
ATOM      9  N   UNL     1      -2.385   4.579  24.252  0.00  0.00    -0.056 NA
ATOM     20  C   UNL     1      -4.192   3.387  24.672  0.00  0.00    +0.245 A 
ATOM     26  C   UNL     1      -2.170   3.259  24.258  0.00  0.00    +0.204 A 
ENDROOT
BRANCH  26  29
ATOM      7  N   UNL     1       2.803   0.954  23.314  0.00  0.00    -0.315 N 
ATOM     10  N   UNL     1       0.481   0.711  23.706  0.00  0.00    -0.240 NA
ATOM     17  C   UNL     1       5.376  -0.284  22.787  0.00  0.00    +0.078 C 
ATOM     18  C   UNL     1       5.254   1.025  23.565  0.00  0.00    +0.031 C 
ATOM     19  C   UNL     1       4.171  -0.500  21.874  0.00  0.00    +0.031 C 
ATOM     21  C   UNL     1       3.900   1.200  24.255  0.00  0.00    +0.107 C 
ATOM     22  C   UNL     1       2.837  -0.327  22.599  0.00  0.00    +0.107 C 
ATOM     24  C   UNL     1       1.548   1.527  23.553  0.00  0.00    +0.121 A 
ATOM     29  C   UNL     1      -0.879   2.687  24.014  0.00  0.00    +0.041 A 
ATOM     30  C   UNL     1       1.483   2.910  23.615  0.00  0.00    +0.044 A 
ATOM     31  C   UNL     1       0.243   3.493  23.850  0.00  0.00    +0.016 A 
ATOM     34  C   UNL     1      -0.708   1.315  23.934  0.00  0.00    +0.124 A 
BRANCH  17  25
ATOM      3  O   UNL     1       5.106  -2.567  23.446  0.00  0.00    -0.276 OA
ATOM     11  N   UNL     1       6.244  -1.154  24.860  0.00  0.00    -0.329 N 
ATOM     25  C   UNL     1       5.556  -1.455  23.708  0.00  0.00    +0.214 C 
ATOM     37  H   UNL     1       6.427  -1.869  25.556  0.00  0.00    +0.145 HD
ATOM     38  H   UNL     1       6.554  -0.216  25.089  0.00  0.00    +0.145 HD
ENDBRANCH  17  25
ENDBRANCH  26  29
BRANCH  20  12
ATOM      6  N   UNL     1      -5.945   1.944  25.689  0.00  0.00    -0.287 NA
ATOM     12  C   UNL     1      -5.663   3.209  24.983  0.00  0.00    +0.146 C 
ATOM     13  C   UNL     1      -6.213   4.307  25.913  0.00  0.00    +0.030 C 
ATOM     14  C   UNL     1      -6.836   3.561  27.083  0.00  0.00    +0.017 C 
ATOM     15  C   UNL     1      -7.128   2.187  26.516  0.00  0.00    +0.085 C 
BRANCH   6  16
ATOM     16  C   UNL     1      -6.128   0.812  24.791  0.00  0.00    +0.120 C 
BRANCH  16  23
ATOM     23  C   UNL     1      -4.920  -0.085  24.766  0.00  0.00    -0.033 A 
ATOM     27  C   UNL     1      -4.584  -0.770  23.597  0.00  0.00    +0.007 A 
ATOM     28  C   UNL     1      -4.134  -0.231  25.909  0.00  0.00    +0.007 A 
ATOM     32  C   UNL     1      -3.464  -1.601  23.574  0.00  0.00    +0.027 A 
ATOM     33  C   UNL     1      -3.015  -1.062  25.886  0.00  0.00    +0.027 A 
ATOM     35  C   UNL     1      -2.680  -1.747  24.718  0.00  0.00    +0.088 A 
BRANCH  35   1
ATOM      1  S   UNL     1      -1.275  -2.784  24.687  0.00  0.00    -0.006 S 
ATOM      4  O   UNL     1      -1.404  -3.785  25.737  0.00  0.00    -0.170 OA
ATOM      5  O   UNL     1      -1.061  -3.206  23.310  0.00  0.00    -0.170 OA
ATOM     36  C   UNL     1       0.073  -1.719  25.149  0.00  0.00    +0.200 C 
ENDBRANCH  35   1
ENDBRANCH  16  23
ENDBRANCH   6  16
ENDBRANCH  20  12
TORSDOF 6
ENDMDL
