MODEL 1
REMARK VINA RESULT:      -6.5      0.000      0.000
REMARK  Name = 56775407
REMARK  8 active torsions:
REMARK  status: ('A' for Active; 'I' for Inactive)
REMARK    1  A    between atoms: O_4  and  C_19
REMARK    2  A    between atoms: N_5  and  C_7
REMARK    3  A    between atoms: N_5  and  C_12
REMARK    4  A    between atoms: C_7  and  C_10
REMARK    5  A    between atoms: C_10  and  C_11
REMARK    6  A    between atoms: C_12  and  C_14
REMARK    7  A    between atoms: C_15  and  C_16
REMARK    8  A    between atoms: C_16  and  C_19
REMARK                            x       y       z     vdW  Elec       q    Type
REMARK                         _______ _______ _______ _____ _____    ______ ____
ROOT
ATOM      2  O   UNL     1      -5.443   3.823  25.629  0.00  0.00    -0.376 OA
ATOM      7  C   UNL     1      -3.813   2.740  24.779  0.00  0.00    +0.072 C 
ATOM      8  C   UNL     1      -5.333   2.751  24.666  0.00  0.00    +0.184 C 
ATOM      9  C   UNL     1      -4.004   3.930  25.713  0.00  0.00    +0.184 C 
ENDROOT
BRANCH   7   5
ATOM      5  N   UNL     1      -3.408   1.578  25.573  0.00  0.00    -0.302 NA
ATOM     23  H   UNL     1      -3.322   1.751  26.575  0.00  0.00    +0.123 HD
BRANCH   5  12
ATOM     12  C   UNL     1      -4.359   0.487  25.346  0.00  0.00    +0.120 C 
BRANCH  12  14
ATOM      1  F   UNL     1      -1.771  -0.218  26.233  0.00  0.00    -0.205 F 
ATOM     14  C   UNL     1      -3.682  -0.781  24.943  0.00  0.00    +0.002 A 
ATOM     17  C   UNL     1      -2.403  -1.072  25.415  0.00  0.00    +0.128 A 
ATOM     18  C   UNL     1      -4.333  -1.675  24.093  0.00  0.00    +0.008 A 
ATOM     20  C   UNL     1      -1.774  -2.258  25.038  0.00  0.00    +0.038 A 
ATOM     21  C   UNL     1      -3.703  -2.861  23.714  0.00  0.00    +0.000 A 
ATOM     22  C   UNL     1      -2.423  -3.152  24.187  0.00  0.00    +0.003 A 
ENDBRANCH  12  14
ENDBRANCH   5  12
ENDBRANCH   7   5
BRANCH   7  10
ATOM     10  C   UNL     1      -2.991   2.916  23.539  0.00  0.00    +0.085 C 
BRANCH  10  11
ATOM      3  O   UNL     1       0.327   1.725  24.335  0.00  0.00    -0.359 OA
ATOM      6  N   UNL     1      -0.719   2.631  24.463  0.00  0.00    -0.083 NA
ATOM     11  C   UNL     1      -1.678   2.169  23.656  0.00  0.00    +0.086 A 
ATOM     13  C   UNL     1      -1.297   0.988  22.996  0.00  0.00    +0.071 A 
ATOM     15  C   UNL     1      -0.029   0.751  23.459  0.00  0.00    +0.140 A 
BRANCH  15  16
ATOM     16  C   UNL     1       0.967  -0.296  23.203  0.00  0.00    +0.105 C 
BRANCH  16  19
ATOM     19  C   UNL     1       2.210   0.202  22.441  0.00  0.00    +0.163 C 
BRANCH  19   4
ATOM      4  O   UNL     1       2.856   1.211  23.206  0.00  0.00    -0.395 OA
ATOM     24  H   UNL     1       3.641   0.805  23.610  0.00  0.00    +0.209 HD
ENDBRANCH  19   4
ENDBRANCH  16  19
ENDBRANCH  15  16
ENDBRANCH  10  11
ENDBRANCH   7  10
TORSDOF 8
ENDMDL
MODEL 2
REMARK VINA RESULT:      -6.5      1.685      2.123
REMARK  Name = 56775407
REMARK  8 active torsions:
REMARK  status: ('A' for Active; 'I' for Inactive)
REMARK    1  A    between atoms: O_4  and  C_19
REMARK    2  A    between atoms: N_5  and  C_7
REMARK    3  A    between atoms: N_5  and  C_12
REMARK    4  A    between atoms: C_7  and  C_10
REMARK    5  A    between atoms: C_10  and  C_11
REMARK    6  A    between atoms: C_12  and  C_14
REMARK    7  A    between atoms: C_15  and  C_16
REMARK    8  A    between atoms: C_16  and  C_19
REMARK                            x       y       z     vdW  Elec       q    Type
REMARK                         _______ _______ _______ _____ _____    ______ ____
ROOT
ATOM      2  O   UNL     1      -2.081   4.808  25.084  0.00  0.00    -0.376 OA
ATOM      7  C   UNL     1      -1.797   2.694  25.122  0.00  0.00    +0.072 C 
ATOM      8  C   UNL     1      -1.322   3.874  24.283  0.00  0.00    +0.184 C 
ATOM      9  C   UNL     1      -2.494   3.748  25.975  0.00  0.00    +0.184 C 
ENDROOT
BRANCH   7   5
ATOM      5  N   UNL     1      -2.811   1.956  24.364  0.00  0.00    -0.302 NA
ATOM     23  H   UNL     1      -2.441   1.327  23.652  0.00  0.00    +0.123 HD
BRANCH   5  12
ATOM     12  C   UNL     1      -3.651   1.201  25.296  0.00  0.00    +0.120 C 
BRANCH  12  14
ATOM      1  F   UNL     1      -2.453  -0.785  26.909  0.00  0.00    -0.205 F 
ATOM     14  C   UNL     1      -3.703  -0.253  24.963  0.00  0.00    +0.002 A 
ATOM     17  C   UNL     1      -3.091  -1.185  25.800  0.00  0.00    +0.128 A 
ATOM     18  C   UNL     1      -4.365  -0.679  23.811  0.00  0.00    +0.008 A 
ATOM     20  C   UNL     1      -3.141  -2.543  25.486  0.00  0.00    +0.038 A 
ATOM     21  C   UNL     1      -4.415  -2.037  23.496  0.00  0.00    +0.000 A 
ATOM     22  C   UNL     1      -3.803  -2.969  24.335  0.00  0.00    +0.003 A 
ENDBRANCH  12  14
ENDBRANCH   5  12
ENDBRANCH   7   5
BRANCH   7  10
ATOM     10  C   UNL     1      -0.780   1.799  25.761  0.00  0.00    +0.085 C 
BRANCH  10  11
ATOM      3  O   UNL     1       0.497  -0.610  23.390  0.00  0.00    -0.359 OA
ATOM      6  N   UNL     1      -0.415  -0.196  24.353  0.00  0.00    -0.083 NA
ATOM     11  C   UNL     1      -0.010   1.026  24.712  0.00  0.00    +0.086 A 
ATOM     13  C   UNL     1       1.143   1.431  24.016  0.00  0.00    +0.071 A 
ATOM     15  C   UNL     1       1.420   0.368  23.198  0.00  0.00    +0.140 A 
BRANCH  15  16
ATOM     16  C   UNL     1       2.467   0.095  22.205  0.00  0.00    +0.105 C 
BRANCH  16  19
ATOM     19  C   UNL     1       3.841   0.684  22.575  0.00  0.00    +0.163 C 
BRANCH  19   4
ATOM      4  O   UNL     1       4.442  -0.121  23.583  0.00  0.00    -0.395 OA
ATOM     24  H   UNL     1       3.778  -0.245  24.281  0.00  0.00    +0.209 HD
ENDBRANCH  19   4
ENDBRANCH  16  19
ENDBRANCH  15  16
ENDBRANCH  10  11
ENDBRANCH   7  10
TORSDOF 8
ENDMDL
MODEL 3
REMARK VINA RESULT:      -6.4      2.459      4.838
REMARK  Name = 56775407
REMARK  8 active torsions:
REMARK  status: ('A' for Active; 'I' for Inactive)
REMARK    1  A    between atoms: O_4  and  C_19
REMARK    2  A    between atoms: N_5  and  C_7
REMARK    3  A    between atoms: N_5  and  C_12
REMARK    4  A    between atoms: C_7  and  C_10
REMARK    5  A    between atoms: C_10  and  C_11
REMARK    6  A    between atoms: C_12  and  C_14
REMARK    7  A    between atoms: C_15  and  C_16
REMARK    8  A    between atoms: C_16  and  C_19
REMARK                            x       y       z     vdW  Elec       q    Type
REMARK                         _______ _______ _______ _____ _____    ______ ____
ROOT
ATOM      2  O   UNL     1      -3.265  -3.330  24.827  0.00  0.00    -0.376 OA
ATOM      7  C   UNL     1      -2.331  -1.414  24.917  0.00  0.00    +0.072 C 
ATOM      8  C   UNL     1      -3.528  -2.110  25.556  0.00  0.00    +0.184 C 
ATOM      9  C   UNL     1      -2.063  -2.762  24.257  0.00  0.00    +0.184 C 
ENDROOT
BRANCH   7   5
ATOM      5  N   UNL     1      -2.818  -0.480  23.899  0.00  0.00    -0.302 NA
ATOM     23  H   UNL     1      -2.696  -0.793  22.936  0.00  0.00    +0.123 HD
BRANCH   5  12
ATOM     12  C   UNL     1      -4.234  -0.197  24.146  0.00  0.00    +0.120 C 
BRANCH  12  14
ATOM      1  F   UNL     1      -3.067   1.966  22.752  0.00  0.00    -0.205 F 
ATOM     14  C   UNL     1      -4.472   1.229  24.518  0.00  0.00    +0.002 A 
ATOM     17  C   UNL     1      -3.866   2.252  23.790  0.00  0.00    +0.128 A 
ATOM     18  C   UNL     1      -5.302   1.536  25.596  0.00  0.00    +0.008 A 
ATOM     20  C   UNL     1      -4.091   3.583  24.139  0.00  0.00    +0.038 A 
ATOM     21  C   UNL     1      -5.526   2.867  25.947  0.00  0.00    +0.000 A 
ATOM     22  C   UNL     1      -4.920   3.891  25.218  0.00  0.00    +0.003 A 
ENDBRANCH  12  14
ENDBRANCH   5  12
ENDBRANCH   7   5
BRANCH   7  10
ATOM     10  C   UNL     1      -1.279  -0.817  25.801  0.00  0.00    +0.085 C 
BRANCH  10  11
ATOM      3  O   UNL     1       0.151   1.910  23.912  0.00  0.00    -0.359 OA
ATOM      6  N   UNL     1      -0.108   0.562  24.121  0.00  0.00    -0.083 NA
ATOM     11  C   UNL     1      -0.812   0.516  25.256  0.00  0.00    +0.086 A 
ATOM     13  C   UNL     1      -1.024   1.793  25.804  0.00  0.00    +0.071 A 
ATOM     15  C   UNL     1      -0.399   2.634  24.921  0.00  0.00    +0.140 A 
BRANCH  15  16
ATOM     16  C   UNL     1      -0.218   4.089  24.858  0.00  0.00    +0.105 C 
BRANCH  16  19
ATOM     19  C   UNL     1      -1.420   4.888  25.399  0.00  0.00    +0.163 C 
BRANCH  19   4
ATOM      4  O   UNL     1      -1.498   6.136  24.721  0.00  0.00    -0.395 OA
ATOM     24  H   UNL     1      -1.894   5.963  23.851  0.00  0.00    +0.209 HD
ENDBRANCH  19   4
ENDBRANCH  16  19
ENDBRANCH  15  16
ENDBRANCH  10  11
ENDBRANCH   7  10
TORSDOF 8
ENDMDL
MODEL 4
REMARK VINA RESULT:      -6.3      1.330      1.739
REMARK  Name = 56775407
REMARK  8 active torsions:
REMARK  status: ('A' for Active; 'I' for Inactive)
REMARK    1  A    between atoms: O_4  and  C_19
REMARK    2  A    between atoms: N_5  and  C_7
REMARK    3  A    between atoms: N_5  and  C_12
REMARK    4  A    between atoms: C_7  and  C_10
REMARK    5  A    between atoms: C_10  and  C_11
REMARK    6  A    between atoms: C_12  and  C_14
REMARK    7  A    between atoms: C_15  and  C_16
REMARK    8  A    between atoms: C_16  and  C_19
REMARK                            x       y       z     vdW  Elec       q    Type
REMARK                         _______ _______ _______ _____ _____    ______ ____
ROOT
ATOM      2  O   UNL     1      -6.397   3.189  25.658  0.00  0.00    -0.376 OA
ATOM      7  C   UNL     1      -4.544   2.472  24.879  0.00  0.00    +0.072 C 
ATOM      8  C   UNL     1      -6.025   2.141  24.734  0.00  0.00    +0.184 C 
ATOM      9  C   UNL     1      -5.020   3.616  25.768  0.00  0.00    +0.184 C 
ENDROOT
BRANCH   7   5
ATOM      5  N   UNL     1      -3.914   1.452  25.721  0.00  0.00    -0.302 NA
ATOM     23  H   UNL     1      -4.080   1.560  26.721  0.00  0.00    +0.123 HD
BRANCH   5  12
ATOM     12  C   UNL     1      -4.366   0.128  25.289  0.00  0.00    +0.120 C 
BRANCH  12  14
ATOM      1  F   UNL     1      -4.572  -2.216  23.725  0.00  0.00    -0.205 F 
ATOM     14  C   UNL     1      -3.233  -0.827  25.107  0.00  0.00    +0.002 A 
ATOM     17  C   UNL     1      -3.398  -1.967  24.322  0.00  0.00    +0.128 A 
ATOM     18  C   UNL     1      -2.007  -0.576  25.725  0.00  0.00    +0.008 A 
ATOM     20  C   UNL     1      -2.337  -2.857  24.154  0.00  0.00    +0.038 A 
ATOM     21  C   UNL     1      -0.947  -1.467  25.557  0.00  0.00    +0.000 A 
ATOM     22  C   UNL     1      -1.112  -2.607  24.771  0.00  0.00    +0.003 A 
ENDBRANCH  12  14
ENDBRANCH   5  12
ENDBRANCH   7   5
BRANCH   7  10
ATOM     10  C   UNL     1      -3.747   2.790  23.651  0.00  0.00    +0.085 C 
BRANCH  10  11
ATOM      3  O   UNL     1      -0.320   2.878  24.793  0.00  0.00    -0.359 OA
ATOM      6  N   UNL     1      -1.636   3.321  24.817  0.00  0.00    -0.083 NA
ATOM     11  C   UNL     1      -2.268   2.581  23.902  0.00  0.00    +0.086 A 
ATOM     13  C   UNL     1      -1.409   1.663  23.272  0.00  0.00    +0.071 A 
ATOM     15  C   UNL     1      -0.197   1.890  23.869  0.00  0.00    +0.140 A 
BRANCH  15  16
ATOM     16  C   UNL     1       1.139   1.304  23.710  0.00  0.00    +0.105 C 
BRANCH  16  19
ATOM     19  C   UNL     1       1.145  -0.027  22.934  0.00  0.00    +0.163 C 
BRANCH  19   4
ATOM      4  O   UNL     1       2.008   0.088  21.810  0.00  0.00    -0.395 OA
ATOM     24  H   UNL     1       1.924  -0.736  21.301  0.00  0.00    +0.209 HD
ENDBRANCH  19   4
ENDBRANCH  16  19
ENDBRANCH  15  16
ENDBRANCH  10  11
ENDBRANCH   7  10
TORSDOF 8
ENDMDL
MODEL 5
REMARK VINA RESULT:      -6.3      2.321      4.490
REMARK  Name = 56775407
REMARK  8 active torsions:
REMARK  status: ('A' for Active; 'I' for Inactive)
REMARK    1  A    between atoms: O_4  and  C_19
REMARK    2  A    between atoms: N_5  and  C_7
REMARK    3  A    between atoms: N_5  and  C_12
REMARK    4  A    between atoms: C_7  and  C_10
REMARK    5  A    between atoms: C_10  and  C_11
REMARK    6  A    between atoms: C_12  and  C_14
REMARK    7  A    between atoms: C_15  and  C_16
REMARK    8  A    between atoms: C_16  and  C_19
REMARK                            x       y       z     vdW  Elec       q    Type
REMARK                         _______ _______ _______ _____ _____    ______ ____
ROOT
ATOM      2  O   UNL     1      -1.390  -2.305  25.347  0.00  0.00    -0.376 OA
ATOM      7  C   UNL     1      -1.086  -0.402  24.431  0.00  0.00    +0.072 C 
ATOM      8  C   UNL     1      -0.258  -1.416  25.212  0.00  0.00    +0.184 C 
ATOM      9  C   UNL     1      -2.206  -1.432  24.532  0.00  0.00    +0.184 C 
ENDROOT
BRANCH   7   5
ATOM      5  N   UNL     1      -1.403   0.726  25.311  0.00  0.00    -0.302 NA
ATOM     23  H   UNL     1      -0.631   1.041  25.899  0.00  0.00    +0.123 HD
BRANCH   5  12
ATOM     12  C   UNL     1      -1.889   1.845  24.501  0.00  0.00    +0.120 C 
BRANCH  12  14
ATOM      1  F   UNL     1      -2.454   4.298  25.782  0.00  0.00    -0.205 F 
ATOM     14  C   UNL     1      -3.272   2.261  24.881  0.00  0.00    +0.002 A 
ATOM     17  C   UNL     1      -3.485   3.485  25.512  0.00  0.00    +0.128 A 
ATOM     18  C   UNL     1      -4.351   1.421  24.603  0.00  0.00    +0.008 A 
ATOM     20  C   UNL     1      -4.778   3.872  25.865  0.00  0.00    +0.038 A 
ATOM     21  C   UNL     1      -5.644   1.807  24.956  0.00  0.00    +0.000 A 
ATOM     22  C   UNL     1      -5.857   3.033  25.587  0.00  0.00    +0.003 A 
ENDBRANCH  12  14
ENDBRANCH   5  12
ENDBRANCH   7   5
BRANCH   7  10
ATOM     10  C   UNL     1      -0.619   0.030  23.075  0.00  0.00    +0.085 C 
BRANCH  10  11
ATOM      3  O   UNL     1       2.620   1.535  23.619  0.00  0.00    -0.359 OA
ATOM      6  N   UNL     1       1.244   1.481  23.796  0.00  0.00    -0.083 NA
ATOM     11  C   UNL     1       0.848   0.407  23.107  0.00  0.00    +0.086 A 
ATOM     13  C   UNL     1       1.921  -0.248  22.478  0.00  0.00    +0.071 A 
ATOM     15  C   UNL     1       3.012   0.501  22.832  0.00  0.00    +0.140 A 
BRANCH  15  16
ATOM     16  C   UNL     1       4.447   0.406  22.539  0.00  0.00    +0.105 C 
BRANCH  16  19
ATOM     19  C   UNL     1       5.304   0.007  23.757  0.00  0.00    +0.163 C 
BRANCH  19   4
ATOM      4  O   UNL     1       4.909  -1.283  24.207  0.00  0.00    -0.395 OA
ATOM     24  H   UNL     1       5.628  -1.621  24.767  0.00  0.00    +0.209 HD
ENDBRANCH  19   4
ENDBRANCH  16  19
ENDBRANCH  15  16
ENDBRANCH  10  11
ENDBRANCH   7  10
TORSDOF 8
ENDMDL
MODEL 6
REMARK VINA RESULT:      -6.3      2.371      4.398
REMARK  Name = 56775407
REMARK  8 active torsions:
REMARK  status: ('A' for Active; 'I' for Inactive)
REMARK    1  A    between atoms: O_4  and  C_19
REMARK    2  A    between atoms: N_5  and  C_7
REMARK    3  A    between atoms: N_5  and  C_12
REMARK    4  A    between atoms: C_7  and  C_10
REMARK    5  A    between atoms: C_10  and  C_11
REMARK    6  A    between atoms: C_12  and  C_14
REMARK    7  A    between atoms: C_15  and  C_16
REMARK    8  A    between atoms: C_16  and  C_19
REMARK                            x       y       z     vdW  Elec       q    Type
REMARK                         _______ _______ _______ _____ _____    ______ ____
ROOT
ATOM      2  O   UNL     1      -0.611   5.376  24.733  0.00  0.00    -0.376 OA
ATOM      7  C   UNL     1      -0.992   3.281  24.874  0.00  0.00    +0.072 C 
ATOM      8  C   UNL     1       0.090   4.188  24.300  0.00  0.00    +0.184 C 
ATOM      9  C   UNL     1      -1.624   4.573  25.382  0.00  0.00    +0.184 C 
ENDROOT
BRANCH   7   5
ATOM      5  N   UNL     1      -1.804   2.760  23.771  0.00  0.00    -0.302 NA
ATOM     23  H   UNL     1      -1.957   1.752  23.790  0.00  0.00    +0.123 HD
BRANCH   5  12
ATOM     12  C   UNL     1      -3.095   3.451  23.760  0.00  0.00    +0.120 C 
BRANCH  12  14
ATOM      1  F   UNL     1      -3.617   0.710  23.315  0.00  0.00    -0.205 F 
ATOM     14  C   UNL     1      -4.149   2.697  24.500  0.00  0.00    +0.002 A 
ATOM     17  C   UNL     1      -4.359   1.344  24.235  0.00  0.00    +0.128 A 
ATOM     18  C   UNL     1      -4.925   3.348  25.459  0.00  0.00    +0.008 A 
ATOM     20  C   UNL     1      -5.344   0.642  24.928  0.00  0.00    +0.038 A 
ATOM     21  C   UNL     1      -5.911   2.646  26.153  0.00  0.00    +0.000 A 
ATOM     22  C   UNL     1      -6.120   1.292  25.887  0.00  0.00    +0.003 A 
ENDBRANCH  12  14
ENDBRANCH   5  12
ENDBRANCH   7   5
BRANCH   7  10
ATOM     10  C   UNL     1      -0.606   2.225  25.864  0.00  0.00    +0.085 C 
BRANCH  10  11
ATOM      3  O   UNL     1      -0.432  -0.823  23.931  0.00  0.00    -0.359 OA
ATOM      6  N   UNL     1      -0.035   0.478  24.216  0.00  0.00    -0.083 NA
ATOM     11  C   UNL     1      -0.774   0.843  25.268  0.00  0.00    +0.086 A 
ATOM     13  C   UNL     1      -1.648  -0.176  25.685  0.00  0.00    +0.071 A 
ATOM     15  C   UNL     1      -1.393  -1.201  24.813  0.00  0.00    +0.140 A 
BRANCH  15  16
ATOM     16  C   UNL     1      -1.930  -2.558  24.655  0.00  0.00    +0.105 C 
BRANCH  16  19
ATOM     19  C   UNL     1      -3.438  -2.667  24.951  0.00  0.00    +0.163 C 
BRANCH  19   4
ATOM      4  O   UNL     1      -4.169  -2.448  23.751  0.00  0.00    -0.395 OA
ATOM     24  H   UNL     1      -3.520  -2.279  23.048  0.00  0.00    +0.209 HD
ENDBRANCH  19   4
ENDBRANCH  16  19
ENDBRANCH  15  16
ENDBRANCH  10  11
ENDBRANCH   7  10
TORSDOF 8
ENDMDL
MODEL 7
REMARK VINA RESULT:      -6.2      2.554      4.396
REMARK  Name = 56775407
REMARK  8 active torsions:
REMARK  status: ('A' for Active; 'I' for Inactive)
REMARK    1  A    between atoms: O_4  and  C_19
REMARK    2  A    between atoms: N_5  and  C_7
REMARK    3  A    between atoms: N_5  and  C_12
REMARK    4  A    between atoms: C_7  and  C_10
REMARK    5  A    between atoms: C_10  and  C_11
REMARK    6  A    between atoms: C_12  and  C_14
REMARK    7  A    between atoms: C_15  and  C_16
REMARK    8  A    between atoms: C_16  and  C_19
REMARK                            x       y       z     vdW  Elec       q    Type
REMARK                         _______ _______ _______ _____ _____    ______ ____
ROOT
ATOM      2  O   UNL     1      -1.044   5.493  25.004  0.00  0.00    -0.376 OA
ATOM      7  C   UNL     1      -1.155   3.361  25.001  0.00  0.00    +0.072 C 
ATOM      8  C   UNL     1      -0.212   4.437  24.473  0.00  0.00    +0.184 C 
ATOM      9  C   UNL     1      -1.929   4.524  25.613  0.00  0.00    +0.184 C 
ENDROOT
BRANCH   7   5
ATOM      5  N   UNL     1      -1.926   2.819  23.880  0.00  0.00    -0.302 NA
ATOM     23  H   UNL     1      -2.033   1.805  23.883  0.00  0.00    +0.123 HD
BRANCH   5  12
ATOM     12  C   UNL     1      -3.247   3.450  23.858  0.00  0.00    +0.120 C 
BRANCH  12  14
ATOM      1  F   UNL     1      -5.244   4.619  25.480  0.00  0.00    -0.205 F 
ATOM     14  C   UNL     1      -4.273   2.646  24.586  0.00  0.00    +0.002 A 
ATOM     17  C   UNL     1      -5.233   3.283  25.372  0.00  0.00    +0.128 A 
ATOM     18  C   UNL     1      -4.268   1.255  24.480  0.00  0.00    +0.008 A 
ATOM     20  C   UNL     1      -6.190   2.529  26.051  0.00  0.00    +0.038 A 
ATOM     21  C   UNL     1      -5.225   0.501  25.159  0.00  0.00    +0.000 A 
ATOM     22  C   UNL     1      -6.186   1.138  25.944  0.00  0.00    +0.003 A 
ENDBRANCH  12  14
ENDBRANCH   5  12
ENDBRANCH   7   5
BRANCH   7  10
ATOM     10  C   UNL     1      -0.611   2.297  25.904  0.00  0.00    +0.085 C 
BRANCH  10  11
ATOM      3  O   UNL     1      -0.417  -0.678  23.864  0.00  0.00    -0.359 OA
ATOM      6  N   UNL     1      -0.055   0.627  24.173  0.00  0.00    -0.083 NA
ATOM     11  C   UNL     1      -0.755   0.929  25.271  0.00  0.00    +0.086 A 
ATOM     13  C   UNL     1      -1.570  -0.135  25.694  0.00  0.00    +0.071 A 
ATOM     15  C   UNL     1      -1.319  -1.121  24.777  0.00  0.00    +0.140 A 
BRANCH  15  16
ATOM     16  C   UNL     1      -1.813  -2.492  24.599  0.00  0.00    +0.105 C 
BRANCH  16  19
ATOM     19  C   UNL     1      -3.310  -2.660  24.922  0.00  0.00    +0.163 C 
BRANCH  19   4
ATOM      4  O   UNL     1      -4.078  -2.351  23.766  0.00  0.00    -0.395 OA
ATOM     24  H   UNL     1      -4.784  -1.744  24.046  0.00  0.00    +0.209 HD
ENDBRANCH  19   4
ENDBRANCH  16  19
ENDBRANCH  15  16
ENDBRANCH  10  11
ENDBRANCH   7  10
TORSDOF 8
ENDMDL
MODEL 8
REMARK VINA RESULT:      -5.7      1.587      4.902
REMARK  Name = 56775407
REMARK  8 active torsions:
REMARK  status: ('A' for Active; 'I' for Inactive)
REMARK    1  A    between atoms: O_4  and  C_19
REMARK    2  A    between atoms: N_5  and  C_7
REMARK    3  A    between atoms: N_5  and  C_12
REMARK    4  A    between atoms: C_7  and  C_10
REMARK    5  A    between atoms: C_10  and  C_11
REMARK    6  A    between atoms: C_12  and  C_14
REMARK    7  A    between atoms: C_15  and  C_16
REMARK    8  A    between atoms: C_16  and  C_19
REMARK                            x       y       z     vdW  Elec       q    Type
REMARK                         _______ _______ _______ _____ _____    ______ ____
ROOT
ATOM      2  O   UNL     1       0.941   0.255  23.134  0.00  0.00    -0.376 OA
ATOM      7  C   UNL     1      -0.206   1.640  24.283  0.00  0.00    +0.072 C 
ATOM      8  C   UNL     1       1.255   1.221  24.162  0.00  0.00    +0.184 C 
ATOM      9  C   UNL     1      -0.444   0.670  23.131  0.00  0.00    +0.184 C 
ENDROOT
BRANCH   7   5
ATOM      5  N   UNL     1      -0.761   1.060  25.509  0.00  0.00    -0.302 NA
ATOM     23  H   UNL     1      -1.704   1.371  25.742  0.00  0.00    +0.123 HD
BRANCH   5  12
ATOM     12  C   UNL     1      -0.739  -0.400  25.402  0.00  0.00    +0.120 C 
BRANCH  12  14
ATOM      1  F   UNL     1      -1.096  -3.116  24.712  0.00  0.00    -0.205 F 
ATOM     14  C   UNL     1      -2.048  -0.955  24.946  0.00  0.00    +0.002 A 
ATOM     17  C   UNL     1      -2.160  -2.305  24.619  0.00  0.00    +0.128 A 
ATOM     18  C   UNL     1      -3.160  -0.118  24.847  0.00  0.00    +0.008 A 
ATOM     20  C   UNL     1      -3.384  -2.821  24.194  0.00  0.00    +0.038 A 
ATOM     21  C   UNL     1      -4.385  -0.634  24.421  0.00  0.00    +0.000 A 
ATOM     22  C   UNL     1      -4.496  -1.986  24.095  0.00  0.00    +0.003 A 
ENDBRANCH  12  14
ENDBRANCH   5  12
ENDBRANCH   7   5
BRANCH   7  10
ATOM     10  C   UNL     1      -0.567   3.082  24.104  0.00  0.00    +0.085 C 
BRANCH  10  11
ATOM      3  O   UNL     1      -3.220   4.155  26.309  0.00  0.00    -0.359 OA
ATOM      6  N   UNL     1      -1.880   4.025  25.970  0.00  0.00    -0.083 NA
ATOM     11  C   UNL     1      -1.879   3.397  24.791  0.00  0.00    +0.086 A 
ATOM     13  C   UNL     1      -3.179   3.106  24.341  0.00  0.00    +0.071 A 
ATOM     15  C   UNL     1      -3.985   3.604  25.331  0.00  0.00    +0.140 A 
BRANCH  15  16
ATOM     16  C   UNL     1      -5.439   3.654  25.529  0.00  0.00    +0.105 C 
BRANCH  16  19
ATOM     19  C   UNL     1      -6.118   2.272  25.489  0.00  0.00    +0.163 C 
BRANCH  19   4
ATOM      4  O   UNL     1      -6.584   1.939  26.790  0.00  0.00    -0.395 OA
ATOM     24  H   UNL     1      -7.143   1.149  26.700  0.00  0.00    +0.209 HD
ENDBRANCH  19   4
ENDBRANCH  16  19
ENDBRANCH  15  16
ENDBRANCH  10  11
ENDBRANCH   7  10
TORSDOF 8
ENDMDL
MODEL 9
REMARK VINA RESULT:      -5.4      2.350      6.204
REMARK  Name = 56775407
REMARK  8 active torsions:
REMARK  status: ('A' for Active; 'I' for Inactive)
REMARK    1  A    between atoms: O_4  and  C_19
REMARK    2  A    between atoms: N_5  and  C_7
REMARK    3  A    between atoms: N_5  and  C_12
REMARK    4  A    between atoms: C_7  and  C_10
REMARK    5  A    between atoms: C_10  and  C_11
REMARK    6  A    between atoms: C_12  and  C_14
REMARK    7  A    between atoms: C_15  and  C_16
REMARK    8  A    between atoms: C_16  and  C_19
REMARK                            x       y       z     vdW  Elec       q    Type
REMARK                         _______ _______ _______ _____ _____    ______ ____
ROOT
ATOM      2  O   UNL     1       1.499  -0.530  23.438  0.00  0.00    -0.376 OA
ATOM      7  C   UNL     1      -0.285   0.546  23.898  0.00  0.00    +0.072 C 
ATOM      8  C   UNL     1       1.146   0.871  23.487  0.00  0.00    +0.184 C 
ATOM      9  C   UNL     1       0.136  -0.910  23.733  0.00  0.00    +0.184 C 
ENDROOT
BRANCH   7   5
ATOM      5  N   UNL     1      -0.441   0.833  25.326  0.00  0.00    -0.302 NA
ATOM     23  H   UNL     1      -0.047   0.129  25.951  0.00  0.00    +0.123 HD
BRANCH   5  12
ATOM     12  C   UNL     1       0.155   2.138  25.621  0.00  0.00    +0.120 C 
BRANCH  12  14
ATOM      1  F   UNL     1       0.290   4.296  23.803  0.00  0.00    -0.205 F 
ATOM     14  C   UNL     1      -0.850   3.240  25.597  0.00  0.00    +0.002 A 
ATOM     17  C   UNL     1      -0.728   4.278  24.674  0.00  0.00    +0.128 A 
ATOM     18  C   UNL     1      -1.914   3.230  26.500  0.00  0.00    +0.008 A 
ATOM     20  C   UNL     1      -1.670   5.307  24.653  0.00  0.00    +0.038 A 
ATOM     21  C   UNL     1      -2.855   4.259  26.480  0.00  0.00    +0.000 A 
ATOM     22  C   UNL     1      -2.733   5.297  25.556  0.00  0.00    +0.003 A 
ENDBRANCH  12  14
ENDBRANCH   5  12
ENDBRANCH   7   5
BRANCH   7  10
ATOM     10  C   UNL     1      -1.417   1.072  23.070  0.00  0.00    +0.085 C 
BRANCH  10  11
ATOM      3  O   UNL     1      -4.268  -0.027  24.999  0.00  0.00    -0.359 OA
ATOM      6  N   UNL     1      -3.006  -0.218  24.451  0.00  0.00    -0.083 NA
ATOM     11  C   UNL     1      -2.735   0.917  23.801  0.00  0.00    +0.086 A 
ATOM     13  C   UNL     1      -3.779   1.853  23.903  0.00  0.00    +0.071 A 
ATOM     15  C   UNL     1      -4.718   1.210  24.666  0.00  0.00    +0.140 A 
BRANCH  15  16
ATOM     16  C   UNL     1      -6.047   1.581  25.167  0.00  0.00    +0.105 C 
BRANCH  16  19
ATOM     19  C   UNL     1      -6.014   2.618  26.306  0.00  0.00    +0.163 C 
BRANCH  19   4
ATOM      4  O   UNL     1      -6.268   3.911  25.771  0.00  0.00    -0.395 OA
ATOM     24  H   UNL     1      -6.134   3.854  24.811  0.00  0.00    +0.209 HD
ENDBRANCH  19   4
ENDBRANCH  16  19
ENDBRANCH  15  16
ENDBRANCH  10  11
ENDBRANCH   7  10
TORSDOF 8
ENDMDL
MODEL 10
REMARK VINA RESULT:      -5.1      2.501      4.342
REMARK  Name = 56775407
REMARK  8 active torsions:
REMARK  status: ('A' for Active; 'I' for Inactive)
REMARK    1  A    between atoms: O_4  and  C_19
REMARK    2  A    between atoms: N_5  and  C_7
REMARK    3  A    between atoms: N_5  and  C_12
REMARK    4  A    between atoms: C_7  and  C_10
REMARK    5  A    between atoms: C_10  and  C_11
REMARK    6  A    between atoms: C_12  and  C_14
REMARK    7  A    between atoms: C_15  and  C_16
REMARK    8  A    between atoms: C_16  and  C_19
REMARK                            x       y       z     vdW  Elec       q    Type
REMARK                         _______ _______ _______ _____ _____    ______ ____
ROOT
ATOM      2  O   UNL     1       0.019   2.515  26.027  0.00  0.00    -0.376 OA
ATOM      7  C   UNL     1      -0.657   1.530  24.258  0.00  0.00    +0.072 C 
ATOM      8  C   UNL     1       0.513   2.416  24.671  0.00  0.00    +0.184 C 
ATOM      9  C   UNL     1      -1.062   1.603  25.726  0.00  0.00    +0.184 C 
ENDROOT
BRANCH   7   5
ATOM      5  N   UNL     1      -1.598   2.330  23.469  0.00  0.00    -0.302 NA
ATOM     23  H   UNL     1      -1.239   2.651  22.570  0.00  0.00    +0.123 HD
BRANCH   5  12
ATOM     12  C   UNL     1      -2.825   1.559  23.260  0.00  0.00    +0.120 C 
BRANCH  12  14
ATOM      1  F   UNL     1      -4.637  -0.265  24.431  0.00  0.00    -0.205 F 
ATOM     14  C   UNL     1      -3.925   1.984  24.175  0.00  0.00    +0.002 A 
ATOM     17  C   UNL     1      -4.787   1.035  24.722  0.00  0.00    +0.128 A 
ATOM     18  C   UNL     1      -4.089   3.335  24.484  0.00  0.00    +0.008 A 
ATOM     20  C   UNL     1      -5.814   1.435  25.577  0.00  0.00    +0.038 A 
ATOM     21  C   UNL     1      -5.116   3.736  25.338  0.00  0.00    +0.000 A 
ATOM     22  C   UNL     1      -5.978   2.785  25.885  0.00  0.00    +0.003 A 
ENDBRANCH  12  14
ENDBRANCH   5  12
ENDBRANCH   7   5
BRANCH   7  10
ATOM     10  C   UNL     1      -0.376   0.191  23.649  0.00  0.00    +0.085 C 
BRANCH  10  11
ATOM      3  O   UNL     1       2.505  -0.164  21.498  0.00  0.00    -0.359 OA
ATOM      6  N   UNL     1       1.146  -0.279  21.763  0.00  0.00    -0.083 NA
ATOM     11  C   UNL     1       0.998   0.168  23.013  0.00  0.00    +0.086 A 
ATOM     13  C   UNL     1       2.218   0.572  23.583  0.00  0.00    +0.071 A 
ATOM     15  C   UNL     1       3.133   0.344  22.589  0.00  0.00    +0.140 A 
BRANCH  15  16
ATOM     16  C   UNL     1       4.585   0.533  22.482  0.00  0.00    +0.105 C 
BRANCH  16  19
ATOM     19  C   UNL     1       5.359   0.128  23.751  0.00  0.00    +0.163 C 
BRANCH  19   4
ATOM      4  O   UNL     1       4.944  -1.169  24.161  0.00  0.00    -0.395 OA
ATOM     24  H   UNL     1       4.373  -1.053  24.940  0.00  0.00    +0.209 HD
ENDBRANCH  19   4
ENDBRANCH  16  19
ENDBRANCH  15  16
ENDBRANCH  10  11
ENDBRANCH   7  10
TORSDOF 8
ENDMDL
