MODEL 1
REMARK VINA RESULT:      -4.8      0.000      0.000
REMARK  Name = 75536779
REMARK  7 active torsions:
REMARK  status: ('A' for Active; 'I' for Inactive)
REMARK    1  A    between atoms: O_2  and  C_10
REMARK    2  A    between atoms: N_4  and  C_9
REMARK    3  A    between atoms: N_4  and  C_14
REMARK    4  A    between atoms: N_5  and  C_13
REMARK    5  A    between atoms: N_8  and  C_19
REMARK    6  A    between atoms: C_11  and  C_13
REMARK    7  A    between atoms: C_14  and  C_15
REMARK                            x       y       z     vdW  Elec       q    Type
REMARK                         _______ _______ _______ _____ _____    ______ ____
ROOT
ATOM      1  O   UNL     1      -4.893 -10.662  18.195  0.00  0.00    -0.371 OA
ATOM      9  C   UNL     1      -7.257 -10.485  18.356  0.00  0.00    +0.111 C 
ATOM     10  C   UNL     1      -6.828 -10.123  16.947  0.00  0.00    +0.164 C 
ATOM     11  C   UNL     1      -5.457 -10.781  16.879  0.00  0.00    +0.165 C 
ATOM     12  C   UNL     1      -5.949 -10.335  19.116  0.00  0.00    +0.181 C 
ENDROOT
BRANCH  10   2
ATOM      2  O   UNL     1      -7.707 -10.631  15.961  0.00  0.00    -0.388 OA
ATOM     26  H   UNL     1      -8.610 -10.348  16.182  0.00  0.00    +0.210 HD
ENDBRANCH  10   2
BRANCH   9   4
ATOM      4  N   UNL     1      -8.316  -9.638  18.881  0.00  0.00    -0.302 NA
ATOM     25  H   UNL     1      -8.105  -8.665  18.659  0.00  0.00    +0.123 HD
BRANCH   4  14
ATOM     14  C   UNL     1      -9.605  -9.987  18.295  0.00  0.00    +0.156 C 
BRANCH  14  15
ATOM      6  N   UNL     1      -9.931  -7.661  17.424  0.00  0.00    -0.347 N 
ATOM      7  N   UNL     1     -10.485  -9.300  16.032  0.00  0.00    -0.240 NA
ATOM     15  C   UNL     1     -10.017  -9.011  17.225  0.00  0.00    +0.121 A 
ATOM     17  C   UNL     1     -10.373  -7.051  16.284  0.00  0.00    +0.104 A 
ATOM     18  C   UNL     1     -10.711  -8.083  15.440  0.00  0.00    +0.130 A 
ATOM     28  H   UNL     1      -9.601  -7.197  18.259  0.00  0.00    +0.167 HD
ENDBRANCH  14  15
ENDBRANCH   4  14
ENDBRANCH   9   4
BRANCH  11  13
ATOM     13  C   UNL     1      -4.531 -10.135  15.863  0.00  0.00    +0.140 C 
BRANCH  13   5
ATOM      3  O   UNL     1      -3.462 -10.418  13.221  0.00  0.00    -0.253 OA
ATOM      5  N   UNL     1      -5.214  -9.870  14.629  0.00  0.00    -0.297 N 
ATOM      8  N   UNL     1      -5.523  -9.703  12.352  0.00  0.00    -0.269 N 
ATOM     16  C   UNL     1      -4.620 -10.034  13.367  0.00  0.00    +0.304 C 
ATOM     27  H   UNL     1      -6.171  -9.537  14.674  0.00  0.00    +0.150 HD
ATOM     29  H   UNL     1      -6.449  -9.401  12.646  0.00  0.00    +0.156 HD
BRANCH   8  19
ATOM     19  C   UNL     1      -5.308  -9.736  10.954  0.00  0.00    +0.035 A 
ATOM     20  C   UNL     1      -6.031 -10.624  10.159  0.00  0.00    +0.023 A 
ATOM     21  C   UNL     1      -4.373  -8.880  10.373  0.00  0.00    +0.023 A 
ATOM     22  C   UNL     1      -5.819 -10.656   8.781  0.00  0.00    +0.002 A 
ATOM     23  C   UNL     1      -4.161  -8.912   8.995  0.00  0.00    +0.002 A 
ATOM     24  C   UNL     1      -4.884  -9.800   8.198  0.00  0.00    +0.000 A 
ENDBRANCH   8  19
ENDBRANCH  13   5
ENDBRANCH  11  13
TORSDOF 7
ENDMDL
MODEL 2
REMARK VINA RESULT:      -4.5     13.849     16.582
REMARK  Name = 75536779
REMARK  7 active torsions:
REMARK  status: ('A' for Active; 'I' for Inactive)
REMARK    1  A    between atoms: O_2  and  C_10
REMARK    2  A    between atoms: N_4  and  C_9
REMARK    3  A    between atoms: N_4  and  C_14
REMARK    4  A    between atoms: N_5  and  C_13
REMARK    5  A    between atoms: N_8  and  C_19
REMARK    6  A    between atoms: C_11  and  C_13
REMARK    7  A    between atoms: C_14  and  C_15
REMARK                            x       y       z     vdW  Elec       q    Type
REMARK                         _______ _______ _______ _____ _____    ______ ____
ROOT
ATOM      1  O   UNL     1      -3.555   3.983  26.730  0.00  0.00    -0.371 OA
ATOM      9  C   UNL     1      -1.983   4.383  24.994  0.00  0.00    +0.111 C 
ATOM     10  C   UNL     1      -3.307   3.970  24.378  0.00  0.00    +0.164 C 
ATOM     11  C   UNL     1      -4.269   4.276  25.518  0.00  0.00    +0.165 C 
ATOM     12  C   UNL     1      -2.151   3.896  26.423  0.00  0.00    +0.181 C 
ENDROOT
BRANCH  10   2
ATOM      2  O   UNL     1      -3.620   4.707  23.212  0.00  0.00    -0.388 OA
ATOM     26  H   UNL     1      -4.235   4.181  22.675  0.00  0.00    +0.210 HD
ENDBRANCH  10   2
BRANCH   9   4
ATOM      4  N   UNL     1      -0.825   3.805  24.331  0.00  0.00    -0.302 NA
ATOM     25  H   UNL     1      -0.121   4.531  24.198  0.00  0.00    +0.123 HD
BRANCH   4  14
ATOM     14  C   UNL     1      -0.249   2.727  25.127  0.00  0.00    +0.156 C 
BRANCH  14  15
ATOM      6  N   UNL     1       1.544   1.538  23.843  0.00  0.00    -0.347 N 
ATOM      7  N   UNL     1      -0.458   0.578  23.822  0.00  0.00    -0.240 NA
ATOM     15  C   UNL     1       0.245   1.597  24.264  0.00  0.00    +0.121 A 
ATOM     17  C   UNL     1       1.678   0.409  23.085  0.00  0.00    +0.104 A 
ATOM     18  C   UNL     1       0.430  -0.166  23.085  0.00  0.00    +0.130 A 
ATOM     28  H   UNL     1       2.274   2.206  24.054  0.00  0.00    +0.167 HD
ENDBRANCH  14  15
ENDBRANCH   4  14
ENDBRANCH   9   4
BRANCH  11  13
ATOM     13  C   UNL     1      -5.545   3.454  25.464  0.00  0.00    +0.140 C 
BRANCH  13   5
ATOM      3  O   UNL     1      -3.994   1.614  23.911  0.00  0.00    -0.253 OA
ATOM      5  N   UNL     1      -5.291   2.075  25.770  0.00  0.00    -0.297 N 
ATOM      8  N   UNL     1      -4.442  -0.050  25.507  0.00  0.00    -0.269 N 
ATOM     16  C   UNL     1      -4.517   1.234  24.956  0.00  0.00    +0.304 C 
ATOM     27  H   UNL     1      -5.703   1.689  26.613  0.00  0.00    +0.150 HD
ATOM     29  H   UNL     1      -4.936  -0.200  26.383  0.00  0.00    +0.156 HD
BRANCH   8  19
ATOM     19  C   UNL     1      -3.761  -1.178  24.991  0.00  0.00    +0.035 A 
ATOM     20  C   UNL     1      -4.393  -2.014  24.072  0.00  0.00    +0.023 A 
ATOM     21  C   UNL     1      -2.457  -1.452  25.403  0.00  0.00    +0.023 A 
ATOM     22  C   UNL     1      -3.721  -3.125  23.565  0.00  0.00    +0.002 A 
ATOM     23  C   UNL     1      -1.785  -2.564  24.896  0.00  0.00    +0.002 A 
ATOM     24  C   UNL     1      -2.416  -3.401  23.976  0.00  0.00    +0.000 A 
ENDBRANCH   8  19
ENDBRANCH  13   5
ENDBRANCH  11  13
TORSDOF 7
ENDMDL
MODEL 3
REMARK VINA RESULT:      -4.4     14.585     16.418
REMARK  Name = 75536779
REMARK  7 active torsions:
REMARK  status: ('A' for Active; 'I' for Inactive)
REMARK    1  A    between atoms: O_2  and  C_10
REMARK    2  A    between atoms: N_4  and  C_9
REMARK    3  A    between atoms: N_4  and  C_14
REMARK    4  A    between atoms: N_5  and  C_13
REMARK    5  A    between atoms: N_8  and  C_19
REMARK    6  A    between atoms: C_11  and  C_13
REMARK    7  A    between atoms: C_14  and  C_15
REMARK                            x       y       z     vdW  Elec       q    Type
REMARK                         _______ _______ _______ _____ _____    ______ ____
ROOT
ATOM      1  O   UNL     1      -4.592   0.107  25.098  0.00  0.00    -0.371 OA
ATOM      9  C   UNL     1      -4.618   2.335  24.274  0.00  0.00    +0.111 C 
ATOM     10  C   UNL     1      -3.302   1.683  23.896  0.00  0.00    +0.164 C 
ATOM     11  C   UNL     1      -3.662   0.208  24.007  0.00  0.00    +0.165 C 
ATOM     12  C   UNL     1      -5.096   1.423  25.392  0.00  0.00    +0.181 C 
ENDROOT
BRANCH  10   2
ATOM      2  O   UNL     1      -2.878   2.026  22.591  0.00  0.00    -0.388 OA
ATOM     26  H   UNL     1      -1.934   1.807  22.509  0.00  0.00    +0.210 HD
ENDBRANCH  10   2
BRANCH   9   4
ATOM      4  N   UNL     1      -4.485   3.721  24.694  0.00  0.00    -0.302 NA
ATOM     25  H   UNL     1      -5.413   4.108  24.866  0.00  0.00    +0.123 HD
BRANCH   4  14
ATOM     14  C   UNL     1      -3.694   3.826  25.915  0.00  0.00    +0.156 C 
BRANCH  14  15
ATOM      6  N   UNL     1      -1.419   2.785  26.049  0.00  0.00    -0.347 N 
ATOM      7  N   UNL     1      -1.532   4.726  24.977  0.00  0.00    -0.240 NA
ATOM     15  C   UNL     1      -2.216   3.812  25.628  0.00  0.00    +0.121 A 
ATOM     17  C   UNL     1      -0.145   3.061  25.640  0.00  0.00    +0.104 A 
ATOM     18  C   UNL     1      -0.239   4.264  24.982  0.00  0.00    +0.130 A 
ATOM     28  H   UNL     1      -1.716   1.968  26.567  0.00  0.00    +0.167 HD
ENDBRANCH  14  15
ENDBRANCH   4  14
ENDBRANCH   9   4
BRANCH  11  13
ATOM     13  C   UNL     1      -2.462  -0.685  24.271  0.00  0.00    +0.140 C 
BRANCH  13   5
ATOM      3  O   UNL     1       0.254  -1.339  24.901  0.00  0.00    -0.253 OA
ATOM      5  N   UNL     1      -1.286  -0.185  23.619  0.00  0.00    -0.297 N 
ATOM      8  N   UNL     1       0.958   0.090  23.175  0.00  0.00    -0.269 N 
ATOM     16  C   UNL     1       0.017  -0.554  23.986  0.00  0.00    +0.304 C 
ATOM     27  H   UNL     1      -1.406   0.479  22.860  0.00  0.00    +0.150 HD
ATOM     29  H   UNL     1       0.592   0.712  22.459  0.00  0.00    +0.156 HD
BRANCH   8  19
ATOM     19  C   UNL     1       2.367  -0.017  23.227  0.00  0.00    +0.035 A 
ATOM     20  C   UNL     1       3.163   1.062  22.846  0.00  0.00    +0.023 A 
ATOM     21  C   UNL     1       2.960  -1.203  23.660  0.00  0.00    +0.023 A 
ATOM     22  C   UNL     1       4.553   0.956  22.897  0.00  0.00    +0.002 A 
ATOM     23  C   UNL     1       4.350  -1.309  23.712  0.00  0.00    +0.002 A 
ATOM     24  C   UNL     1       5.147  -0.229  23.331  0.00  0.00    +0.000 A 
ENDBRANCH   8  19
ENDBRANCH  13   5
ENDBRANCH  11  13
TORSDOF 7
ENDMDL
MODEL 4
REMARK VINA RESULT:      -3.9     14.016     16.307
REMARK  Name = 75536779
REMARK  7 active torsions:
REMARK  status: ('A' for Active; 'I' for Inactive)
REMARK    1  A    between atoms: O_2  and  C_10
REMARK    2  A    between atoms: N_4  and  C_9
REMARK    3  A    between atoms: N_4  and  C_14
REMARK    4  A    between atoms: N_5  and  C_13
REMARK    5  A    between atoms: N_8  and  C_19
REMARK    6  A    between atoms: C_11  and  C_13
REMARK    7  A    between atoms: C_14  and  C_15
REMARK                            x       y       z     vdW  Elec       q    Type
REMARK                         _______ _______ _______ _____ _____    ______ ____
ROOT
ATOM      1  O   UNL     1      -0.359   4.730  24.089  0.00  0.00    -0.371 OA
ATOM      9  C   UNL     1      -1.729   4.466  26.012  0.00  0.00    +0.111 C 
ATOM     10  C   UNL     1      -0.950   3.185  25.780  0.00  0.00    +0.164 C 
ATOM     11  C   UNL     1       0.195   3.691  24.914  0.00  0.00    +0.165 C 
ATOM     12  C   UNL     1      -1.620   5.135  24.652  0.00  0.00    +0.181 C 
ENDROOT
BRANCH  10   2
ATOM      2  O   UNL     1      -0.484   2.604  26.983  0.00  0.00    -0.388 OA
ATOM     26  H   UNL     1      -1.089   2.858  27.700  0.00  0.00    +0.210 HD
ENDBRANCH  10   2
BRANCH   9   4
ATOM      4  N   UNL     1      -3.106   4.245  26.426  0.00  0.00    -0.302 NA
ATOM     25  H   UNL     1      -3.384   4.987  27.069  0.00  0.00    +0.123 HD
BRANCH   4  14
ATOM     14  C   UNL     1      -4.006   4.253  25.278  0.00  0.00    +0.156 C 
BRANCH  14  15
ATOM      6  N   UNL     1      -5.782   2.917  26.433  0.00  0.00    -0.347 N 
ATOM      7  N   UNL     1      -5.221   2.224  24.400  0.00  0.00    -0.240 NA
ATOM     15  C   UNL     1      -4.994   3.119  25.335  0.00  0.00    +0.121 A 
ATOM     17  C   UNL     1      -6.562   1.823  26.182  0.00  0.00    +0.104 A 
ATOM     18  C   UNL     1      -6.197   1.412  24.922  0.00  0.00    +0.130 A 
ATOM     28  H   UNL     1      -5.790   3.474  27.277  0.00  0.00    +0.167 HD
ENDBRANCH  14  15
ENDBRANCH   4  14
ENDBRANCH   9   4
BRANCH  11  13
ATOM     13  C   UNL     1       0.807   2.612  24.037  0.00  0.00    +0.140 C 
BRANCH  13   5
ATOM      3  O   UNL     1      -1.680   1.400  23.297  0.00  0.00    -0.253 OA
ATOM      5  N   UNL     1       0.343   1.308  24.416  0.00  0.00    -0.297 N 
ATOM      8  N   UNL     1      -1.074  -0.505  24.530  0.00  0.00    -0.269 N 
ATOM     16  C   UNL     1      -0.893   0.781  24.011  0.00  0.00    +0.304 C 
ATOM     27  H   UNL     1       0.936   0.745  25.017  0.00  0.00    +0.150 HD
ATOM     29  H   UNL     1      -0.321  -0.873  25.107  0.00  0.00    +0.156 HD
BRANCH   8  19
ATOM     19  C   UNL     1      -2.183  -1.365  24.353  0.00  0.00    +0.035 A 
ATOM     20  C   UNL     1      -2.019  -2.745  24.470  0.00  0.00    +0.023 A 
ATOM     21  C   UNL     1      -3.438  -0.833  24.062  0.00  0.00    +0.023 A 
ATOM     22  C   UNL     1      -3.113  -3.593  24.295  0.00  0.00    +0.002 A 
ATOM     23  C   UNL     1      -4.532  -1.680  23.886  0.00  0.00    +0.002 A 
ATOM     24  C   UNL     1      -4.370  -3.061  24.003  0.00  0.00    +0.000 A 
ENDBRANCH   8  19
ENDBRANCH  13   5
ENDBRANCH  11  13
TORSDOF 7
ENDMDL
MODEL 5
REMARK VINA RESULT:      -3.9      2.082      2.666
REMARK  Name = 75536779
REMARK  7 active torsions:
REMARK  status: ('A' for Active; 'I' for Inactive)
REMARK    1  A    between atoms: O_2  and  C_10
REMARK    2  A    between atoms: N_4  and  C_9
REMARK    3  A    between atoms: N_4  and  C_14
REMARK    4  A    between atoms: N_5  and  C_13
REMARK    5  A    between atoms: N_8  and  C_19
REMARK    6  A    between atoms: C_11  and  C_13
REMARK    7  A    between atoms: C_14  and  C_15
REMARK                            x       y       z     vdW  Elec       q    Type
REMARK                         _______ _______ _______ _____ _____    ______ ____
ROOT
ATOM      1  O   UNL     1      -3.715 -10.645  16.130  0.00  0.00    -0.371 OA
ATOM      9  C   UNL     1      -5.793 -10.651  17.281  0.00  0.00    +0.111 C 
ATOM     10  C   UNL     1      -6.024 -10.221  15.845  0.00  0.00    +0.164 C 
ATOM     11  C   UNL     1      -4.776 -10.772  15.169  0.00  0.00    +0.165 C 
ATOM     12  C   UNL     1      -4.298 -10.422  17.427  0.00  0.00    +0.181 C 
ENDROOT
BRANCH  10   2
ATOM      2  O   UNL     1      -7.207 -10.769  15.294  0.00  0.00    -0.388 OA
ATOM     26  H   UNL     1      -7.960 -10.474  15.834  0.00  0.00    +0.210 HD
ENDBRANCH  10   2
BRANCH   9   4
ATOM      4  N   UNL     1      -6.577  -9.900  18.249  0.00  0.00    -0.302 NA
ATOM     25  H   UNL     1      -6.792  -8.981  17.862  0.00  0.00    +0.123 HD
BRANCH   4  14
ATOM     14  C   UNL     1      -7.826 -10.587  18.559  0.00  0.00    +0.156 C 
BRANCH  14  15
ATOM      6  N   UNL     1      -9.373  -8.670  18.100  0.00  0.00    -0.347 N 
ATOM      7  N   UNL     1      -9.775 -10.531  16.957  0.00  0.00    -0.240 NA
ATOM     15  C   UNL     1      -8.998  -9.961  17.851  0.00  0.00    +0.121 A 
ATOM     17  C   UNL     1     -10.457  -8.400  17.314  0.00  0.00    +0.104 A 
ATOM     18  C   UNL     1     -10.687  -9.563  16.618  0.00  0.00    +0.130 A 
ATOM     28  H   UNL     1      -8.930  -8.031  18.746  0.00  0.00    +0.167 HD
ENDBRANCH  14  15
ENDBRANCH   4  14
ENDBRANCH   9   4
BRANCH  11  13
ATOM     13  C   UNL     1      -4.406 -10.032  13.895  0.00  0.00    +0.140 C 
BRANCH  13   5
ATOM      3  O   UNL     1      -5.577 -10.752  11.382  0.00  0.00    -0.253 OA
ATOM      5  N   UNL     1      -5.561  -9.436  13.285  0.00  0.00    -0.297 N 
ATOM      8  N   UNL     1      -7.203  -9.088  11.707  0.00  0.00    -0.269 N 
ATOM     16  C   UNL     1      -6.077  -9.847  12.046  0.00  0.00    +0.304 C 
ATOM     27  H   UNL     1      -6.018  -8.672  13.771  0.00  0.00    +0.150 HD
ATOM     29  H   UNL     1      -7.487  -8.372  12.371  0.00  0.00    +0.156 HD
BRANCH   8  19
ATOM     19  C   UNL     1      -8.002  -9.193  10.545  0.00  0.00    +0.035 A 
ATOM     20  C   UNL     1      -7.663  -8.475   9.399  0.00  0.00    +0.023 A 
ATOM     21  C   UNL     1      -9.129 -10.014  10.547  0.00  0.00    +0.023 A 
ATOM     22  C   UNL     1      -8.452  -8.579   8.253  0.00  0.00    +0.002 A 
ATOM     23  C   UNL     1      -9.919 -10.118   9.401  0.00  0.00    +0.002 A 
ATOM     24  C   UNL     1      -9.580  -9.401   8.254  0.00  0.00    +0.000 A 
ENDBRANCH   8  19
ENDBRANCH  13   5
ENDBRANCH  11  13
TORSDOF 7
ENDMDL
MODEL 6
REMARK VINA RESULT:      -2.7     14.025     16.088
REMARK  Name = 75536779
REMARK  7 active torsions:
REMARK  status: ('A' for Active; 'I' for Inactive)
REMARK    1  A    between atoms: O_2  and  C_10
REMARK    2  A    between atoms: N_4  and  C_9
REMARK    3  A    between atoms: N_4  and  C_14
REMARK    4  A    between atoms: N_5  and  C_13
REMARK    5  A    between atoms: N_8  and  C_19
REMARK    6  A    between atoms: C_11  and  C_13
REMARK    7  A    between atoms: C_14  and  C_15
REMARK                            x       y       z     vdW  Elec       q    Type
REMARK                         _______ _______ _______ _____ _____    ______ ____
ROOT
ATOM      1  O   UNL     1      -3.075   3.808  23.625  0.00  0.00    -0.371 OA
ATOM      9  C   UNL     1      -4.937   2.665  24.557  0.00  0.00    +0.111 C 
ATOM     10  C   UNL     1      -4.026   3.125  25.679  0.00  0.00    +0.164 C 
ATOM     11  C   UNL     1      -3.244   4.232  24.987  0.00  0.00    +0.165 C 
ATOM     12  C   UNL     1      -4.003   2.740  23.361  0.00  0.00    +0.181 C 
ENDROOT
BRANCH  10   2
ATOM      2  O   UNL     1      -4.742   3.607  26.801  0.00  0.00    -0.388 OA
ATOM     26  H   UNL     1      -5.642   3.834  26.514  0.00  0.00    +0.210 HD
ENDBRANCH  10   2
BRANCH   9   4
ATOM      4  N   UNL     1      -5.490   1.336  24.761  0.00  0.00    -0.302 NA
ATOM     25  H   UNL     1      -5.529   0.850  23.865  0.00  0.00    +0.123 HD
BRANCH   4  14
ATOM     14  C   UNL     1      -4.668   0.561  25.683  0.00  0.00    +0.156 C 
BRANCH  14  15
ATOM      6  N   UNL     1      -3.522  -1.663  25.805  0.00  0.00    -0.347 N 
ATOM      7  N   UNL     1      -4.465  -1.168  23.857  0.00  0.00    -0.240 NA
ATOM     15  C   UNL     1      -4.235  -0.749  25.081  0.00  0.00    +0.121 A 
ATOM     17  C   UNL     1      -3.282  -2.734  24.990  0.00  0.00    +0.104 A 
ATOM     18  C   UNL     1      -3.873  -2.405  23.793  0.00  0.00    +0.130 A 
ATOM     28  H   UNL     1      -3.226  -1.568  26.767  0.00  0.00    +0.167 HD
ENDBRANCH  14  15
ENDBRANCH   4  14
ENDBRANCH   9   4
BRANCH  11  13
ATOM     13  C   UNL     1      -1.885   4.491  25.616  0.00  0.00    +0.140 C 
BRANCH  13   5
ATOM      3  O   UNL     1      -0.350   3.658  23.346  0.00  0.00    -0.253 OA
ATOM      5  N   UNL     1      -1.042   3.333  25.529  0.00  0.00    -0.297 N 
ATOM      8  N   UNL     1       0.414   1.816  24.587  0.00  0.00    -0.269 N 
ATOM     16  C   UNL     1      -0.317   2.990  24.377  0.00  0.00    +0.304 C 
ATOM     27  H   UNL     1      -0.977   2.727  26.340  0.00  0.00    +0.150 HD
ATOM     29  H   UNL     1       0.329   1.384  25.503  0.00  0.00    +0.156 HD
BRANCH   8  19
ATOM     19  C   UNL     1       1.264   1.148  23.675  0.00  0.00    +0.035 A 
ATOM     20  C   UNL     1       0.766   0.105  22.895  0.00  0.00    +0.023 A 
ATOM     21  C   UNL     1       2.599   1.533  23.556  0.00  0.00    +0.023 A 
ATOM     22  C   UNL     1       1.605  -0.554  21.996  0.00  0.00    +0.002 A 
ATOM     23  C   UNL     1       3.437   0.874  22.657  0.00  0.00    +0.002 A 
ATOM     24  C   UNL     1       2.940  -0.169  21.876  0.00  0.00    +0.000 A 
ENDBRANCH   8  19
ENDBRANCH  13   5
ENDBRANCH  11  13
TORSDOF 7
ENDMDL
MODEL 7
REMARK VINA RESULT:      -2.7     13.521     16.341
REMARK  Name = 75536779
REMARK  7 active torsions:
REMARK  status: ('A' for Active; 'I' for Inactive)
REMARK    1  A    between atoms: O_2  and  C_10
REMARK    2  A    between atoms: N_4  and  C_9
REMARK    3  A    between atoms: N_4  and  C_14
REMARK    4  A    between atoms: N_5  and  C_13
REMARK    5  A    between atoms: N_8  and  C_19
REMARK    6  A    between atoms: C_11  and  C_13
REMARK    7  A    between atoms: C_14  and  C_15
REMARK                            x       y       z     vdW  Elec       q    Type
REMARK                         _______ _______ _______ _____ _____    ______ ____
ROOT
ATOM      1  O   UNL     1      -1.464  -2.708  23.495  0.00  0.00    -0.371 OA
ATOM      9  C   UNL     1       0.062  -1.101  24.354  0.00  0.00    +0.111 C 
ATOM     10  C   UNL     1      -1.129  -1.201  25.287  0.00  0.00    +0.164 C 
ATOM     11  C   UNL     1      -1.687  -2.566  24.908  0.00  0.00    +0.165 C 
ATOM     12  C   UNL     1      -0.497  -1.723  23.085  0.00  0.00    +0.181 C 
ENDROOT
BRANCH  10   2
ATOM      2  O   UNL     1      -0.760  -1.143  26.652  0.00  0.00    -0.388 OA
ATOM     26  H   UNL     1       0.041  -0.599  26.729  0.00  0.00    +0.210 HD
ENDBRANCH  10   2
BRANCH   9   4
ATOM      4  N   UNL     1       0.537   0.259  24.156  0.00  0.00    -0.302 NA
ATOM     25  H   UNL     1       1.341   0.243  23.528  0.00  0.00    +0.123 HD
BRANCH   4  14
ATOM     14  C   UNL     1      -0.503   1.098  23.571  0.00  0.00    +0.156 C 
BRANCH  14  15
ATOM      6  N   UNL     1      -1.240   2.249  25.670  0.00  0.00    -0.347 N 
ATOM      7  N   UNL     1      -0.559   3.579  24.027  0.00  0.00    -0.240 NA
ATOM     15  C   UNL     1      -0.755   2.332  24.395  0.00  0.00    +0.121 A 
ATOM     17  C   UNL     1      -1.361   3.524  26.146  0.00  0.00    +0.104 A 
ATOM     18  C   UNL     1      -0.935   4.327  25.115  0.00  0.00    +0.130 A 
ATOM     28  H   UNL     1      -1.468   1.401  26.171  0.00  0.00    +0.167 HD
ENDBRANCH  14  15
ENDBRANCH   4  14
ENDBRANCH   9   4
BRANCH  11  13
ATOM     13  C   UNL     1      -3.168  -2.715  25.211  0.00  0.00    +0.140 C 
BRANCH  13   5
ATOM      3  O   UNL     1      -3.137  -0.003  26.131  0.00  0.00    -0.253 OA
ATOM      5  N   UNL     1      -3.923  -1.619  24.675  0.00  0.00    -0.297 N 
ATOM      8  N   UNL     1      -4.695   0.541  24.461  0.00  0.00    -0.269 N 
ATOM     16  C   UNL     1      -3.853  -0.312  25.182  0.00  0.00    +0.304 C 
ATOM     27  H   UNL     1      -4.547  -1.803  23.896  0.00  0.00    +0.150 HD
ATOM     29  H   UNL     1      -5.224   0.123  23.700  0.00  0.00    +0.156 HD
BRANCH   8  19
ATOM     19  C   UNL     1      -4.906   1.925  24.661  0.00  0.00    +0.035 A 
ATOM     20  C   UNL     1      -5.831   2.359  25.611  0.00  0.00    +0.023 A 
ATOM     21  C   UNL     1      -4.191   2.856  23.909  0.00  0.00    +0.023 A 
ATOM     22  C   UNL     1      -6.039   3.724  25.808  0.00  0.00    +0.002 A 
ATOM     23  C   UNL     1      -4.398   4.221  24.105  0.00  0.00    +0.002 A 
ATOM     24  C   UNL     1      -5.323   4.655  25.056  0.00  0.00    +0.000 A 
ENDBRANCH   8  19
ENDBRANCH  13   5
ENDBRANCH  11  13
TORSDOF 7
ENDMDL
MODEL 8
REMARK VINA RESULT:      -2.3     13.526     16.295
REMARK  Name = 75536779
REMARK  7 active torsions:
REMARK  status: ('A' for Active; 'I' for Inactive)
REMARK    1  A    between atoms: O_2  and  C_10
REMARK    2  A    between atoms: N_4  and  C_9
REMARK    3  A    between atoms: N_4  and  C_14
REMARK    4  A    between atoms: N_5  and  C_13
REMARK    5  A    between atoms: N_8  and  C_19
REMARK    6  A    between atoms: C_11  and  C_13
REMARK    7  A    between atoms: C_14  and  C_15
REMARK                            x       y       z     vdW  Elec       q    Type
REMARK                         _______ _______ _______ _____ _____    ______ ____
ROOT
ATOM      1  O   UNL     1      -2.739  -3.119  23.538  0.00  0.00    -0.371 OA
ATOM      9  C   UNL     1      -1.271  -2.340  25.236  0.00  0.00    +0.111 C 
ATOM     10  C   UNL     1      -2.582  -1.583  25.330  0.00  0.00    +0.164 C 
ATOM     11  C   UNL     1      -3.520  -2.527  24.590  0.00  0.00    +0.165 C 
ATOM     12  C   UNL     1      -1.346  -2.898  23.825  0.00  0.00    +0.181 C 
ENDROOT
BRANCH  10   2
ATOM      2  O   UNL     1      -2.995  -1.371  26.667  0.00  0.00    -0.388 OA
ATOM     26  H   UNL     1      -3.859  -0.925  26.652  0.00  0.00    +0.210 HD
ENDBRANCH  10   2
BRANCH   9   4
ATOM      4  N   UNL     1      -0.099  -1.508  25.454  0.00  0.00    -0.302 NA
ATOM     25  H   UNL     1       0.717  -2.107  25.583  0.00  0.00    +0.123 HD
BRANCH   4  14
ATOM     14  C   UNL     1       0.138  -0.626  24.317  0.00  0.00    +0.156 C 
BRANCH  14  15
ATOM      6  N   UNL     1      -0.212   1.205  25.991  0.00  0.00    -0.347 N 
ATOM      7  N   UNL     1       0.045   1.858  23.885  0.00  0.00    -0.240 NA
ATOM     15  C   UNL     1      -0.005   0.825  24.695  0.00  0.00    +0.121 A 
ATOM     17  C   UNL     1      -0.299   2.569  26.009  0.00  0.00    +0.104 A 
ATOM     18  C   UNL     1      -0.138   2.949  24.698  0.00  0.00    +0.130 A 
ATOM     28  H   UNL     1      -0.286   0.592  26.792  0.00  0.00    +0.167 HD
ENDBRANCH  14  15
ENDBRANCH   4  14
ENDBRANCH   9   4
BRANCH  11  13
ATOM     13  C   UNL     1      -4.731  -1.827  23.998  0.00  0.00    +0.140 C 
BRANCH  13   5
ATOM      3  O   UNL     1      -3.119   0.495  23.540  0.00  0.00    -0.253 OA
ATOM      5  N   UNL     1      -4.916  -0.527  24.576  0.00  0.00    -0.297 N 
ATOM      8  N   UNL     1      -4.505   1.699  25.005  0.00  0.00    -0.269 N 
ATOM     16  C   UNL     1      -4.081   0.567  24.301  0.00  0.00    +0.304 C 
ATOM     27  H   UNL     1      -5.685  -0.398  25.226  0.00  0.00    +0.150 HD
ATOM     29  H   UNL     1      -5.324   1.587  25.597  0.00  0.00    +0.156 HD
BRANCH   8  19
ATOM     19  C   UNL     1      -3.930   2.991  24.997  0.00  0.00    +0.035 A 
ATOM     20  C   UNL     1      -3.543   3.589  26.196  0.00  0.00    +0.023 A 
ATOM     21  C   UNL     1      -3.751   3.667  23.791  0.00  0.00    +0.023 A 
ATOM     22  C   UNL     1      -2.976   4.863  26.188  0.00  0.00    +0.002 A 
ATOM     23  C   UNL     1      -3.184   4.942  23.783  0.00  0.00    +0.002 A 
ATOM     24  C   UNL     1      -2.796   5.540  24.982  0.00  0.00    +0.000 A 
ENDBRANCH   8  19
ENDBRANCH  13   5
ENDBRANCH  11  13
TORSDOF 7
ENDMDL
MODEL 9
REMARK VINA RESULT:      -1.7     13.810     16.194
REMARK  Name = 75536779
REMARK  7 active torsions:
REMARK  status: ('A' for Active; 'I' for Inactive)
REMARK    1  A    between atoms: O_2  and  C_10
REMARK    2  A    between atoms: N_4  and  C_9
REMARK    3  A    between atoms: N_4  and  C_14
REMARK    4  A    between atoms: N_5  and  C_13
REMARK    5  A    between atoms: N_8  and  C_19
REMARK    6  A    between atoms: C_11  and  C_13
REMARK    7  A    between atoms: C_14  and  C_15
REMARK                            x       y       z     vdW  Elec       q    Type
REMARK                         _______ _______ _______ _____ _____    ______ ____
ROOT
ATOM      1  O   UNL     1      -1.945  -2.956  25.319  0.00  0.00    -0.371 OA
ATOM      9  C   UNL     1      -3.739  -1.891  24.183  0.00  0.00    +0.111 C 
ATOM     10  C   UNL     1      -2.498  -1.027  24.068  0.00  0.00    +0.164 C 
ATOM     11  C   UNL     1      -1.403  -2.047  24.347  0.00  0.00    +0.165 C 
ATOM     12  C   UNL     1      -3.374  -2.787  25.355  0.00  0.00    +0.181 C 
ENDROOT
BRANCH  10   2
ATOM      2  O   UNL     1      -2.358  -0.440  22.788  0.00  0.00    -0.388 OA
ATOM     26  H   UNL     1      -2.325  -1.152  22.128  0.00  0.00    +0.210 HD
ENDBRANCH  10   2
BRANCH   9   4
ATOM      4  N   UNL     1      -4.959  -1.133  24.410  0.00  0.00    -0.302 NA
ATOM     25  H   UNL     1      -5.727  -1.781  24.584  0.00  0.00    +0.123 HD
BRANCH   4  14
ATOM     14  C   UNL     1      -4.820  -0.245  25.559  0.00  0.00    +0.156 C 
BRANCH  14  15
ATOM      6  N   UNL     1      -5.745   2.064  25.860  0.00  0.00    -0.347 N 
ATOM      7  N   UNL     1      -4.334   1.801  24.165  0.00  0.00    -0.240 NA
ATOM     15  C   UNL     1      -4.942   1.203  25.165  0.00  0.00    +0.121 A 
ATOM     17  C   UNL     1      -5.643   3.289  25.264  0.00  0.00    +0.104 A 
ATOM     18  C   UNL     1      -4.768   3.102  24.220  0.00  0.00    +0.130 A 
ATOM     28  H   UNL     1      -6.311   1.838  26.667  0.00  0.00    +0.167 HD
ENDBRANCH  14  15
ENDBRANCH   4  14
ENDBRANCH   9   4
BRANCH  11  13
ATOM     13  C   UNL     1      -0.125  -1.425  24.883  0.00  0.00    +0.140 C 
BRANCH  13   5
ATOM      3  O   UNL     1      -0.594   1.130  23.678  0.00  0.00    -0.253 OA
ATOM      5  N   UNL     1      -0.392  -0.192  25.565  0.00  0.00    -0.297 N 
ATOM      8  N   UNL     1      -0.848   2.052  25.823  0.00  0.00    -0.269 N 
ATOM     16  C   UNL     1      -0.613   1.026  24.902  0.00  0.00    +0.304 C 
ATOM     27  H   UNL     1      -0.410  -0.200  26.580  0.00  0.00    +0.150 HD
ATOM     29  H   UNL     1      -0.828   1.795  26.807  0.00  0.00    +0.156 HD
BRANCH   8  19
ATOM     19  C   UNL     1      -1.111   3.416  25.555  0.00  0.00    +0.035 A 
ATOM     20  C   UNL     1      -0.231   4.152  24.762  0.00  0.00    +0.023 A 
ATOM     21  C   UNL     1      -2.249   4.023  26.084  0.00  0.00    +0.023 A 
ATOM     22  C   UNL     1      -0.491   5.497  24.498  0.00  0.00    +0.002 A 
ATOM     23  C   UNL     1      -2.509   5.368  25.820  0.00  0.00    +0.002 A 
ATOM     24  C   UNL     1      -1.630   6.105  25.026  0.00  0.00    +0.000 A 
ENDBRANCH   8  19
ENDBRANCH  13   5
ENDBRANCH  11  13
TORSDOF 7
ENDMDL
MODEL 10
REMARK VINA RESULT:      -1.2     14.030     16.946
REMARK  Name = 75536779
REMARK  7 active torsions:
REMARK  status: ('A' for Active; 'I' for Inactive)
REMARK    1  A    between atoms: O_2  and  C_10
REMARK    2  A    between atoms: N_4  and  C_9
REMARK    3  A    between atoms: N_4  and  C_14
REMARK    4  A    between atoms: N_5  and  C_13
REMARK    5  A    between atoms: N_8  and  C_19
REMARK    6  A    between atoms: C_11  and  C_13
REMARK    7  A    between atoms: C_14  and  C_15
REMARK                            x       y       z     vdW  Elec       q    Type
REMARK                         _______ _______ _______ _____ _____    ______ ____
ROOT
ATOM      1  O   UNL     1      -1.943  -2.434  23.626  0.00  0.00    -0.371 OA
ATOM      9  C   UNL     1      -0.022  -1.249  24.368  0.00  0.00    +0.111 C 
ATOM     10  C   UNL     1      -1.202  -0.877  25.245  0.00  0.00    +0.164 C 
ATOM     11  C   UNL     1      -2.134  -2.056  24.999  0.00  0.00    +0.165 C 
ATOM     12  C   UNL     1      -0.723  -1.835  23.153  0.00  0.00    +0.181 C 
ENDROOT
BRANCH  10   2
ATOM      2  O   UNL     1      -0.851  -0.758  26.611  0.00  0.00    -0.388 OA
ATOM     26  H   UNL     1       0.118  -0.785  26.680  0.00  0.00    +0.210 HD
ENDBRANCH  10   2
BRANCH   9   4
ATOM      4  N   UNL     1       0.838  -0.124  24.037  0.00  0.00    -0.302 NA
ATOM     25  H   UNL     1       1.454   0.068  24.827  0.00  0.00    +0.123 HD
BRANCH   4  14
ATOM     14  C   UNL     1       1.651  -0.412  22.861  0.00  0.00    +0.156 C 
BRANCH  14  15
ATOM      6  N   UNL     1       3.902  -1.220  23.607  0.00  0.00    -0.347 N 
ATOM      7  N   UNL     1       3.802   0.903  22.962  0.00  0.00    -0.240 NA
ATOM     15  C   UNL     1       3.118  -0.206  23.132  0.00  0.00    +0.121 A 
ATOM     17  C   UNL     1       5.168  -0.725  23.749  0.00  0.00    +0.104 A 
ATOM     18  C   UNL     1       5.082   0.586  23.345  0.00  0.00    +0.130 A 
ATOM     28  H   UNL     1       3.603  -2.163  23.815  0.00  0.00    +0.167 HD
ENDBRANCH  14  15
ENDBRANCH   4  14
ENDBRANCH   9   4
BRANCH  11  13
ATOM     13  C   UNL     1      -3.596  -1.726  25.243  0.00  0.00    +0.140 C 
BRANCH  13   5
ATOM      3  O   UNL     1      -2.748   0.608  23.815  0.00  0.00    -0.253 OA
ATOM      5  N   UNL     1      -3.761  -0.362  25.655  0.00  0.00    -0.297 N 
ATOM      8  N   UNL     1      -3.616   1.935  25.547  0.00  0.00    -0.269 N 
ATOM     16  C   UNL     1      -3.317   0.733  24.897  0.00  0.00    +0.304 C 
ATOM     27  H   UNL     1      -4.212  -0.183  26.546  0.00  0.00    +0.150 HD
ATOM     29  H   UNL     1      -4.093   1.863  26.443  0.00  0.00    +0.156 HD
BRANCH   8  19
ATOM     19  C   UNL     1      -3.334   3.251  25.112  0.00  0.00    +0.035 A 
ATOM     20  C   UNL     1      -2.255   3.948  25.655  0.00  0.00    +0.023 A 
ATOM     21  C   UNL     1      -4.135   3.850  24.140  0.00  0.00    +0.023 A 
ATOM     22  C   UNL     1      -1.977   5.246  25.225  0.00  0.00    +0.002 A 
ATOM     23  C   UNL     1      -3.857   5.148  23.711  0.00  0.00    +0.002 A 
ATOM     24  C   UNL     1      -2.778   5.846  24.253  0.00  0.00    +0.000 A 
ENDBRANCH   8  19
ENDBRANCH  13   5
ENDBRANCH  11  13
TORSDOF 7
ENDMDL
