MODEL 1
REMARK VINA RESULT:      -1.1      0.000      0.000
REMARK  Name = 71693889
REMARK  8 active torsions:
REMARK  status: ('A' for Active; 'I' for Inactive)
REMARK    1  A    between atoms: O_4  and  C_11
REMARK    2  A    between atoms: O_5  and  C_13
REMARK    3  A    between atoms: O_7  and  C_21
REMARK    4  A    between atoms: O_7  and  C_27
REMARK    5  A    between atoms: N_8  and  C_10
REMARK    6  A    between atoms: C_9  and  C_14
REMARK    7  A    between atoms: C_17  and  C_20
REMARK    8  A    between atoms: C_26  and  C_28
REMARK                            x       y       z     vdW  Elec       q    Type
REMARK                         _______ _______ _______ _____ _____    ______ ____
ROOT
ATOM      9  C   UNL     1      -2.384  -0.763  25.469  0.00  0.00    +0.044 C 
ATOM     10  C   UNL     1      -1.750  -1.430  24.226  0.00  0.00    +0.112 C 
ATOM     11  C   UNL     1      -2.098  -2.907  24.400  0.00  0.00    +0.164 C 
ATOM     12  C   UNL     1      -3.510  -1.722  25.935  0.00  0.00    +0.044 C 
ATOM     13  C   UNL     1      -3.529  -2.866  24.923  0.00  0.00    +0.145 C 
ENDROOT
BRANCH   9  14
ATOM     14  C   UNL     1      -2.841   0.657  25.210  0.00  0.00    -0.042 A 
ATOM     15  C   UNL     1      -4.162   0.909  24.838  0.00  0.00    +0.007 A 
ATOM     16  C   UNL     1      -1.941   1.715  25.342  0.00  0.00    +0.007 A 
ATOM     18  C   UNL     1      -4.582   2.217  24.599  0.00  0.00    +0.046 A 
ATOM     19  C   UNL     1      -2.362   3.023  25.104  0.00  0.00    +0.046 A 
ATOM     21  C   UNL     1      -3.682   3.274  24.732  0.00  0.00    +0.120 A 
BRANCH  21   7
ATOM      7  O   UNL     1      -4.093   4.551  24.501  0.00  0.00    -0.495 OA
ATOM     27  C   UNL     1      -5.294   4.973  25.149  0.00  0.00    +0.277 C 
ENDBRANCH  21   7
ENDBRANCH   9  14
BRANCH  10   8
ATOM      6  O   UNL     1      -0.361   0.393  22.496  0.00  0.00    -0.270 OA
ATOM      8  N   UNL     1      -0.326  -1.216  24.166  0.00  0.00    -0.305 N 
ATOM     17  C   UNL     1       0.257  -0.308  23.293  0.00  0.00    +0.244 C 
ATOM     29  H   UNL     1       0.249  -1.781  24.781  0.00  0.00    +0.149 HD
BRANCH  17  20
ATOM     20  C   UNL     1       1.740  -0.225  23.335  0.00  0.00    +0.037 A 
ATOM     22  C   UNL     1       2.489  -1.325  23.752  0.00  0.00    +0.013 A 
ATOM     23  C   UNL     1       2.383   0.955  22.958  0.00  0.00    +0.013 A 
ATOM     24  C   UNL     1       3.881  -1.247  23.791  0.00  0.00    +0.013 A 
ATOM     25  C   UNL     1       3.774   1.034  22.998  0.00  0.00    +0.013 A 
ATOM     26  C   UNL     1       4.524  -0.067  23.414  0.00  0.00    +0.055 A 
BRANCH  26  28
ATOM      1  F   UNL     1       6.616  -0.379  22.299  0.00  0.00    -0.166 F 
ATOM      2  F   UNL     1       6.575  -0.756  24.434  0.00  0.00    -0.166 F 
ATOM      3  F   UNL     1       6.460   1.285  23.690  0.00  0.00    -0.166 F 
ATOM     28  C   UNL     1       6.013   0.017  23.458  0.00  0.00    +0.417 C 
ENDBRANCH  26  28
ENDBRANCH  17  20
ENDBRANCH  10   8
BRANCH  11   4
ATOM      4  O   UNL     1      -2.021  -3.623  23.181  0.00  0.00    -0.387 OA
ATOM     30  H   UNL     1      -1.104  -3.565  22.867  0.00  0.00    +0.210 HD
ENDBRANCH  11   4
BRANCH  13   5
ATOM      5  O   UNL     1      -4.445  -2.539  23.882  0.00  0.00    -0.389 OA
ATOM     31  H   UNL     1      -4.146  -2.994  23.076  0.00  0.00    +0.210 HD
ENDBRANCH  13   5
TORSDOF 7
ENDMDL
