MODEL 1
REMARK VINA RESULT:      -1.4      0.000      0.000
REMARK  Name = 28960185
REMARK  11 active torsions:
REMARK  status: ('A' for Active; 'I' for Inactive)
REMARK    1  A    between atoms: O_2  and  C_22
REMARK    2  A    between atoms: N_6  and  C_19
REMARK    3  A    between atoms: N_6  and  C_23
REMARK    4  A    between atoms: N_6  and  C_25
REMARK    5  A    between atoms: N_7  and  C_24
REMARK    6  A    between atoms: C_8  and  C_13
REMARK    7  A    between atoms: C_9  and  C_15
REMARK    8  A    between atoms: C_13  and  C_19
REMARK    9  A    between atoms: C_14  and  C_16
REMARK   10  A    between atoms: C_15  and  C_22
REMARK   11  A    between atoms: C_23  and  C_24
REMARK                            x       y       z     vdW  Elec       q    Type
REMARK                         _______ _______ _______ _____ _____    ______ ____
ROOT
ATOM      1  O   UNL     1      -5.554   3.077  26.857  0.00  0.00    -0.275 OA
ATOM      5  N   UNL     1      -3.821   3.739  25.449  0.00  0.00    -0.301 N 
ATOM      8  C   UNL     1      -1.781   3.243  24.124  0.00  0.00    +0.012 C 
ATOM      9  C   UNL     1      -0.942   3.940  25.226  0.00  0.00    +0.006 C 
ATOM     10  C   UNL     1      -3.210   3.814  24.117  0.00  0.00    +0.111 C 
ATOM     11  C   UNL     1      -1.644   3.879  26.594  0.00  0.00    +0.023 C 
ATOM     12  C   UNL     1      -3.072   4.411  26.509  0.00  0.00    +0.108 C 
ATOM     16  C   UNL     1      -5.037   3.115  25.743  0.00  0.00    +0.219 C 
ENDROOT
BRANCH  16  14
ATOM     14  C   UNL     1      -5.755   2.442  24.614  0.00  0.00    +0.075 C 
ATOM     17  C   UNL     1      -6.613   1.286  25.142  0.00  0.00    +0.013 C 
ATOM     18  C   UNL     1      -4.759   1.822  23.633  0.00  0.00    +0.013 C 
ATOM     20  C   UNL     1      -6.157   0.047  24.379  0.00  0.00    +0.001 C 
ATOM     21  C   UNL     1      -4.716   0.347  24.010  0.00  0.00    +0.001 C 
ENDBRANCH  16  14
BRANCH   8  13
ATOM     13  C   UNL     1      -1.818   1.714  24.241  0.00  0.00    +0.024 C 
BRANCH  13  19
ATOM     19  C   UNL     1      -0.719   1.043  23.433  0.00  0.00    +0.105 C 
BRANCH  19   6
ATOM      6  N   UNL     1      -0.457  -0.288  23.926  0.00  0.00    -0.329 N 
BRANCH   6  25
ATOM     25  C   UNL     1      -1.466  -1.059  24.520  0.00  0.00    +0.030 A 
ATOM     28  C   UNL     1      -1.960  -2.187  23.864  0.00  0.00    +0.023 A 
ATOM     29  C   UNL     1      -1.975  -0.699  25.767  0.00  0.00    +0.023 A 
ATOM     32  C   UNL     1      -2.963  -2.955  24.456  0.00  0.00    +0.002 A 
ATOM     33  C   UNL     1      -2.978  -1.465  26.360  0.00  0.00    +0.002 A 
ATOM     34  C   UNL     1      -3.472  -2.593  25.704  0.00  0.00    +0.000 A 
ENDBRANCH   6  25
BRANCH   6  23
ATOM     23  C   UNL     1       0.898  -0.826  23.801  0.00  0.00    +0.120 C 
BRANCH  23  24
ATOM     24  C   UNL     1       1.573  -0.233  22.571  0.00  0.00    +0.103 C 
BRANCH  24   7
ATOM      4  O   UNL     1       5.459  -0.131  24.153  0.00  0.00    -0.377 OA
ATOM      7  N   UNL     1       3.027  -0.335  22.690  0.00  0.00    -0.297 NA
ATOM     26  C   UNL     1       3.399  -1.331  23.705  0.00  0.00    +0.112 C 
ATOM     27  C   UNL     1       3.615   0.969  23.025  0.00  0.00    +0.112 C 
ATOM     30  C   UNL     1       4.918  -1.409  23.820  0.00  0.00    +0.175 C 
ATOM     31  C   UNL     1       5.129   0.836  23.154  0.00  0.00    +0.175 C 
ENDBRANCH  24   7
ENDBRANCH  23  24
ENDBRANCH   6  23
ENDBRANCH  19   6
ENDBRANCH  13  19
ENDBRANCH   8  13
BRANCH   9  15
ATOM     15  C   UNL     1       0.484   3.398  25.328  0.00  0.00    +0.124 C 
BRANCH  15  22
ATOM      3  O   UNL     1       1.448   2.950  27.523  0.00  0.00    -0.251 OA
ATOM     22  C   UNL     1       0.698   2.639  26.609  0.00  0.00    +0.305 C 
BRANCH  22   2
ATOM      2  O   UNL     1      -0.079   1.525  26.616  0.00  0.00    -0.481 OA
ATOM     35  H   UNL     1       0.244   0.850  25.982  0.00  0.00    +0.295 HD
ENDBRANCH  22   2
ENDBRANCH  15  22
ENDBRANCH   9  15
TORSDOF 11
ENDMDL
MODEL 2
REMARK VINA RESULT:      -1.1      1.728      3.505
REMARK  Name = 28960185
REMARK  11 active torsions:
REMARK  status: ('A' for Active; 'I' for Inactive)
REMARK    1  A    between atoms: O_2  and  C_22
REMARK    2  A    between atoms: N_6  and  C_19
REMARK    3  A    between atoms: N_6  and  C_23
REMARK    4  A    between atoms: N_6  and  C_25
REMARK    5  A    between atoms: N_7  and  C_24
REMARK    6  A    between atoms: C_8  and  C_13
REMARK    7  A    between atoms: C_9  and  C_15
REMARK    8  A    between atoms: C_13  and  C_19
REMARK    9  A    between atoms: C_14  and  C_16
REMARK   10  A    between atoms: C_15  and  C_22
REMARK   11  A    between atoms: C_23  and  C_24
REMARK                            x       y       z     vdW  Elec       q    Type
REMARK                         _______ _______ _______ _____ _____    ______ ____
ROOT
ATOM      1  O   UNL     1      -3.994  -0.648  26.377  0.00  0.00    -0.275 OA
ATOM      5  N   UNL     1      -4.358   0.989  24.762  0.00  0.00    -0.301 N 
ATOM      8  C   UNL     1      -3.538   2.788  23.259  0.00  0.00    +0.012 C 
ATOM      9  C   UNL     1      -4.160   3.827  24.228  0.00  0.00    +0.006 C 
ATOM     10  C   UNL     1      -4.296   1.453  23.371  0.00  0.00    +0.111 C 
ATOM     11  C   UNL     1      -4.250   3.280  25.664  0.00  0.00    +0.023 C 
ATOM     12  C   UNL     1      -4.966   1.932  25.699  0.00  0.00    +0.108 C 
ATOM     16  C   UNL     1      -3.916  -0.257  25.215  0.00  0.00    +0.219 C 
ENDROOT
BRANCH  16  14
ATOM     14  C   UNL     1      -3.301  -1.178  24.206  0.00  0.00    +0.075 C 
ATOM     17  C   UNL     1      -4.390  -1.979  23.484  0.00  0.00    +0.013 C 
ATOM     18  C   UNL     1      -2.397  -2.204  24.892  0.00  0.00    +0.013 C 
ATOM     20  C   UNL     1      -4.029  -3.447  23.687  0.00  0.00    +0.001 C 
ATOM     21  C   UNL     1      -3.250  -3.462  24.988  0.00  0.00    +0.001 C 
ENDBRANCH  16  14
BRANCH   8  13
ATOM     13  C   UNL     1      -2.034   2.566  23.464  0.00  0.00    +0.024 C 
BRANCH  13  19
ATOM     19  C   UNL     1      -1.567   1.226  22.920  0.00  0.00    +0.105 C 
BRANCH  19   6
ATOM      6  N   UNL     1      -0.536   0.661  23.758  0.00  0.00    -0.329 N 
BRANCH   6  25
ATOM     25  C   UNL     1      -0.265   1.179  25.032  0.00  0.00    +0.030 A 
ATOM     28  C   UNL     1      -0.626   0.458  26.170  0.00  0.00    +0.023 A 
ATOM     29  C   UNL     1       0.367   2.416  25.162  0.00  0.00    +0.023 A 
ATOM     32  C   UNL     1      -0.355   0.973  27.438  0.00  0.00    +0.002 A 
ATOM     33  C   UNL     1       0.638   2.932  26.429  0.00  0.00    +0.002 A 
ATOM     34  C   UNL     1       0.276   2.210  27.567  0.00  0.00    +0.000 A 
ENDBRANCH   6  25
BRANCH   6  23
ATOM     23  C   UNL     1       0.238  -0.472  23.248  0.00  0.00    +0.120 C 
BRANCH  23  24
ATOM     24  C   UNL     1       1.381   0.039  22.379  0.00  0.00    +0.103 C 
BRANCH  24   7
ATOM      4  O   UNL     1       5.435  -0.434  23.354  0.00  0.00    -0.377 OA
ATOM      7  N   UNL     1       2.635   0.024  23.129  0.00  0.00    -0.297 NA
ATOM     26  C   UNL     1       3.615   0.939  22.525  0.00  0.00    +0.112 C 
ATOM     27  C   UNL     1       3.188  -1.335  23.193  0.00  0.00    +0.112 C 
ATOM     30  C   UNL     1       4.919   0.896  23.316  0.00  0.00    +0.175 C 
ATOM     31  C   UNL     1       4.502  -1.324  23.970  0.00  0.00    +0.175 C 
ENDBRANCH  24   7
ENDBRANCH  23  24
ENDBRANCH   6  23
ENDBRANCH  19   6
ENDBRANCH  13  19
ENDBRANCH   8  13
BRANCH   9  15
ATOM     15  C   UNL     1      -3.435   5.173  24.210  0.00  0.00    +0.124 C 
BRANCH  15  22
ATOM      3  O   UNL     1      -1.138   5.638  24.882  0.00  0.00    -0.251 OA
ATOM     22  C   UNL     1      -2.242   5.173  25.125  0.00  0.00    +0.305 C 
BRANCH  22   2
ATOM      2  O   UNL     1      -2.564   4.568  26.297  0.00  0.00    -0.481 OA
ATOM     35  H   UNL     1      -2.977   3.689  26.154  0.00  0.00    +0.295 HD
ENDBRANCH  22   2
ENDBRANCH  15  22
ENDBRANCH   9  15
TORSDOF 11
ENDMDL
MODEL 3
REMARK VINA RESULT:       0.3      1.875      4.308
REMARK  Name = 28960185
REMARK  11 active torsions:
REMARK  status: ('A' for Active; 'I' for Inactive)
REMARK    1  A    between atoms: O_2  and  C_22
REMARK    2  A    between atoms: N_6  and  C_19
REMARK    3  A    between atoms: N_6  and  C_23
REMARK    4  A    between atoms: N_6  and  C_25
REMARK    5  A    between atoms: N_7  and  C_24
REMARK    6  A    between atoms: C_8  and  C_13
REMARK    7  A    between atoms: C_9  and  C_15
REMARK    8  A    between atoms: C_13  and  C_19
REMARK    9  A    between atoms: C_14  and  C_16
REMARK   10  A    between atoms: C_15  and  C_22
REMARK   11  A    between atoms: C_23  and  C_24
REMARK                            x       y       z     vdW  Elec       q    Type
REMARK                         _______ _______ _______ _____ _____    ______ ____
ROOT
ATOM      1  O   UNL     1      -6.374   1.211  24.231  0.00  0.00    -0.275 OA
ATOM      5  N   UNL     1      -4.657   0.026  25.266  0.00  0.00    -0.301 N 
ATOM      8  C   UNL     1      -2.259  -0.576  25.502  0.00  0.00    +0.012 C 
ATOM      9  C   UNL     1      -2.571  -1.931  24.817  0.00  0.00    +0.006 C 
ATOM     10  C   UNL     1      -3.524  -0.039  26.196  0.00  0.00    +0.111 C 
ATOM     11  C   UNL     1      -3.795  -1.828  23.889  0.00  0.00    +0.023 C 
ATOM     12  C   UNL     1      -4.998  -1.242  24.622  0.00  0.00    +0.108 C 
ATOM     16  C   UNL     1      -5.411   1.171  24.994  0.00  0.00    +0.219 C 
ENDROOT
BRANCH  16  14
ATOM     14  C   UNL     1      -5.009   2.439  25.683  0.00  0.00    +0.075 C 
ATOM     17  C   UNL     1      -6.186   3.420  25.719  0.00  0.00    +0.013 C 
ATOM     18  C   UNL     1      -3.890   3.140  24.912  0.00  0.00    +0.013 C 
ATOM     20  C   UNL     1      -5.682   4.698  25.058  0.00  0.00    +0.001 C 
ATOM     21  C   UNL     1      -4.597   4.223  24.109  0.00  0.00    +0.001 C 
ENDBRANCH  16  14
BRANCH   8  13
ATOM     13  C   UNL     1      -1.681   0.484  24.555  0.00  0.00    +0.024 C 
BRANCH  13  19
ATOM     19  C   UNL     1      -0.204   0.262  24.269  0.00  0.00    +0.105 C 
BRANCH  19   6
ATOM      6  N   UNL     1       0.476   1.520  24.071  0.00  0.00    -0.329 N 
BRANCH   6  25
ATOM     25  C   UNL     1      -0.099   2.733  24.472  0.00  0.00    +0.030 A 
ATOM     28  C   UNL     1      -0.161   3.805  23.580  0.00  0.00    +0.023 A 
ATOM     29  C   UNL     1      -0.610   2.870  25.762  0.00  0.00    +0.023 A 
ATOM     32  C   UNL     1      -0.734   5.012  23.980  0.00  0.00    +0.002 A 
ATOM     33  C   UNL     1      -1.182   4.077  26.162  0.00  0.00    +0.002 A 
ATOM     34  C   UNL     1      -1.245   5.148  25.271  0.00  0.00    +0.000 A 
ENDBRANCH   6  25
BRANCH   6  23
ATOM     23  C   UNL     1       1.791   1.510  23.428  0.00  0.00    +0.120 C 
BRANCH  23  24
ATOM     24  C   UNL     1       1.962   0.221  22.633  0.00  0.00    +0.103 C 
BRANCH  24   7
ATOM      4  O   UNL     1       5.708  -0.767  24.247  0.00  0.00    -0.377 OA
ATOM      7  N   UNL     1       3.330  -0.278  22.761  0.00  0.00    -0.297 NA
ATOM     26  C   UNL     1       3.402  -1.349  23.765  0.00  0.00    +0.112 C 
ATOM     27  C   UNL     1       4.250   0.810  23.120  0.00  0.00    +0.112 C 
ATOM     30  C   UNL     1       4.840  -1.844  23.892  0.00  0.00    +0.175 C 
ATOM     31  C   UNL     1       5.668   0.264  23.259  0.00  0.00    +0.175 C 
ENDBRANCH  24   7
ENDBRANCH  23  24
ENDBRANCH   6  23
ENDBRANCH  19   6
ENDBRANCH  13  19
ENDBRANCH   8  13
BRANCH   9  15
ATOM     15  C   UNL     1      -1.374  -2.513  24.065  0.00  0.00    +0.124 C 
BRANCH  15  22
ATOM      3  O   UNL     1       0.010  -4.016  25.395  0.00  0.00    -0.251 OA
ATOM     22  C   UNL     1      -0.261  -2.891  25.002  0.00  0.00    +0.305 C 
BRANCH  22   2
ATOM      2  O   UNL     1       0.428  -1.778  25.366  0.00  0.00    -0.481 OA
ATOM     35  H   UNL     1      -0.064  -0.957  25.151  0.00  0.00    +0.295 HD
ENDBRANCH  22   2
ENDBRANCH  15  22
ENDBRANCH   9  15
TORSDOF 11
ENDMDL
MODEL 4
REMARK VINA RESULT:       0.7      1.579      2.255
REMARK  Name = 28960185
REMARK  11 active torsions:
REMARK  status: ('A' for Active; 'I' for Inactive)
REMARK    1  A    between atoms: O_2  and  C_22
REMARK    2  A    between atoms: N_6  and  C_19
REMARK    3  A    between atoms: N_6  and  C_23
REMARK    4  A    between atoms: N_6  and  C_25
REMARK    5  A    between atoms: N_7  and  C_24
REMARK    6  A    between atoms: C_8  and  C_13
REMARK    7  A    between atoms: C_9  and  C_15
REMARK    8  A    between atoms: C_13  and  C_19
REMARK    9  A    between atoms: C_14  and  C_16
REMARK   10  A    between atoms: C_15  and  C_22
REMARK   11  A    between atoms: C_23  and  C_24
REMARK                            x       y       z     vdW  Elec       q    Type
REMARK                         _______ _______ _______ _____ _____    ______ ____
ROOT
ATOM      1  O   UNL     1      -4.419   3.368  24.929  0.00  0.00    -0.275 OA
ATOM      5  N   UNL     1      -2.213   3.882  25.470  0.00  0.00    -0.301 N 
ATOM      8  C   UNL     1       0.192   3.281  25.613  0.00  0.00    +0.012 C 
ATOM      9  C   UNL     1       0.019   3.113  27.145  0.00  0.00    +0.006 C 
ATOM     10  C   UNL     1      -0.855   4.274  25.077  0.00  0.00    +0.111 C 
ATOM     11  C   UNL     1      -1.430   2.751  27.515  0.00  0.00    +0.023 C 
ATOM     12  C   UNL     1      -2.420   3.743  26.911  0.00  0.00    +0.108 C 
ATOM     16  C   UNL     1      -3.278   3.672  24.589  0.00  0.00    +0.219 C 
ENDROOT
BRANCH  16  14
ATOM     14  C   UNL     1      -3.001   3.828  23.126  0.00  0.00    +0.075 C 
ATOM     17  C   UNL     1      -4.144   3.226  22.301  0.00  0.00    +0.013 C 
ATOM     18  C   UNL     1      -1.738   3.061  22.731  0.00  0.00    +0.013 C 
ATOM     20  C   UNL     1      -3.496   2.199  21.380  0.00  0.00    +0.001 C 
ATOM     21  C   UNL     1      -2.251   1.760  22.129  0.00  0.00    +0.001 C 
ENDBRANCH  16  14
BRANCH   8  13
ATOM     13  C   UNL     1       0.128   1.963  24.830  0.00  0.00    +0.024 C 
BRANCH  13  19
ATOM     19  C   UNL     1      -0.606   0.871  25.591  0.00  0.00    +0.105 C 
BRANCH  19   6
ATOM      6  N   UNL     1      -0.721  -0.325  24.792  0.00  0.00    -0.329 N 
BRANCH   6  25
ATOM     25  C   UNL     1      -1.965  -0.922  24.543  0.00  0.00    +0.030 A 
ATOM     28  C   UNL     1      -2.060  -2.308  24.413  0.00  0.00    +0.023 A 
ATOM     29  C   UNL     1      -3.107  -0.130  24.426  0.00  0.00    +0.023 A 
ATOM     32  C   UNL     1      -3.298  -2.901  24.166  0.00  0.00    +0.002 A 
ATOM     33  C   UNL     1      -4.345  -0.723  24.179  0.00  0.00    +0.002 A 
ATOM     34  C   UNL     1      -4.440  -2.109  24.049  0.00  0.00    +0.000 A 
ENDBRANCH   6  25
BRANCH   6  23
ATOM     23  C   UNL     1       0.499  -0.919  24.242  0.00  0.00    +0.120 C 
BRANCH  23  24
ATOM     24  C   UNL     1       0.899  -0.182  22.970  0.00  0.00    +0.103 C 
BRANCH  24   7
ATOM      4  O   UNL     1       5.034   0.079  23.639  0.00  0.00    -0.377 OA
ATOM      7  N   UNL     1       2.345  -0.261  22.771  0.00  0.00    -0.297 NA
ATOM     26  C   UNL     1       2.958  -1.172  23.748  0.00  0.00    +0.112 C 
ATOM     27  C   UNL     1       2.958   1.071  22.870  0.00  0.00    +0.112 C 
ATOM     30  C   UNL     1       4.467  -1.226  23.529  0.00  0.00    +0.175 C 
ATOM     31  C   UNL     1       4.466   0.962  22.670  0.00  0.00    +0.175 C 
ENDBRANCH  24   7
ENDBRANCH  23  24
ENDBRANCH   6  23
ENDBRANCH  19   6
ENDBRANCH  13  19
ENDBRANCH   8  13
BRANCH   9  15
ATOM     15  C   UNL     1       0.997   2.107  27.753  0.00  0.00    +0.124 C 
BRANCH  15  22
ATOM      3  O   UNL     1       1.137   2.638  30.128  0.00  0.00    -0.251 OA
ATOM     22  C   UNL     1       1.629   2.637  29.010  0.00  0.00    +0.305 C 
BRANCH  22   2
ATOM      2  O   UNL     1       2.862   3.132  28.728  0.00  0.00    -0.481 OA
ATOM     35  H   UNL     1       3.512   2.417  28.552  0.00  0.00    +0.295 HD
ENDBRANCH  22   2
ENDBRANCH  15  22
ENDBRANCH   9  15
TORSDOF 11
ENDMDL
MODEL 5
REMARK VINA RESULT:       1.0      2.212      4.901
REMARK  Name = 28960185
REMARK  11 active torsions:
REMARK  status: ('A' for Active; 'I' for Inactive)
REMARK    1  A    between atoms: O_2  and  C_22
REMARK    2  A    between atoms: N_6  and  C_19
REMARK    3  A    between atoms: N_6  and  C_23
REMARK    4  A    between atoms: N_6  and  C_25
REMARK    5  A    between atoms: N_7  and  C_24
REMARK    6  A    between atoms: C_8  and  C_13
REMARK    7  A    between atoms: C_9  and  C_15
REMARK    8  A    between atoms: C_13  and  C_19
REMARK    9  A    between atoms: C_14  and  C_16
REMARK   10  A    between atoms: C_15  and  C_22
REMARK   11  A    between atoms: C_23  and  C_24
REMARK                            x       y       z     vdW  Elec       q    Type
REMARK                         _______ _______ _______ _____ _____    ______ ____
ROOT
ATOM      1  O   UNL     1      -4.583  -0.942  26.031  0.00  0.00    -0.275 OA
ATOM      5  N   UNL     1      -4.604   0.930  24.646  0.00  0.00    -0.301 N 
ATOM      8  C   UNL     1      -3.544   2.989  23.749  0.00  0.00    +0.012 C 
ATOM      9  C   UNL     1      -4.509   3.823  24.630  0.00  0.00    +0.006 C 
ATOM     10  C   UNL     1      -4.182   1.626  23.425  0.00  0.00    +0.111 C 
ATOM     11  C   UNL     1      -4.964   3.037  25.873  0.00  0.00    +0.023 C 
ATOM     12  C   UNL     1      -5.538   1.677  25.488  0.00  0.00    +0.108 C 
ATOM     16  C   UNL     1      -4.206  -0.357  25.019  0.00  0.00    +0.219 C 
ENDROOT
BRANCH  16  14
ATOM     14  C   UNL     1      -3.246  -1.068  24.116  0.00  0.00    +0.075 C 
ATOM     17  C   UNL     1      -3.644  -2.541  23.971  0.00  0.00    +0.013 C 
ATOM     18  C   UNL     1      -1.837  -1.061  24.712  0.00  0.00    +0.013 C 
ATOM     20  C   UNL     1      -2.419  -3.346  24.392  0.00  0.00    +0.001 C 
ATOM     21  C   UNL     1      -1.687  -2.432  25.358  0.00  0.00    +0.001 C 
ENDBRANCH  16  14
BRANCH   8  13
ATOM     13  C   UNL     1      -2.151   2.794  24.361  0.00  0.00    +0.024 C 
BRANCH  13  19
ATOM     19  C   UNL     1      -1.175   2.153  23.388  0.00  0.00    +0.105 C 
BRANCH  19   6
ATOM      6  N   UNL     1      -0.080   1.530  24.093  0.00  0.00    -0.329 N 
BRANCH   6  25
ATOM     25  C   UNL     1       1.036   1.026  23.411  0.00  0.00    +0.030 A 
ATOM     28  C   UNL     1       2.281   1.634  23.565  0.00  0.00    +0.023 A 
ATOM     29  C   UNL     1       0.901  -0.085  22.578  0.00  0.00    +0.023 A 
ATOM     32  C   UNL     1       3.392   1.132  22.886  0.00  0.00    +0.002 A 
ATOM     33  C   UNL     1       2.010  -0.588  21.900  0.00  0.00    +0.002 A 
ATOM     34  C   UNL     1       3.256   0.021  22.054  0.00  0.00    +0.000 A 
ENDBRANCH   6  25
BRANCH   6  23
ATOM     23  C   UNL     1      -0.157   1.424  25.551  0.00  0.00    +0.120 C 
BRANCH  23  24
ATOM     24  C   UNL     1       0.394   2.694  26.186  0.00  0.00    +0.103 C 
BRANCH  24   7
ATOM      4  O   UNL     1       2.071   3.044  30.017  0.00  0.00    -0.377 OA
ATOM      7  N   UNL     1       1.100   2.378  27.426  0.00  0.00    -0.297 NA
ATOM     26  C   UNL     1       0.197   2.482  28.581  0.00  0.00    +0.112 C 
ATOM     27  C   UNL     1       2.256   3.266  27.609  0.00  0.00    +0.112 C 
ATOM     30  C   UNL     1       0.959   2.161  29.864  0.00  0.00    +0.175 C 
ATOM     31  C   UNL     1       2.970   2.925  28.913  0.00  0.00    +0.175 C 
ENDBRANCH  24   7
ENDBRANCH  23  24
ENDBRANCH   6  23
ENDBRANCH  19   6
ENDBRANCH  13  19
ENDBRANCH   8  13
BRANCH   9  15
ATOM     15  C   UNL     1      -3.932   5.180  25.034  0.00  0.00    +0.124 C 
BRANCH  15  22
ATOM      3  O   UNL     1      -1.522   5.473  25.263  0.00  0.00    -0.251 OA
ATOM     22  C   UNL     1      -2.584   5.038  25.684  0.00  0.00    +0.305 C 
BRANCH  22   2
ATOM      2  O   UNL     1      -2.706   4.339  26.842  0.00  0.00    -0.481 OA
ATOM     35  H   UNL     1      -2.798   3.376  26.680  0.00  0.00    +0.295 HD
ENDBRANCH  22   2
ENDBRANCH  15  22
ENDBRANCH   9  15
TORSDOF 11
ENDMDL
MODEL 6
REMARK VINA RESULT:       1.1      2.127      5.256
REMARK  Name = 28960185
REMARK  11 active torsions:
REMARK  status: ('A' for Active; 'I' for Inactive)
REMARK    1  A    between atoms: O_2  and  C_22
REMARK    2  A    between atoms: N_6  and  C_19
REMARK    3  A    between atoms: N_6  and  C_23
REMARK    4  A    between atoms: N_6  and  C_25
REMARK    5  A    between atoms: N_7  and  C_24
REMARK    6  A    between atoms: C_8  and  C_13
REMARK    7  A    between atoms: C_9  and  C_15
REMARK    8  A    between atoms: C_13  and  C_19
REMARK    9  A    between atoms: C_14  and  C_16
REMARK   10  A    between atoms: C_15  and  C_22
REMARK   11  A    between atoms: C_23  and  C_24
REMARK                            x       y       z     vdW  Elec       q    Type
REMARK                         _______ _______ _______ _____ _____    ______ ____
ROOT
ATOM      1  O   UNL     1      -4.434  -1.293  24.351  0.00  0.00    -0.275 OA
ATOM      5  N   UNL     1      -2.227  -0.663  24.749  0.00  0.00    -0.301 N 
ATOM      8  C   UNL     1      -0.208   0.671  24.192  0.00  0.00    +0.012 C 
ATOM      9  C   UNL     1       0.430  -0.613  23.601  0.00  0.00    +0.006 C 
ATOM     10  C   UNL     1      -1.241   0.291  25.268  0.00  0.00    +0.111 C 
ATOM     11  C   UNL     1      -0.642  -1.605  23.114  0.00  0.00    +0.023 C 
ATOM     12  C   UNL     1      -1.663  -1.899  24.209  0.00  0.00    +0.108 C 
ATOM     16  C   UNL     1      -3.613  -0.478  24.766  0.00  0.00    +0.219 C 
ENDROOT
BRANCH  16  14
ATOM     14  C   UNL     1      -4.128   0.811  25.330  0.00  0.00    +0.075 C 
ATOM     17  C   UNL     1      -5.124   0.535  26.462  0.00  0.00    +0.013 C 
ATOM     18  C   UNL     1      -4.895   1.597  24.266  0.00  0.00    +0.013 C 
ATOM     20  C   UNL     1      -6.409   1.255  26.069  0.00  0.00    +0.001 C 
ATOM     21  C   UNL     1      -6.361   1.301  24.553  0.00  0.00    +0.001 C 
ENDBRANCH  16  14
BRANCH   8  13
ATOM     13  C   UNL     1      -0.845   1.592  23.143  0.00  0.00    +0.024 C 
BRANCH  13  19
ATOM     19  C   UNL     1      -0.411   3.040  23.303  0.00  0.00    +0.105 C 
BRANCH  19   6
ATOM      6  N   UNL     1      -0.761   3.541  24.611  0.00  0.00    -0.329 N 
BRANCH   6  25
ATOM     25  C   UNL     1      -2.083   3.870  24.938  0.00  0.00    +0.030 A 
ATOM     28  C   UNL     1      -2.484   3.905  26.273  0.00  0.00    +0.023 A 
ATOM     29  C   UNL     1      -2.999   4.163  23.927  0.00  0.00    +0.023 A 
ATOM     32  C   UNL     1      -3.800   4.233  26.599  0.00  0.00    +0.002 A 
ATOM     33  C   UNL     1      -4.315   4.491  24.252  0.00  0.00    +0.002 A 
ATOM     34  C   UNL     1      -4.716   4.526  25.587  0.00  0.00    +0.000 A 
ENDBRANCH   6  25
BRANCH   6  23
ATOM     23  C   UNL     1       0.302   3.709  25.602  0.00  0.00    +0.120 C 
BRANCH  23  24
ATOM     24  C   UNL     1       0.331   2.503  26.533  0.00  0.00    +0.103 C 
BRANCH  24   7
ATOM      4  O   UNL     1       2.440   2.286  30.154  0.00  0.00    -0.377 OA
ATOM      7  N   UNL     1       0.918   2.867  27.820  0.00  0.00    -0.297 NA
ATOM     26  C   UNL     1       2.383   2.758  27.775  0.00  0.00    +0.112 C 
ATOM     27  C   UNL     1       0.384   2.020  28.895  0.00  0.00    +0.112 C 
ATOM     30  C   UNL     1       2.972   3.130  29.133  0.00  0.00    +0.175 C 
ATOM     31  C   UNL     1       1.019   2.411  30.226  0.00  0.00    +0.175 C 
ENDBRANCH  24   7
ENDBRANCH  23  24
ENDBRANCH   6  23
ENDBRANCH  19   6
ENDBRANCH  13  19
ENDBRANCH   8  13
BRANCH   9  15
ATOM     15  C   UNL     1       1.440  -0.325  22.490  0.00  0.00    +0.124 C 
BRANCH  15  22
ATOM      3  O   UNL     1       3.255   1.171  23.131  0.00  0.00    -0.251 OA
ATOM     22  C   UNL     1       2.786   0.045  23.047  0.00  0.00    +0.305 C 
BRANCH  22   2
ATOM      2  O   UNL     1       3.435  -1.075  23.458  0.00  0.00    -0.481 OA
ATOM     35  H   UNL     1       4.316  -0.869  23.837  0.00  0.00    +0.295 HD
ENDBRANCH  22   2
ENDBRANCH  15  22
ENDBRANCH   9  15
TORSDOF 11
ENDMDL
MODEL 7
REMARK VINA RESULT:       1.2      2.123      4.477
REMARK  Name = 28960185
REMARK  11 active torsions:
REMARK  status: ('A' for Active; 'I' for Inactive)
REMARK    1  A    between atoms: O_2  and  C_22
REMARK    2  A    between atoms: N_6  and  C_19
REMARK    3  A    between atoms: N_6  and  C_23
REMARK    4  A    between atoms: N_6  and  C_25
REMARK    5  A    between atoms: N_7  and  C_24
REMARK    6  A    between atoms: C_8  and  C_13
REMARK    7  A    between atoms: C_9  and  C_15
REMARK    8  A    between atoms: C_13  and  C_19
REMARK    9  A    between atoms: C_14  and  C_16
REMARK   10  A    between atoms: C_15  and  C_22
REMARK   11  A    between atoms: C_23  and  C_24
REMARK                            x       y       z     vdW  Elec       q    Type
REMARK                         _______ _______ _______ _____ _____    ______ ____
ROOT
ATOM      1  O   UNL     1      -4.725   2.692  23.559  0.00  0.00    -0.275 OA
ATOM      5  N   UNL     1      -4.600   0.658  24.687  0.00  0.00    -0.301 N 
ATOM      8  C   UNL     1      -3.339  -1.035  25.995  0.00  0.00    +0.012 C 
ATOM      9  C   UNL     1      -3.275  -1.916  24.720  0.00  0.00    +0.006 C 
ATOM     10  C   UNL     1      -4.573  -0.117  25.932  0.00  0.00    +0.111 C 
ATOM     11  C   UNL     1      -3.356  -1.066  23.440  0.00  0.00    +0.023 C 
ATOM     12  C   UNL     1      -4.571  -0.142  23.463  0.00  0.00    +0.108 C 
ATOM     16  C   UNL     1      -4.678   2.051  24.607  0.00  0.00    +0.219 C 
ENDROOT
BRANCH  16  14
ATOM     14  C   UNL     1      -4.702   2.814  25.896  0.00  0.00    +0.075 C 
ATOM     17  C   UNL     1      -5.548   4.084  25.747  0.00  0.00    +0.013 C 
ATOM     18  C   UNL     1      -3.295   3.278  26.275  0.00  0.00    +0.013 C 
ATOM     20  C   UNL     1      -4.635   5.239  26.141  0.00  0.00    +0.001 C 
ATOM     21  C   UNL     1      -3.238   4.733  25.831  0.00  0.00    +0.001 C 
ENDBRANCH  16  14
BRANCH   8  13
ATOM     13  C   UNL     1      -2.072  -0.208  26.245  0.00  0.00    +0.024 C 
BRANCH  13  19
ATOM     19  C   UNL     1      -0.821  -0.887  25.713  0.00  0.00    +0.105 C 
BRANCH  19   6
ATOM      6  N   UNL     1      -0.232  -0.117  24.644  0.00  0.00    -0.329 N 
BRANCH   6  25
ATOM     25  C   UNL     1      -0.370   1.276  24.585  0.00  0.00    +0.030 A 
ATOM     28  C   UNL     1      -1.108   1.862  23.556  0.00  0.00    +0.023 A 
ATOM     29  C   UNL     1       0.231   2.078  25.555  0.00  0.00    +0.023 A 
ATOM     32  C   UNL     1      -1.246   3.249  23.498  0.00  0.00    +0.002 A 
ATOM     33  C   UNL     1       0.094   3.465  25.497  0.00  0.00    +0.002 A 
ATOM     34  C   UNL     1      -0.644   4.050  24.469  0.00  0.00    +0.000 A 
ENDBRANCH   6  25
BRANCH   6  23
ATOM     23  C   UNL     1       0.516  -0.824  23.602  0.00  0.00    +0.120 C 
BRANCH  23  24
ATOM     24  C   UNL     1       1.324   0.177  22.785  0.00  0.00    +0.103 C 
BRANCH  24   7
ATOM      4  O   UNL     1       5.312  -0.430  23.945  0.00  0.00    -0.377 OA
ATOM      7  N   UNL     1       2.734  -0.209  22.759  0.00  0.00    -0.297 NA
ATOM     26  C   UNL     1       3.020  -1.211  23.795  0.00  0.00    +0.112 C 
ATOM     27  C   UNL     1       3.599   0.965  22.942  0.00  0.00    +0.112 C 
ATOM     30  C   UNL     1       4.498  -1.588  23.757  0.00  0.00    +0.175 C 
ATOM     31  C   UNL     1       5.063   0.537  22.922  0.00  0.00    +0.175 C 
ENDBRANCH  24   7
ENDBRANCH  23  24
ENDBRANCH   6  23
ENDBRANCH  19   6
ENDBRANCH  13  19
ENDBRANCH   8  13
BRANCH   9  15
ATOM     15  C   UNL     1      -2.050  -2.830  24.682  0.00  0.00    +0.124 C 
BRANCH  15  22
ATOM      3  O   UNL     1      -1.130  -3.975  22.737  0.00  0.00    -0.251 OA
ATOM     22  C   UNL     1      -2.069  -3.733  23.480  0.00  0.00    +0.305 C 
BRANCH  22   2
ATOM      2  O   UNL     1      -3.310  -4.262  23.325  0.00  0.00    -0.481 OA
ATOM     35  H   UNL     1      -3.287  -5.242  23.282  0.00  0.00    +0.295 HD
ENDBRANCH  22   2
ENDBRANCH  15  22
ENDBRANCH   9  15
TORSDOF 11
ENDMDL
MODEL 8
REMARK VINA RESULT:       1.3      2.027      3.838
REMARK  Name = 28960185
REMARK  11 active torsions:
REMARK  status: ('A' for Active; 'I' for Inactive)
REMARK    1  A    between atoms: O_2  and  C_22
REMARK    2  A    between atoms: N_6  and  C_19
REMARK    3  A    between atoms: N_6  and  C_23
REMARK    4  A    between atoms: N_6  and  C_25
REMARK    5  A    between atoms: N_7  and  C_24
REMARK    6  A    between atoms: C_8  and  C_13
REMARK    7  A    between atoms: C_9  and  C_15
REMARK    8  A    between atoms: C_13  and  C_19
REMARK    9  A    between atoms: C_14  and  C_16
REMARK   10  A    between atoms: C_15  and  C_22
REMARK   11  A    between atoms: C_23  and  C_24
REMARK                            x       y       z     vdW  Elec       q    Type
REMARK                         _______ _______ _______ _____ _____    ______ ____
ROOT
ATOM      1  O   UNL     1      -5.762   4.710  25.390  0.00  0.00    -0.275 OA
ATOM      5  N   UNL     1      -4.542   2.737  25.592  0.00  0.00    -0.301 N 
ATOM      8  C   UNL     1      -3.050   0.991  24.648  0.00  0.00    +0.012 C 
ATOM      9  C   UNL     1      -4.274   0.042  24.568  0.00  0.00    +0.006 C 
ATOM     10  C   UNL     1      -3.268   2.029  25.763  0.00  0.00    +0.111 C 
ATOM     11  C   UNL     1      -5.592   0.828  24.440  0.00  0.00    +0.023 C 
ATOM     12  C   UNL     1      -5.722   1.875  25.542  0.00  0.00    +0.108 C 
ATOM     16  C   UNL     1      -4.688   4.124  25.508  0.00  0.00    +0.219 C 
ENDROOT
BRANCH  16  14
ATOM     14  C   UNL     1      -3.441   4.952  25.563  0.00  0.00    +0.075 C 
ATOM     17  C   UNL     1      -2.610   4.746  24.292  0.00  0.00    +0.013 C 
ATOM     18  C   UNL     1      -2.555   4.516  26.731  0.00  0.00    +0.013 C 
ATOM     20  C   UNL     1      -1.233   4.292  24.765  0.00  0.00    +0.001 C 
ATOM     21  C   UNL     1      -1.501   3.617  26.097  0.00  0.00    +0.001 C 
ENDBRANCH  16  14
BRANCH   8  13
ATOM     13  C   UNL     1      -2.716   1.691  23.325  0.00  0.00    +0.024 C 
BRANCH  13  19
ATOM     19  C   UNL     1      -1.549   1.038  22.602  0.00  0.00    +0.105 C 
BRANCH  19   6
ATOM      6  N   UNL     1      -0.488   0.714  23.525  0.00  0.00    -0.329 N 
BRANCH   6  25
ATOM     25  C   UNL     1      -0.614  -0.335  24.446  0.00  0.00    +0.030 A 
ATOM     28  C   UNL     1      -0.540  -1.658  24.011  0.00  0.00    +0.023 A 
ATOM     29  C   UNL     1      -0.814  -0.055  25.797  0.00  0.00    +0.023 A 
ATOM     32  C   UNL     1      -0.666  -2.702  24.927  0.00  0.00    +0.002 A 
ATOM     33  C   UNL     1      -0.940  -1.099  26.714  0.00  0.00    +0.002 A 
ATOM     34  C   UNL     1      -0.866  -2.422  26.279  0.00  0.00    +0.000 A 
ENDBRANCH   6  25
BRANCH   6  23
ATOM     23  C   UNL     1       0.738   1.514  23.490  0.00  0.00    +0.120 C 
BRANCH  23  24
ATOM     24  C   UNL     1       1.750   0.859  22.559  0.00  0.00    +0.103 C 
BRANCH  24   7
ATOM      4  O   UNL     1       5.525  -0.723  23.488  0.00  0.00    -0.377 OA
ATOM      7  N   UNL     1       2.931   0.436  23.309  0.00  0.00    -0.297 NA
ATOM     26  C   UNL     1       4.128   1.154  22.847  0.00  0.00    +0.112 C 
ATOM     27  C   UNL     1       3.136  -1.014  23.185  0.00  0.00    +0.112 C 
ATOM     30  C   UNL     1       5.348   0.686  23.634  0.00  0.00    +0.175 C 
ATOM     31  C   UNL     1       4.379  -1.430  23.966  0.00  0.00    +0.175 C 
ENDBRANCH  24   7
ENDBRANCH  23  24
ENDBRANCH   6  23
ENDBRANCH  19   6
ENDBRANCH  13  19
ENDBRANCH   8  13
BRANCH   9  15
ATOM     15  C   UNL     1      -4.157  -0.997  23.453  0.00  0.00    +0.124 C 
BRANCH  15  22
ATOM      3  O   UNL     1      -3.788  -2.735  25.123  0.00  0.00    -0.251 OA
ATOM     22  C   UNL     1      -4.134  -2.397  24.001  0.00  0.00    +0.305 C 
BRANCH  22   2
ATOM      2  O   UNL     1      -4.563  -3.267  23.050  0.00  0.00    -0.481 OA
ATOM     35  H   UNL     1      -5.519  -3.469  23.143  0.00  0.00    +0.295 HD
ENDBRANCH  22   2
ENDBRANCH  15  22
ENDBRANCH   9  15
TORSDOF 11
ENDMDL
