MODEL 1
REMARK VINA RESULT:      -5.0      0.000      0.000
REMARK  Name = 45784229
REMARK  3 active torsions:
REMARK  status: ('A' for Active; 'I' for Inactive)
REMARK    1  A    between atoms: N_3  and  C_11
REMARK    2  A    between atoms: C_6  and  C_10
REMARK    3  A    between atoms: C_11  and  C_12
REMARK                            x       y       z     vdW  Elec       q    Type
REMARK                         _______ _______ _______ _____ _____    ______ ____
ROOT
ATOM      3  N   UNL     1      17.405  -6.605  25.566  0.00  0.00    -0.297 NA
ATOM      6  C   UNL     1      16.836  -7.160  27.771  0.00  0.00    +0.070 C 
ATOM      7  C   UNL     1      17.344  -8.414  27.039  0.00  0.00    +0.028 C 
ATOM      8  C   UNL     1      16.536  -6.152  26.654  0.00  0.00    +0.096 C 
ATOM      9  C   UNL     1      17.275  -8.061  25.559  0.00  0.00    +0.085 C 
ENDROOT
BRANCH   6  10
ATOM      2  F   UNL     1      11.073  -6.621  32.161  0.00  0.00    -0.205 F 
ATOM      4  N   UNL     1      14.931  -6.350  29.190  0.00  0.00    -0.341 N 
ATOM      5  N   UNL     1      15.200  -8.554  29.101  0.00  0.00    -0.232 NA
ATOM     10  C   UNL     1      15.657  -7.393  28.688  0.00  0.00    +0.113 A 
ATOM     13  C   UNL     1      13.938  -6.873  29.979  0.00  0.00    +0.069 A 
ATOM     14  C   UNL     1      14.128  -8.250  29.906  0.00  0.00    +0.089 A 
ATOM     17  C   UNL     1      12.921  -6.277  30.726  0.00  0.00    +0.066 A 
ATOM     18  C   UNL     1      13.261  -9.099  30.616  0.00  0.00    +0.032 A 
ATOM     19  C   UNL     1      12.068  -7.137  31.426  0.00  0.00    +0.125 A 
ATOM     20  C   UNL     1      12.234  -8.523  31.373  0.00  0.00    +0.040 A 
ATOM     24  H   UNL     1      15.092  -5.367  29.013  0.00  0.00    +0.167 HD
ENDBRANCH   6  10
BRANCH   3  11
ATOM     11  C   UNL     1      17.048  -6.010  24.286  0.00  0.00    +0.119 C 
BRANCH  11  12
ATOM      1 CL   UNL     1      16.939   0.000  24.559  0.00  0.00    -0.084 Cl
ATOM     12  C   UNL     1      17.021  -4.505  24.356  0.00  0.00    -0.033 A 
ATOM     15  C   UNL     1      16.693  -3.761  23.221  0.00  0.00    +0.006 A 
ATOM     16  C   UNL     1      17.325  -3.856  25.552  0.00  0.00    +0.006 A 
ATOM     21  C   UNL     1      16.669  -2.369  23.284  0.00  0.00    +0.020 A 
ATOM     22  C   UNL     1      17.300  -2.463  25.614  0.00  0.00    +0.020 A 
ATOM     23  C   UNL     1      16.973  -1.719  24.481  0.00  0.00    +0.041 A 
ENDBRANCH  11  12
ENDBRANCH   3  11
TORSDOF 3
ENDMDL
MODEL 2
REMARK VINA RESULT:      -4.3      2.531      3.042
REMARK  Name = 45784229
REMARK  3 active torsions:
REMARK  status: ('A' for Active; 'I' for Inactive)
REMARK    1  A    between atoms: N_3  and  C_11
REMARK    2  A    between atoms: C_6  and  C_10
REMARK    3  A    between atoms: C_11  and  C_12
REMARK                            x       y       z     vdW  Elec       q    Type
REMARK                         _______ _______ _______ _____ _____    ______ ____
ROOT
ATOM      3  N   UNL     1      16.965  -7.834  25.649  0.00  0.00    -0.297 NA
ATOM      6  C   UNL     1      16.478  -7.523  27.920  0.00  0.00    +0.070 C 
ATOM      7  C   UNL     1      15.274  -8.178  27.221  0.00  0.00    +0.028 C 
ATOM      8  C   UNL     1      17.345  -6.982  26.776  0.00  0.00    +0.096 C 
ATOM      9  C   UNL     1      15.509  -7.946  25.733  0.00  0.00    +0.085 C 
ENDROOT
BRANCH   6  10
ATOM      2  F   UNL     1      16.094  -1.667  32.202  0.00  0.00    -0.205 F 
ATOM      4  N   UNL     1      16.862  -5.325  29.070  0.00  0.00    -0.341 N 
ATOM      5  N   UNL     1      15.120  -6.502  29.791  0.00  0.00    -0.232 NA
ATOM     10  C   UNL     1      16.123  -6.467  28.942  0.00  0.00    +0.113 A 
ATOM     13  C   UNL     1      16.298  -4.571  30.068  0.00  0.00    +0.069 A 
ATOM     14  C   UNL     1      15.213  -5.328  30.502  0.00  0.00    +0.089 A 
ATOM     17  C   UNL     1      16.635  -3.331  30.611  0.00  0.00    +0.066 A 
ATOM     18  C   UNL     1      14.404  -4.832  31.539  0.00  0.00    +0.032 A 
ATOM     19  C   UNL     1      15.819  -2.853  31.642  0.00  0.00    +0.125 A 
ATOM     20  C   UNL     1      14.723  -3.590  32.100  0.00  0.00    +0.040 A 
ATOM     24  H   UNL     1      17.678  -5.075  28.527  0.00  0.00    +0.167 HD
ENDBRANCH   6  10
BRANCH   3  11
ATOM     11  C   UNL     1      17.405  -7.292  24.371  0.00  0.00    +0.119 C 
BRANCH  11  12
ATOM      1 CL   UNL     1      16.975  -1.293  24.210  0.00  0.00    -0.084 Cl
ATOM     12  C   UNL     1      17.298  -5.791  24.332  0.00  0.00    -0.033 A 
ATOM     15  C   UNL     1      17.167  -5.133  23.107  0.00  0.00    +0.006 A 
ATOM     16  C   UNL     1      17.331  -5.057  25.517  0.00  0.00    +0.006 A 
ATOM     21  C   UNL     1      17.068  -3.743  23.070  0.00  0.00    +0.020 A 
ATOM     22  C   UNL     1      17.232  -3.666  25.479  0.00  0.00    +0.020 A 
ATOM     23  C   UNL     1      17.101  -3.009  24.256  0.00  0.00    +0.041 A 
ENDBRANCH  11  12
ENDBRANCH   3  11
TORSDOF 3
ENDMDL
MODEL 3
REMARK VINA RESULT:      -4.1     17.233     18.483
REMARK  Name = 45784229
REMARK  3 active torsions:
REMARK  status: ('A' for Active; 'I' for Inactive)
REMARK    1  A    between atoms: N_3  and  C_11
REMARK    2  A    between atoms: C_6  and  C_10
REMARK    3  A    between atoms: C_11  and  C_12
REMARK                            x       y       z     vdW  Elec       q    Type
REMARK                         _______ _______ _______ _____ _____    ______ ____
ROOT
ATOM      3  N   UNL     1       0.487  -0.578  23.741  0.00  0.00    -0.297 NA
ATOM      6  C   UNL     1      -1.280   0.009  25.164  0.00  0.00    +0.070 C 
ATOM      7  C   UNL     1      -1.454  -1.448  24.702  0.00  0.00    +0.028 C 
ATOM      8  C   UNL     1      -0.247   0.603  24.198  0.00  0.00    +0.096 C 
ATOM      9  C   UNL     1      -0.540  -1.589  23.491  0.00  0.00    +0.085 C 
ENDROOT
BRANCH   6  10
ATOM      2  F   UNL     1      -6.386   5.160  25.583  0.00  0.00    -0.205 F 
ATOM      4  N   UNL     1      -2.538   2.174  25.345  0.00  0.00    -0.341 N 
ATOM      5  N   UNL     1      -3.786   0.342  25.181  0.00  0.00    -0.232 NA
ATOM     10  C   UNL     1      -2.559   0.812  25.228  0.00  0.00    +0.113 A 
ATOM     13  C   UNL     1      -3.838   2.612  25.377  0.00  0.00    +0.069 A 
ATOM     14  C   UNL     1      -4.597   1.449  25.272  0.00  0.00    +0.089 A 
ATOM     17  C   UNL     1      -4.396   3.886  25.483  0.00  0.00    +0.066 A 
ATOM     18  C   UNL     1      -5.999   1.545  25.273  0.00  0.00    +0.032 A 
ATOM     19  C   UNL     1      -5.793   3.962  25.483  0.00  0.00    +0.125 A 
ATOM     20  C   UNL     1      -6.582   2.813  25.380  0.00  0.00    +0.040 A 
ATOM     24  H   UNL     1      -1.714   2.758  25.400  0.00  0.00    +0.167 HD
ENDBRANCH   6  10
BRANCH   3  11
ATOM     11  C   UNL     1       1.296  -0.306  22.561  0.00  0.00    +0.119 C 
BRANCH  11  12
ATOM      1 CL   UNL     1       7.157  -0.006  23.888  0.00  0.00    -0.084 Cl
ATOM     12  C   UNL     1       2.763  -0.230  22.893  0.00  0.00    -0.033 A 
ATOM     15  C   UNL     1       3.398  -1.316  23.498  0.00  0.00    +0.006 A 
ATOM     16  C   UNL     1       3.487   0.926  22.598  0.00  0.00    +0.006 A 
ATOM     21  C   UNL     1       4.756  -1.246  23.806  0.00  0.00    +0.020 A 
ATOM     22  C   UNL     1       4.845   0.995  22.906  0.00  0.00    +0.020 A 
ATOM     23  C   UNL     1       5.480  -0.091  23.511  0.00  0.00    +0.041 A 
ENDBRANCH  11  12
ENDBRANCH   3  11
TORSDOF 3
ENDMDL
MODEL 4
REMARK VINA RESULT:      -3.2     16.657     18.435
REMARK  Name = 45784229
REMARK  3 active torsions:
REMARK  status: ('A' for Active; 'I' for Inactive)
REMARK    1  A    between atoms: N_3  and  C_11
REMARK    2  A    between atoms: C_6  and  C_10
REMARK    3  A    between atoms: C_11  and  C_12
REMARK                            x       y       z     vdW  Elec       q    Type
REMARK                         _______ _______ _______ _____ _____    ______ ____
ROOT
ATOM      3  N   UNL     1      -3.104  -0.535  24.653  0.00  0.00    -0.297 NA
ATOM      6  C   UNL     1      -1.007  -1.200  23.844  0.00  0.00    +0.070 C 
ATOM      7  C   UNL     1      -1.250  -1.834  25.225  0.00  0.00    +0.028 C 
ATOM      8  C   UNL     1      -2.054  -0.084  23.738  0.00  0.00    +0.096 C 
ATOM      9  C   UNL     1      -2.393  -1.028  25.832  0.00  0.00    +0.085 C 
ENDROOT
BRANCH   6  10
ATOM      2  F   UNL     1       6.187  -0.343  23.308  0.00  0.00    -0.205 F 
ATOM      4  N   UNL     1       1.485  -1.495  23.897  0.00  0.00    -0.341 N 
ATOM      5  N   UNL     1       0.760   0.460  23.129  0.00  0.00    -0.232 NA
ATOM     10  C   UNL     1       0.404  -0.710  23.610  0.00  0.00    +0.113 A 
ATOM     13  C   UNL     1       2.615  -0.784  23.581  0.00  0.00    +0.069 A 
ATOM     14  C   UNL     1       2.134   0.433  23.103  0.00  0.00    +0.089 A 
ATOM     17  C   UNL     1       3.973  -1.091  23.668  0.00  0.00    +0.066 A 
ATOM     18  C   UNL     1       3.050   1.413  22.684  0.00  0.00    +0.032 A 
ATOM     19  C   UNL     1       4.870  -0.104  23.247  0.00  0.00    +0.125 A 
ATOM     20  C   UNL     1       4.419   1.127  22.764  0.00  0.00    +0.040 A 
ATOM     24  H   UNL     1       1.462  -2.433  24.275  0.00  0.00    +0.167 HD
ENDBRANCH   6  10
BRANCH   3  11
ATOM     11  C   UNL     1      -4.049   0.524  24.978  0.00  0.00    +0.119 C 
BRANCH  11  12
ATOM      1 CL   UNL     1      -1.412   5.932  25.035  0.00  0.00    -0.084 Cl
ATOM     12  C   UNL     1      -3.390   1.878  24.992  0.00  0.00    -0.033 A 
ATOM     15  C   UNL     1      -2.179   2.056  25.662  0.00  0.00    +0.006 A 
ATOM     16  C   UNL     1      -3.990   2.953  24.337  0.00  0.00    +0.006 A 
ATOM     21  C   UNL     1      -1.568   3.310  25.676  0.00  0.00    +0.020 A 
ATOM     22  C   UNL     1      -3.378   4.207  24.350  0.00  0.00    +0.020 A 
ATOM     23  C   UNL     1      -2.168   4.385  25.021  0.00  0.00    +0.041 A 
ENDBRANCH  11  12
ENDBRANCH   3  11
TORSDOF 3
ENDMDL
MODEL 5
REMARK VINA RESULT:      -1.8     17.415     19.498
REMARK  Name = 45784229
REMARK  3 active torsions:
REMARK  status: ('A' for Active; 'I' for Inactive)
REMARK    1  A    between atoms: N_3  and  C_11
REMARK    2  A    between atoms: C_6  and  C_10
REMARK    3  A    between atoms: C_11  and  C_12
REMARK                            x       y       z     vdW  Elec       q    Type
REMARK                         _______ _______ _______ _____ _____    ______ ____
ROOT
ATOM      3  N   UNL     1      -3.481   2.173  25.380  0.00  0.00    -0.297 NA
ATOM      6  C   UNL     1      -1.217   2.440  24.833  0.00  0.00    +0.070 C 
ATOM      7  C   UNL     1      -2.072   3.371  23.954  0.00  0.00    +0.028 C 
ATOM      8  C   UNL     1      -2.216   1.438  25.425  0.00  0.00    +0.096 C 
ATOM      9  C   UNL     1      -3.492   2.829  24.072  0.00  0.00    +0.085 C 
ENDROOT
BRANCH   6  10
ATOM      2  F   UNL     1       5.239   0.309  22.274  0.00  0.00    -0.205 F 
ATOM      4  N   UNL     1       1.227   2.161  24.338  0.00  0.00    -0.341 N 
ATOM      5  N   UNL     1      -0.142   0.794  23.244  0.00  0.00    -0.232 NA
ATOM     10  C   UNL     1      -0.065   1.774  24.118  0.00  0.00    +0.113 A 
ATOM     13  C   UNL     1       2.038   1.379  23.554  0.00  0.00    +0.069 A 
ATOM     14  C   UNL     1       1.158   0.534  22.882  0.00  0.00    +0.089 A 
ATOM     17  C   UNL     1       3.422   1.340  23.382  0.00  0.00    +0.066 A 
ATOM     18  C   UNL     1       1.674  -0.412  21.979  0.00  0.00    +0.032 A 
ATOM     19  C   UNL     1       3.917   0.392  22.480  0.00  0.00    +0.125 A 
ATOM     20  C   UNL     1       3.060  -0.469  21.790  0.00  0.00    +0.040 A 
ATOM     24  H   UNL     1       1.535   2.892  24.965  0.00  0.00    +0.167 HD
ENDBRANCH   6  10
BRANCH   3  11
ATOM     11  C   UNL     1      -4.634   1.306  25.574  0.00  0.00    +0.119 C 
BRANCH  11  12
ATOM      1 CL   UNL     1      -3.471  -4.366  23.940  0.00  0.00    -0.084 Cl
ATOM     12  C   UNL     1      -4.343  -0.114  25.167  0.00  0.00    -0.033 A 
ATOM     15  C   UNL     1      -4.757  -0.579  23.917  0.00  0.00    +0.006 A 
ATOM     16  C   UNL     1      -3.661  -0.965  26.037  0.00  0.00    +0.006 A 
ATOM     21  C   UNL     1      -4.488  -1.894  23.539  0.00  0.00    +0.020 A 
ATOM     22  C   UNL     1      -3.392  -2.280  25.657  0.00  0.00    +0.020 A 
ATOM     23  C   UNL     1      -3.806  -2.744  24.409  0.00  0.00    +0.041 A 
ENDBRANCH  11  12
ENDBRANCH   3  11
TORSDOF 3
ENDMDL
MODEL 6
REMARK VINA RESULT:      -1.6     18.564     20.027
REMARK  Name = 45784229
REMARK  3 active torsions:
REMARK  status: ('A' for Active; 'I' for Inactive)
REMARK    1  A    between atoms: N_3  and  C_11
REMARK    2  A    between atoms: C_6  and  C_10
REMARK    3  A    between atoms: C_11  and  C_12
REMARK                            x       y       z     vdW  Elec       q    Type
REMARK                         _______ _______ _______ _____ _____    ______ ____
ROOT
ATOM      3  N   UNL     1       0.075   3.472  25.134  0.00  0.00    -0.297 NA
ATOM      6  C   UNL     1      -0.021   1.131  25.092  0.00  0.00    +0.070 C 
ATOM      7  C   UNL     1       0.738   1.637  23.853  0.00  0.00    +0.028 C 
ATOM      8  C   UNL     1      -0.743   2.369  25.638  0.00  0.00    +0.096 C 
ATOM      9  C   UNL     1       0.381   3.114  23.750  0.00  0.00    +0.085 C 
ENDROOT
BRANCH   6  10
ATOM      2  F   UNL     1      -5.575  -3.256  23.455  0.00  0.00    -0.205 F 
ATOM      4  N   UNL     1      -2.235   0.167  24.407  0.00  0.00    -0.341 N 
ATOM      5  N   UNL     1      -0.675  -1.308  24.980  0.00  0.00    -0.232 NA
ATOM     10  C   UNL     1      -0.953  -0.032  24.836  0.00  0.00    +0.113 A 
ATOM     13  C   UNL     1      -2.825  -1.064  24.265  0.00  0.00    +0.069 A 
ATOM     14  C   UNL     1      -1.829  -1.968  24.629  0.00  0.00    +0.089 A 
ATOM     17  C   UNL     1      -4.103  -1.451  23.862  0.00  0.00    +0.066 A 
ATOM     18  C   UNL     1      -2.110  -3.344  24.594  0.00  0.00    +0.032 A 
ATOM     19  C   UNL     1      -4.364  -2.825  23.834  0.00  0.00    +0.125 A 
ATOM     20  C   UNL     1      -3.387  -3.757  24.194  0.00  0.00    +0.040 A 
ATOM     24  H   UNL     1      -2.675   1.059  24.226  0.00  0.00    +0.167 HD
ENDBRANCH   6  10
BRANCH   3  11
ATOM     11  C   UNL     1      -0.601   4.757  25.238  0.00  0.00    +0.119 C 
BRANCH  11  12
ATOM      1 CL   UNL     1      -6.575   4.125  25.567  0.00  0.00    -0.084 Cl
ATOM     12  C   UNL     1      -2.096   4.599  25.319  0.00  0.00    -0.033 A 
ATOM     15  C   UNL     1      -2.717   4.479  26.564  0.00  0.00    +0.006 A 
ATOM     16  C   UNL     1      -2.860   4.571  24.153  0.00  0.00    +0.006 A 
ATOM     21  C   UNL     1      -4.102   4.331  26.640  0.00  0.00    +0.020 A 
ATOM     22  C   UNL     1      -4.245   4.424  24.230  0.00  0.00    +0.020 A 
ATOM     23  C   UNL     1      -4.866   4.303  25.473  0.00  0.00    +0.041 A 
ENDBRANCH  11  12
ENDBRANCH   3  11
TORSDOF 3
ENDMDL
MODEL 7
REMARK VINA RESULT:      -1.1     17.767     19.473
REMARK  Name = 45784229
REMARK  3 active torsions:
REMARK  status: ('A' for Active; 'I' for Inactive)
REMARK    1  A    between atoms: N_3  and  C_11
REMARK    2  A    between atoms: C_6  and  C_10
REMARK    3  A    between atoms: C_11  and  C_12
REMARK                            x       y       z     vdW  Elec       q    Type
REMARK                         _______ _______ _______ _____ _____    ______ ____
ROOT
ATOM      3  N   UNL     1      -4.472   0.111  24.801  0.00  0.00    -0.297 NA
ATOM      6  C   UNL     1      -2.503  -0.933  24.075  0.00  0.00    +0.070 C 
ATOM      7  C   UNL     1      -2.862  -1.435  25.485  0.00  0.00    +0.028 C 
ATOM      8  C   UNL     1      -3.352   0.330  23.883  0.00  0.00    +0.096 C 
ATOM      9  C   UNL     1      -3.864  -0.419  26.021  0.00  0.00    +0.085 C 
ENDROOT
BRANCH   6  10
ATOM      2  F   UNL     1       4.100   1.790  22.749  0.00  0.00    -0.205 F 
ATOM      4  N   UNL     1      -0.546   0.553  23.564  0.00  0.00    -0.341 N 
ATOM      5  N   UNL     1      -0.072  -1.596  23.873  0.00  0.00    -0.232 NA
ATOM     10  C   UNL     1      -1.029  -0.695  23.842  0.00  0.00    +0.113 A 
ATOM     13  C   UNL     1       0.812   0.451  23.406  0.00  0.00    +0.069 A 
ATOM     14  C   UNL     1       1.083  -0.901  23.604  0.00  0.00    +0.089 A 
ATOM     17  C   UNL     1       1.797   1.396  23.116  0.00  0.00    +0.066 A 
ATOM     18  C   UNL     1       2.410  -1.354  23.510  0.00  0.00    +0.032 A 
ATOM     19  C   UNL     1       3.112   0.927  23.026  0.00  0.00    +0.125 A 
ATOM     20  C   UNL     1       3.415  -0.423  23.219  0.00  0.00    +0.040 A 
ATOM     24  H   UNL     1      -1.090   1.403  23.489  0.00  0.00    +0.167 HD
ENDBRANCH   6  10
BRANCH   3  11
ATOM     11  C   UNL     1      -5.234   1.328  25.045  0.00  0.00    +0.119 C 
BRANCH  11  12
ATOM      1 CL   UNL     1      -1.721   6.212  25.034  0.00  0.00    -0.084 Cl
ATOM     12  C   UNL     1      -4.354   2.550  25.043  0.00  0.00    -0.033 A 
ATOM     15  C   UNL     1      -3.979   3.137  23.834  0.00  0.00    +0.006 A 
ATOM     16  C   UNL     1      -3.914   3.095  26.249  0.00  0.00    +0.006 A 
ATOM     21  C   UNL     1      -3.165   4.268  23.831  0.00  0.00    +0.020 A 
ATOM     22  C   UNL     1      -3.099   4.227  26.246  0.00  0.00    +0.020 A 
ATOM     23  C   UNL     1      -2.724   4.813  25.037  0.00  0.00    +0.041 A 
ENDBRANCH  11  12
ENDBRANCH   3  11
TORSDOF 3
ENDMDL
MODEL 8
REMARK VINA RESULT:      -1.1     17.450     18.712
REMARK  Name = 45784229
REMARK  3 active torsions:
REMARK  status: ('A' for Active; 'I' for Inactive)
REMARK    1  A    between atoms: N_3  and  C_11
REMARK    2  A    between atoms: C_6  and  C_10
REMARK    3  A    between atoms: C_11  and  C_12
REMARK                            x       y       z     vdW  Elec       q    Type
REMARK                         _______ _______ _______ _____ _____    ______ ____
ROOT
ATOM      3  N   UNL     1       0.624   0.992  23.075  0.00  0.00    -0.297 NA
ATOM      6  C   UNL     1      -1.219   2.399  23.419  0.00  0.00    +0.070 C 
ATOM      7  C   UNL     1      -0.016   2.922  24.223  0.00  0.00    +0.028 C 
ATOM      8  C   UNL     1      -0.839   0.962  23.040  0.00  0.00    +0.096 C 
ATOM      9  C   UNL     1       0.958   1.751  24.279  0.00  0.00    +0.085 C 
ENDROOT
BRANCH   6  10
ATOM      2  F   UNL     1      -7.388   1.199  27.064  0.00  0.00    -0.205 F 
ATOM      4  N   UNL     1      -3.138   1.384  24.680  0.00  0.00    -0.341 N 
ATOM      5  N   UNL     1      -3.270   3.573  24.318  0.00  0.00    -0.232 NA
ATOM     10  C   UNL     1      -2.548   2.490  24.134  0.00  0.00    +0.113 A 
ATOM     13  C   UNL     1      -4.319   1.780  25.254  0.00  0.00    +0.069 A 
ATOM     14  C   UNL     1      -4.378   3.151  25.014  0.00  0.00    +0.089 A 
ATOM     17  C   UNL     1      -5.310   1.078  25.941  0.00  0.00    +0.066 A 
ATOM     18  C   UNL     1      -5.485   3.880  25.480  0.00  0.00    +0.032 A 
ATOM     19  C   UNL     1      -6.405   1.820  26.398  0.00  0.00    +0.125 A 
ATOM     20  C   UNL     1      -6.492   3.197  26.172  0.00  0.00    +0.040 A 
ATOM     24  H   UNL     1      -2.772   0.441  24.666  0.00  0.00    +0.167 HD
ENDBRANCH   6  10
BRANCH   3  11
ATOM     11  C   UNL     1       1.206  -0.342  23.081  0.00  0.00    +0.119 C 
BRANCH  11  12
ATOM      1 CL   UNL     1       7.211  -0.166  23.421  0.00  0.00    -0.084 Cl
ATOM     12  C   UNL     1       2.709  -0.297  23.166  0.00  0.00    -0.033 A 
ATOM     15  C   UNL     1       3.407  -1.361  23.739  0.00  0.00    +0.006 A 
ATOM     16  C   UNL     1       3.404   0.808  22.673  0.00  0.00    +0.006 A 
ATOM     21  C   UNL     1       4.799  -1.320  23.818  0.00  0.00    +0.020 A 
ATOM     22  C   UNL     1       4.796   0.848  22.753  0.00  0.00    +0.020 A 
ATOM     23  C   UNL     1       5.493  -0.215  23.326  0.00  0.00    +0.041 A 
ENDBRANCH  11  12
ENDBRANCH   3  11
TORSDOF 3
ENDMDL
