MODEL 1
REMARK VINA RESULT:      -5.7      0.000      0.000
REMARK  Name = 44715947
REMARK  10 active torsions:
REMARK  status: ('A' for Active; 'I' for Inactive)
REMARK    1  A    between atoms: O_2  and  C_21
REMARK    2  A    between atoms: O_2  and  C_23
REMARK    3  A    between atoms: O_3  and  C_22
REMARK    4  A    between atoms: O_3  and  C_24
REMARK    5  A    between atoms: N_5  and  C_16
REMARK    6  A    between atoms: N_6  and  C_19
REMARK    7  A    between atoms: C_10  and  C_16
REMARK    8  A    between atoms: C_11  and  C_17
REMARK    9  A    between atoms: C_19  and  C_21
REMARK   10  A    between atoms: C_20  and  C_22
REMARK                            x       y       z     vdW  Elec       q    Type
REMARK                         _______ _______ _______ _____ _____    ______ ____
ROOT
ATOM      4  N   UNL     1      -2.213  -0.904  23.680  0.00  0.00    -0.297 NA
ATOM      9  C   UNL     1      -3.572  -0.864  25.899  0.00  0.00    +0.005 C 
ATOM     10  C   UNL     1      -1.357  -0.406  24.790  0.00  0.00    +0.078 C 
ATOM     11  C   UNL     1      -4.318  -0.121  24.774  0.00  0.00    +0.092 C 
ATOM     12  C   UNL     1      -2.181  -0.227  26.085  0.00  0.00    +0.025 C 
ATOM     13  C   UNL     1      -3.353  -2.307  25.409  0.00  0.00    +0.020 C 
ATOM     14  C   UNL     1      -3.414  -0.046  23.531  0.00  0.00    +0.097 C 
ATOM     15  C   UNL     1      -2.664  -2.274  24.032  0.00  0.00    +0.085 C 
ENDROOT
BRANCH  11  17
ATOM      1  O   UNL     1      -5.797   1.413  25.854  0.00  0.00    -0.275 OA
ATOM      6  N   UNL     1      -3.898   2.237  24.787  0.00  0.00    -0.313 N 
ATOM     17  C   UNL     1      -4.763   1.243  25.211  0.00  0.00    +0.218 C 
ATOM     25  H   UNL     1      -3.074   1.986  24.250  0.00  0.00    +0.149 HD
BRANCH   6  19
ATOM     19  C   UNL     1      -4.113   3.640  25.057  0.00  0.00    +0.132 C 
BRANCH  19  21
ATOM     21  C   UNL     1      -3.182   4.147  26.145  0.00  0.00    +0.178 C 
BRANCH  21   2
ATOM      2  O   UNL     1      -1.838   3.839  25.797  0.00  0.00    -0.381 OA
ATOM     23  C   UNL     1      -1.235   4.895  25.060  0.00  0.00    +0.194 C 
ENDBRANCH  21   2
ENDBRANCH  19  21
ENDBRANCH   6  19
ENDBRANCH  11  17
BRANCH  10  16
ATOM     16  C   UNL     1      -0.600   0.870  24.415  0.00  0.00    +0.164 C 
BRANCH  16   5
ATOM      5  N   UNL     1       0.630   0.566  23.608  0.00  0.00    -0.250 N 
ATOM      7  N   UNL     1       0.612  -0.392  22.665  0.00  0.00    -0.065 NA
ATOM      8  N   UNL     1       1.826  -0.438  22.128  0.00  0.00    -0.132 NA
ATOM     18  C   UNL     1       1.852   1.155  23.700  0.00  0.00    +0.136 A 
ATOM     20  C   UNL     1       2.598   0.503  22.751  0.00  0.00    +0.108 A 
BRANCH  20  22
ATOM     22  C   UNL     1       4.005   0.701  22.381  0.00  0.00    +0.218 C 
BRANCH  22   3
ATOM      3  O   UNL     1       4.806   0.876  23.553  0.00  0.00    -0.377 OA
ATOM     24  C   UNL     1       5.434  -0.338  23.930  0.00  0.00    +0.194 C 
ENDBRANCH  22   3
ENDBRANCH  20  22
ENDBRANCH  16   5
ENDBRANCH  10  16
TORSDOF 8
ENDMDL
MODEL 2
REMARK VINA RESULT:      -4.8      1.655      4.136
REMARK  Name = 44715947
REMARK  10 active torsions:
REMARK  status: ('A' for Active; 'I' for Inactive)
REMARK    1  A    between atoms: O_2  and  C_21
REMARK    2  A    between atoms: O_2  and  C_23
REMARK    3  A    between atoms: O_3  and  C_22
REMARK    4  A    between atoms: O_3  and  C_24
REMARK    5  A    between atoms: N_5  and  C_16
REMARK    6  A    between atoms: N_6  and  C_19
REMARK    7  A    between atoms: C_10  and  C_16
REMARK    8  A    between atoms: C_11  and  C_17
REMARK    9  A    between atoms: C_19  and  C_21
REMARK   10  A    between atoms: C_20  and  C_22
REMARK                            x       y       z     vdW  Elec       q    Type
REMARK                         _______ _______ _______ _____ _____    ______ ____
ROOT
ATOM      4  N   UNL     1      -2.116   4.013  25.922  0.00  0.00    -0.297 NA
ATOM      9  C   UNL     1      -3.604   3.628  23.822  0.00  0.00    +0.005 C 
ATOM     10  C   UNL     1      -1.406   3.141  24.950  0.00  0.00    +0.078 C 
ATOM     11  C   UNL     1      -4.372   3.300  25.117  0.00  0.00    +0.092 C 
ATOM     12  C   UNL     1      -2.325   2.771  23.764  0.00  0.00    +0.025 C 
ATOM     13  C   UNL     1      -3.165   5.100  23.927  0.00  0.00    +0.020 C 
ATOM     14  C   UNL     1      -3.410   3.402  26.314  0.00  0.00    +0.097 C 
ATOM     15  C   UNL     1      -2.402   5.306  25.250  0.00  0.00    +0.085 C 
ENDROOT
BRANCH  11  17
ATOM      1  O   UNL     1      -6.243   1.818  25.033  0.00  0.00    -0.275 OA
ATOM      6  N   UNL     1      -4.094   0.922  25.032  0.00  0.00    -0.313 N 
ATOM     17  C   UNL     1      -5.021   1.950  25.049  0.00  0.00    +0.218 C 
ATOM     25  H   UNL     1      -3.103   1.144  25.058  0.00  0.00    +0.149 HD
BRANCH   6  19
ATOM     19  C   UNL     1      -4.461  -0.475  24.992  0.00  0.00    +0.132 C 
BRANCH  19  21
ATOM     21  C   UNL     1      -3.479  -1.332  25.770  0.00  0.00    +0.178 C 
BRANCH  21   2
ATOM      2  O   UNL     1      -3.478  -2.650  25.238  0.00  0.00    -0.381 OA
ATOM     23  C   UNL     1      -3.950  -2.671  23.897  0.00  0.00    +0.194 C 
ENDBRANCH  21   2
ENDBRANCH  19  21
ENDBRANCH   6  19
ENDBRANCH  11  17
BRANCH  10  16
ATOM     16  C   UNL     1      -0.804   1.899  25.612  0.00  0.00    +0.164 C 
BRANCH  16   5
ATOM      5  N   UNL     1      -0.019   1.076  24.631  0.00  0.00    -0.250 N 
ATOM      7  N   UNL     1      -0.408  -0.171  24.314  0.00  0.00    -0.065 NA
ATOM      8  N   UNL     1       0.470  -0.647  23.438  0.00  0.00    -0.132 NA
ATOM     18  C   UNL     1       1.116   1.430  23.970  0.00  0.00    +0.136 A 
ATOM     20  C   UNL     1       1.410   0.320  23.218  0.00  0.00    +0.108 A 
BRANCH  20  22
ATOM     22  C   UNL     1       2.529   0.098  22.292  0.00  0.00    +0.218 C 
BRANCH  22   3
ATOM      3  O   UNL     1       3.609   0.983  22.598  0.00  0.00    -0.377 OA
ATOM     24  C   UNL     1       4.696   0.283  23.179  0.00  0.00    +0.194 C 
ENDBRANCH  22   3
ENDBRANCH  20  22
ENDBRANCH  16   5
ENDBRANCH  10  16
TORSDOF 8
ENDMDL
MODEL 3
REMARK VINA RESULT:      -4.6      1.541      3.862
REMARK  Name = 44715947
REMARK  10 active torsions:
REMARK  status: ('A' for Active; 'I' for Inactive)
REMARK    1  A    between atoms: O_2  and  C_21
REMARK    2  A    between atoms: O_2  and  C_23
REMARK    3  A    between atoms: O_3  and  C_22
REMARK    4  A    between atoms: O_3  and  C_24
REMARK    5  A    between atoms: N_5  and  C_16
REMARK    6  A    between atoms: N_6  and  C_19
REMARK    7  A    between atoms: C_10  and  C_16
REMARK    8  A    between atoms: C_11  and  C_17
REMARK    9  A    between atoms: C_19  and  C_21
REMARK   10  A    between atoms: C_20  and  C_22
REMARK                            x       y       z     vdW  Elec       q    Type
REMARK                         _______ _______ _______ _____ _____    ______ ____
ROOT
ATOM      4  N   UNL     1      -1.440   3.118  25.624  0.00  0.00    -0.297 NA
ATOM      9  C   UNL     1      -3.285   3.559  23.841  0.00  0.00    +0.005 C 
ATOM     10  C   UNL     1      -1.074   2.461  24.341  0.00  0.00    +0.078 C 
ATOM     11  C   UNL     1      -3.889   2.994  25.141  0.00  0.00    +0.092 C 
ATOM     12  C   UNL     1      -2.221   2.577  23.313  0.00  0.00    +0.025 C 
ATOM     13  C   UNL     1      -2.558   4.862  24.220  0.00  0.00    +0.020 C 
ATOM     14  C   UNL     1      -2.750   2.614  26.105  0.00  0.00    +0.097 C 
ATOM     15  C   UNL     1      -1.572   4.575  25.368  0.00  0.00    +0.085 C 
ENDROOT
BRANCH  11  17
ATOM      1  O   UNL     1      -5.993   1.968  24.666  0.00  0.00    -0.275 OA
ATOM      6  N   UNL     1      -4.111   0.620  24.908  0.00  0.00    -0.313 N 
ATOM     17  C   UNL     1      -4.790   1.825  24.871  0.00  0.00    +0.218 C 
ATOM     25  H   UNL     1      -3.113   0.615  25.097  0.00  0.00    +0.149 HD
BRANCH   6  19
ATOM     19  C   UNL     1      -4.755  -0.657  24.703  0.00  0.00    +0.132 C 
BRANCH  19  21
ATOM     21  C   UNL     1      -3.884  -1.595  23.885  0.00  0.00    +0.178 C 
BRANCH  21   2
ATOM      2  O   UNL     1      -3.257  -2.532  24.752  0.00  0.00    -0.381 OA
ATOM     23  C   UNL     1      -1.844  -2.520  24.596  0.00  0.00    +0.194 C 
ENDBRANCH  21   2
ENDBRANCH  19  21
ENDBRANCH   6  19
ENDBRANCH  11  17
BRANCH  10  16
ATOM     16  C   UNL     1      -0.628   1.010  24.536  0.00  0.00    +0.164 C 
BRANCH  16   5
ATOM      5  N   UNL     1       0.576   0.686  23.697  0.00  0.00    -0.250 N 
ATOM      7  N   UNL     1       0.524  -0.283  22.768  0.00  0.00    -0.065 NA
ATOM      8  N   UNL     1       1.722  -0.346  22.197  0.00  0.00    -0.132 NA
ATOM     18  C   UNL     1       1.805   1.268  23.746  0.00  0.00    +0.136 A 
ATOM     20  C   UNL     1       2.518   0.597  22.785  0.00  0.00    +0.108 A 
BRANCH  20  22
ATOM     22  C   UNL     1       3.916   0.780  22.372  0.00  0.00    +0.218 C 
BRANCH  22   3
ATOM      3  O   UNL     1       4.767   0.844  23.519  0.00  0.00    -0.377 OA
ATOM     24  C   UNL     1       5.368  -0.412  23.782  0.00  0.00    +0.194 C 
ENDBRANCH  22   3
ENDBRANCH  20  22
ENDBRANCH  16   5
ENDBRANCH  10  16
TORSDOF 8
ENDMDL
MODEL 4
REMARK VINA RESULT:      -3.6      1.563      5.301
REMARK  Name = 44715947
REMARK  10 active torsions:
REMARK  status: ('A' for Active; 'I' for Inactive)
REMARK    1  A    between atoms: O_2  and  C_21
REMARK    2  A    between atoms: O_2  and  C_23
REMARK    3  A    between atoms: O_3  and  C_22
REMARK    4  A    between atoms: O_3  and  C_24
REMARK    5  A    between atoms: N_5  and  C_16
REMARK    6  A    between atoms: N_6  and  C_19
REMARK    7  A    between atoms: C_10  and  C_16
REMARK    8  A    between atoms: C_11  and  C_17
REMARK    9  A    between atoms: C_19  and  C_21
REMARK   10  A    between atoms: C_20  and  C_22
REMARK                            x       y       z     vdW  Elec       q    Type
REMARK                         _______ _______ _______ _____ _____    ______ ____
ROOT
ATOM      4  N   UNL     1      -3.665  -1.580  25.913  0.00  0.00    -0.297 NA
ATOM      9  C   UNL     1      -2.143  -1.549  23.802  0.00  0.00    +0.005 C 
ATOM     10  C   UNL     1      -4.268  -0.713  24.866  0.00  0.00    +0.078 C 
ATOM     11  C   UNL     1      -1.342  -1.207  25.072  0.00  0.00    +0.092 C 
ATOM     12  C   UNL     1      -3.312  -0.554  23.662  0.00  0.00    +0.025 C 
ATOM     13  C   UNL     1      -2.754  -2.945  24.024  0.00  0.00    +0.020 C 
ATOM     14  C   UNL     1      -2.308  -1.095  26.265  0.00  0.00    +0.097 C 
ATOM     15  C   UNL     1      -3.535  -2.948  25.352  0.00  0.00    +0.085 C 
ENDROOT
BRANCH  11  17
ATOM      1  O   UNL     1      -0.741   1.047  25.584  0.00  0.00    -0.275 OA
ATOM      6  N   UNL     1       0.405  -0.069  23.892  0.00  0.00    -0.313 N 
ATOM     17  C   UNL     1      -0.538   0.047  24.900  0.00  0.00    +0.218 C 
ATOM     25  H   UNL     1       0.483  -0.942  23.380  0.00  0.00    +0.149 HD
BRANCH   6  19
ATOM     19  C   UNL     1       1.292   1.006  23.511  0.00  0.00    +0.132 C 
BRANCH  19  21
ATOM     21  C   UNL     1       2.495   0.489  22.742  0.00  0.00    +0.178 C 
BRANCH  21   2
ATOM      2  O   UNL     1       3.643   1.248  23.098  0.00  0.00    -0.381 OA
ATOM     23  C   UNL     1       4.812   0.439  23.130  0.00  0.00    +0.194 C 
ENDBRANCH  21   2
ENDBRANCH  19  21
ENDBRANCH   6  19
ENDBRANCH  11  17
BRANCH  10  16
ATOM     16  C   UNL     1      -4.718   0.641  25.418  0.00  0.00    +0.164 C 
BRANCH  16   5
ATOM      5  N   UNL     1      -3.969   1.775  24.777  0.00  0.00    -0.250 N 
ATOM      7  N   UNL     1      -3.563   1.693  23.499  0.00  0.00    -0.065 NA
ATOM      8  N   UNL     1      -2.932   2.826  23.212  0.00  0.00    -0.132 NA
ATOM     18  C   UNL     1      -3.610   2.959  25.342  0.00  0.00    +0.136 A 
ATOM     20  C   UNL     1      -2.951   3.612  24.331  0.00  0.00    +0.108 A 
BRANCH  20  22
ATOM     22  C   UNL     1      -2.328   4.942  24.338  0.00  0.00    +0.218 C 
BRANCH  22   3
ATOM      3  O   UNL     1      -1.259   4.984  25.286  0.00  0.00    -0.377 OA
ATOM     24  C   UNL     1      -0.183   4.153  24.882  0.00  0.00    +0.194 C 
ENDBRANCH  22   3
ENDBRANCH  20  22
ENDBRANCH  16   5
ENDBRANCH  10  16
TORSDOF 8
ENDMDL
MODEL 5
REMARK VINA RESULT:      -3.3      2.123      5.893
REMARK  Name = 44715947
REMARK  10 active torsions:
REMARK  status: ('A' for Active; 'I' for Inactive)
REMARK    1  A    between atoms: O_2  and  C_21
REMARK    2  A    between atoms: O_2  and  C_23
REMARK    3  A    between atoms: O_3  and  C_22
REMARK    4  A    between atoms: O_3  and  C_24
REMARK    5  A    between atoms: N_5  and  C_16
REMARK    6  A    between atoms: N_6  and  C_19
REMARK    7  A    between atoms: C_10  and  C_16
REMARK    8  A    between atoms: C_11  and  C_17
REMARK    9  A    between atoms: C_19  and  C_21
REMARK   10  A    between atoms: C_20  and  C_22
REMARK                            x       y       z     vdW  Elec       q    Type
REMARK                         _______ _______ _______ _____ _____    ______ ____
ROOT
ATOM      4  N   UNL     1      -3.119   3.876  23.804  0.00  0.00    -0.297 NA
ATOM      9  C   UNL     1      -1.656   3.188  25.843  0.00  0.00    +0.005 C 
ATOM     10  C   UNL     1      -3.924   3.064  24.754  0.00  0.00    +0.078 C 
ATOM     11  C   UNL     1      -0.969   2.820  24.514  0.00  0.00    +0.092 C 
ATOM     12  C   UNL     1      -3.041   2.514  25.897  0.00  0.00    +0.025 C 
ATOM     13  C   UNL     1      -1.888   4.709  25.816  0.00  0.00    +0.020 C 
ATOM     14  C   UNL     1      -1.932   3.111  23.349  0.00  0.00    +0.097 C 
ATOM     15  C   UNL     1      -2.643   5.082  24.526  0.00  0.00    +0.085 C 
ENDROOT
BRANCH  11  17
ATOM      1  O   UNL     1      -0.776   0.619  25.422  0.00  0.00    -0.275 OA
ATOM      6  N   UNL     1       0.230   1.086  23.376  0.00  0.00    -0.313 N 
ATOM     17  C   UNL     1      -0.513   1.391  24.503  0.00  0.00    +0.218 C 
ATOM     25  H   UNL     1       0.397   1.805  22.679  0.00  0.00    +0.149 HD
BRANCH   6  19
ATOM     19  C   UNL     1       0.805  -0.218  23.136  0.00  0.00    +0.132 C 
BRANCH  19  21
ATOM     21  C   UNL     1       2.121  -0.116  22.385  0.00  0.00    +0.178 C 
BRANCH  21   2
ATOM      2  O   UNL     1       2.898   0.941  22.934  0.00  0.00    -0.381 OA
ATOM     23  C   UNL     1       4.285   0.631  22.919  0.00  0.00    +0.194 C 
ENDBRANCH  21   2
ENDBRANCH  19  21
ENDBRANCH   6  19
ENDBRANCH  11  17
BRANCH  10  16
ATOM     16  C   UNL     1      -4.706   1.951  24.053  0.00  0.00    +0.164 C 
BRANCH  16   5
ATOM      5  N   UNL     1      -4.264   0.591  24.514  0.00  0.00    -0.250 N 
ATOM      7  N   UNL     1      -4.392   0.227  25.801  0.00  0.00    -0.065 NA
ATOM      8  N   UNL     1      -3.919  -1.010  25.910  0.00  0.00    -0.132 NA
ATOM     18  C   UNL     1      -3.706  -0.399  23.766  0.00  0.00    +0.136 A 
ATOM     20  C   UNL     1      -3.494  -1.407  24.673  0.00  0.00    +0.108 A 
BRANCH  20  22
ATOM     22  C   UNL     1      -2.911  -2.739  24.459  0.00  0.00    +0.218 C 
BRANCH  22   3
ATOM      3  O   UNL     1      -1.535  -2.624  24.088  0.00  0.00    -0.377 OA
ATOM     24  C   UNL     1      -0.705  -2.506  25.231  0.00  0.00    +0.194 C 
ENDBRANCH  22   3
ENDBRANCH  20  22
ENDBRANCH  16   5
ENDBRANCH  10  16
TORSDOF 8
ENDMDL
MODEL 6
REMARK VINA RESULT:      -3.1      3.014      5.009
REMARK  Name = 44715947
REMARK  10 active torsions:
REMARK  status: ('A' for Active; 'I' for Inactive)
REMARK    1  A    between atoms: O_2  and  C_21
REMARK    2  A    between atoms: O_2  and  C_23
REMARK    3  A    between atoms: O_3  and  C_22
REMARK    4  A    between atoms: O_3  and  C_24
REMARK    5  A    between atoms: N_5  and  C_16
REMARK    6  A    between atoms: N_6  and  C_19
REMARK    7  A    between atoms: C_10  and  C_16
REMARK    8  A    between atoms: C_11  and  C_17
REMARK    9  A    between atoms: C_19  and  C_21
REMARK   10  A    between atoms: C_20  and  C_22
REMARK                            x       y       z     vdW  Elec       q    Type
REMARK                         _______ _______ _______ _____ _____    ______ ____
ROOT
ATOM      4  N   UNL     1      -3.631  -1.349  25.840  0.00  0.00    -0.297 NA
ATOM      9  C   UNL     1      -2.130  -0.983  23.745  0.00  0.00    +0.005 C 
ATOM     10  C   UNL     1      -4.301  -0.421  24.891  0.00  0.00    +0.078 C 
ATOM     11  C   UNL     1      -1.346  -0.722  25.046  0.00  0.00    +0.092 C 
ATOM     12  C   UNL     1      -3.368  -0.066  23.712  0.00  0.00    +0.025 C 
ATOM     13  C   UNL     1      -2.637  -2.435  23.816  0.00  0.00    +0.020 C 
ATOM     14  C   UNL     1      -2.309  -0.807  26.243  0.00  0.00    +0.097 C 
ATOM     15  C   UNL     1      -3.407  -2.636  25.136  0.00  0.00    +0.085 C 
ENDROOT
BRANCH  11  17
ATOM      1  O   UNL     1      -0.245   1.096  23.954  0.00  0.00    -0.275 OA
ATOM      6  N   UNL     1      -0.467   1.140  26.271  0.00  0.00    -0.313 N 
ATOM     17  C   UNL     1      -0.635   0.598  25.008  0.00  0.00    +0.218 C 
ATOM     25  H   UNL     1      -0.821   0.638  27.080  0.00  0.00    +0.149 HD
BRANCH   6  19
ATOM     19  C   UNL     1       0.209   2.394  26.511  0.00  0.00    +0.132 C 
BRANCH  19  21
ATOM     21  C   UNL     1       0.626   2.534  27.964  0.00  0.00    +0.178 C 
BRANCH  21   2
ATOM      2  O   UNL     1       2.020   2.804  28.031  0.00  0.00    -0.381 OA
ATOM     23  C   UNL     1       2.494   2.767  29.370  0.00  0.00    +0.194 C 
ENDBRANCH  21   2
ENDBRANCH  19  21
ENDBRANCH   6  19
ENDBRANCH  11  17
BRANCH  10  16
ATOM     16  C   UNL     1      -4.843   0.831  25.585  0.00  0.00    +0.164 C 
BRANCH  16   5
ATOM      5  N   UNL     1      -4.173   2.077  25.079  0.00  0.00    -0.250 N 
ATOM      7  N   UNL     1      -4.286   2.443  23.790  0.00  0.00    -0.065 NA
ATOM      8  N   UNL     1      -3.593   3.565  23.637  0.00  0.00    -0.132 NA
ATOM     18  C   UNL     1      -3.405   2.952  25.782  0.00  0.00    +0.136 A 
ATOM     20  C   UNL     1      -3.047   3.890  24.847  0.00  0.00    +0.108 A 
BRANCH  20  22
ATOM     22  C   UNL     1      -2.214   5.090  25.010  0.00  0.00    +0.218 C 
BRANCH  22   3
ATOM      3  O   UNL     1      -0.833   4.728  25.087  0.00  0.00    -0.377 OA
ATOM     24  C   UNL     1      -0.262   4.606  23.795  0.00  0.00    +0.194 C 
ENDBRANCH  22   3
ENDBRANCH  20  22
ENDBRANCH  16   5
ENDBRANCH  10  16
TORSDOF 8
ENDMDL
MODEL 7
REMARK VINA RESULT:      -3.0     15.010     19.171
REMARK  Name = 44715947
REMARK  10 active torsions:
REMARK  status: ('A' for Active; 'I' for Inactive)
REMARK    1  A    between atoms: O_2  and  C_21
REMARK    2  A    between atoms: O_2  and  C_23
REMARK    3  A    between atoms: O_3  and  C_22
REMARK    4  A    between atoms: O_3  and  C_24
REMARK    5  A    between atoms: N_5  and  C_16
REMARK    6  A    between atoms: N_6  and  C_19
REMARK    7  A    between atoms: C_10  and  C_16
REMARK    8  A    between atoms: C_11  and  C_17
REMARK    9  A    between atoms: C_19  and  C_21
REMARK   10  A    between atoms: C_20  and  C_22
REMARK                            x       y       z     vdW  Elec       q    Type
REMARK                         _______ _______ _______ _____ _____    ______ ____
ROOT
ATOM      4  N   UNL     1      15.093  -8.835  29.967  0.00  0.00    -0.297 NA
ATOM      9  C   UNL     1      15.163  -6.268  29.544  0.00  0.00    +0.005 C 
ATOM     10  C   UNL     1      13.821  -8.212  30.419  0.00  0.00    +0.078 C 
ATOM     11  C   UNL     1      16.404  -6.738  30.328  0.00  0.00    +0.092 C 
ATOM     12  C   UNL     1      13.895  -6.671  30.321  0.00  0.00    +0.025 C 
ATOM     13  C   UNL     1      15.155  -7.048  28.217  0.00  0.00    +0.020 C 
ATOM     14  C   UNL     1      16.245  -8.228  30.679  0.00  0.00    +0.097 C 
ATOM     15  C   UNL     1      15.247  -8.556  28.518  0.00  0.00    +0.085 C 
ENDROOT
BRANCH  11  17
ATOM      1  O   UNL     1      16.451  -6.357  32.685  0.00  0.00    -0.275 OA
ATOM      6  N   UNL     1      17.030  -4.617  31.250  0.00  0.00    -0.313 N 
ATOM     17  C   UNL     1      16.631  -5.907  31.556  0.00  0.00    +0.218 C 
ATOM     25  H   UNL     1      17.139  -4.346  30.278  0.00  0.00    +0.149 HD
BRANCH   6  19
ATOM     19  C   UNL     1      17.292  -3.612  32.254  0.00  0.00    +0.132 C 
BRANCH  19  21
ATOM     21  C   UNL     1      16.222  -2.534  32.255  0.00  0.00    +0.178 C 
BRANCH  21   2
ATOM      2  O   UNL     1      16.282  -1.809  31.033  0.00  0.00    -0.381 OA
ATOM     23  C   UNL     1      17.401  -0.933  31.002  0.00  0.00    +0.194 C 
ENDBRANCH  21   2
ENDBRANCH  19  21
ENDBRANCH   6  19
ENDBRANCH  11  17
BRANCH  10  16
ATOM     16  C   UNL     1      13.410  -8.674  31.818  0.00  0.00    +0.164 C 
BRANCH  16   5
ATOM      5  N   UNL     1      11.918  -8.640  31.994  0.00  0.00    -0.250 N 
ATOM      7  N   UNL     1      11.298  -7.512  32.383  0.00  0.00    -0.065 NA
ATOM      8  N   UNL     1       9.999  -7.782  32.456  0.00  0.00    -0.132 NA
ATOM     18  C   UNL     1      11.035  -9.659  31.810  0.00  0.00    +0.136 A 
ATOM     20  C   UNL     1       9.822  -9.092  32.109  0.00  0.00    +0.108 A 
BRANCH  20  22
ATOM     22  C   UNL     1       8.485  -9.702  32.093  0.00  0.00    +0.218 C 
BRANCH  22   3
ATOM      3  O   UNL     1       7.483  -8.695  31.934  0.00  0.00    -0.377 OA
ATOM     24  C   UNL     1       6.906  -8.745  30.640  0.00  0.00    +0.194 C 
ENDBRANCH  22   3
ENDBRANCH  20  22
ENDBRANCH  16   5
ENDBRANCH  10  16
TORSDOF 8
ENDMDL
MODEL 8
REMARK VINA RESULT:      -2.5      2.498      3.670
REMARK  Name = 44715947
REMARK  10 active torsions:
REMARK  status: ('A' for Active; 'I' for Inactive)
REMARK    1  A    between atoms: O_2  and  C_21
REMARK    2  A    between atoms: O_2  and  C_23
REMARK    3  A    between atoms: O_3  and  C_22
REMARK    4  A    between atoms: O_3  and  C_24
REMARK    5  A    between atoms: N_5  and  C_16
REMARK    6  A    between atoms: N_6  and  C_19
REMARK    7  A    between atoms: C_10  and  C_16
REMARK    8  A    between atoms: C_11  and  C_17
REMARK    9  A    between atoms: C_19  and  C_21
REMARK   10  A    between atoms: C_20  and  C_22
REMARK                            x       y       z     vdW  Elec       q    Type
REMARK                         _______ _______ _______ _____ _____    ______ ____
ROOT
ATOM      4  N   UNL     1      -1.892  -2.224  23.958  0.00  0.00    -0.297 NA
ATOM      9  C   UNL     1      -3.340  -0.937  25.697  0.00  0.00    +0.005 C 
ATOM     10  C   UNL     1      -1.017  -1.604  24.987  0.00  0.00    +0.078 C 
ATOM     11  C   UNL     1      -3.685  -0.509  24.258  0.00  0.00    +0.092 C 
ATOM     12  C   UNL     1      -1.836  -0.708  25.943  0.00  0.00    +0.025 C 
ATOM     13  C   UNL     1      -3.591  -2.454  25.780  0.00  0.00    +0.020 C 
ATOM     14  C   UNL     1      -2.707  -1.185  23.280  0.00  0.00    +0.097 C 
ATOM     15  C   UNL     1      -2.817  -3.157  24.649  0.00  0.00    +0.085 C 
ENDROOT
BRANCH  11  17
ATOM      1  O   UNL     1      -3.418   1.522  23.029  0.00  0.00    -0.275 OA
ATOM      6  N   UNL     1      -3.935   1.636  25.296  0.00  0.00    -0.313 N 
ATOM     17  C   UNL     1      -3.667   0.983  24.105  0.00  0.00    +0.218 C 
ATOM     25  H   UNL     1      -4.119   1.091  26.133  0.00  0.00    +0.149 HD
BRANCH   6  19
ATOM     19  C   UNL     1      -3.955   3.075  25.423  0.00  0.00    +0.132 C 
BRANCH  19  21
ATOM     21  C   UNL     1      -5.362   3.594  25.663  0.00  0.00    +0.178 C 
BRANCH  21   2
ATOM      2  O   UNL     1      -6.209   2.510  26.022  0.00  0.00    -0.381 OA
ATOM     23  C   UNL     1      -6.792   1.903  24.876  0.00  0.00    +0.194 C 
ENDBRANCH  21   2
ENDBRANCH  19  21
ENDBRANCH   6  19
ENDBRANCH  11  17
BRANCH  10  16
ATOM     16  C   UNL     1       0.163  -0.849  24.371  0.00  0.00    +0.164 C 
BRANCH  16   5
ATOM      5  N   UNL     1      -0.042   0.638  24.429  0.00  0.00    -0.250 N 
ATOM      7  N   UNL     1      -0.118   1.366  23.301  0.00  0.00    -0.065 NA
ATOM      8  N   UNL     1      -0.295   2.632  23.660  0.00  0.00    -0.132 NA
ATOM     18  C   UNL     1      -0.167   1.418  25.537  0.00  0.00    +0.136 A 
ATOM     20  C   UNL     1      -0.326   2.682  25.026  0.00  0.00    +0.108 A 
BRANCH  20  22
ATOM     22  C   UNL     1      -0.509   3.953  25.739  0.00  0.00    +0.218 C 
BRANCH  22   3
ATOM      3  O   UNL     1      -0.594   5.035  24.808  0.00  0.00    -0.377 OA
ATOM     24  C   UNL     1      -1.782   5.784  25.000  0.00  0.00    +0.194 C 
ENDBRANCH  22   3
ENDBRANCH  20  22
ENDBRANCH  16   5
ENDBRANCH  10  16
TORSDOF 8
ENDMDL
MODEL 9
REMARK VINA RESULT:      -2.3     17.155     19.622
REMARK  Name = 44715947
REMARK  10 active torsions:
REMARK  status: ('A' for Active; 'I' for Inactive)
REMARK    1  A    between atoms: O_2  and  C_21
REMARK    2  A    between atoms: O_2  and  C_23
REMARK    3  A    between atoms: O_3  and  C_22
REMARK    4  A    between atoms: O_3  and  C_24
REMARK    5  A    between atoms: N_5  and  C_16
REMARK    6  A    between atoms: N_6  and  C_19
REMARK    7  A    between atoms: C_10  and  C_16
REMARK    8  A    between atoms: C_11  and  C_17
REMARK    9  A    between atoms: C_19  and  C_21
REMARK   10  A    between atoms: C_20  and  C_22
REMARK                            x       y       z     vdW  Elec       q    Type
REMARK                         _______ _______ _______ _____ _____    ______ ____
ROOT
ATOM      4  N   UNL     1      16.518  -8.885  28.198  0.00  0.00    -0.297 NA
ATOM      9  C   UNL     1      15.173  -6.669  28.434  0.00  0.00    +0.005 C 
ATOM     10  C   UNL     1      15.240  -9.141  28.913  0.00  0.00    +0.078 C 
ATOM     11  C   UNL     1      16.615  -6.504  28.950  0.00  0.00    +0.092 C 
ATOM     12  C   UNL     1      14.493  -7.819  29.202  0.00  0.00    +0.025 C 
ATOM     13  C   UNL     1      15.276  -7.100  26.960  0.00  0.00    +0.020 C 
ATOM     14  C   UNL     1      17.321  -7.871  28.925  0.00  0.00    +0.097 C 
ATOM     15  C   UNL     1      16.188  -8.338  26.858  0.00  0.00    +0.085 C 
ENDROOT
BRANCH  11  17
ATOM      1  O   UNL     1      17.261  -6.418  31.248  0.00  0.00    -0.275 OA
ATOM      6  N   UNL     1      15.904  -4.730  30.395  0.00  0.00    -0.313 N 
ATOM     17  C   UNL     1      16.647  -5.895  30.320  0.00  0.00    +0.218 C 
ATOM     25  H   UNL     1      15.427  -4.389  29.565  0.00  0.00    +0.149 HD
BRANCH   6  19
ATOM     19  C   UNL     1      15.755  -3.962  31.610  0.00  0.00    +0.132 C 
BRANCH  19  21
ATOM     21  C   UNL     1      14.361  -4.109  32.193  0.00  0.00    +0.178 C 
BRANCH  21   2
ATOM      2  O   UNL     1      13.665  -5.136  31.499  0.00  0.00    -0.381 OA
ATOM     23  C   UNL     1      12.459  -5.489  32.164  0.00  0.00    +0.194 C 
ENDBRANCH  21   2
ENDBRANCH  19  21
ENDBRANCH   6  19
ENDBRANCH  11  17
BRANCH  10  16
ATOM     16  C   UNL     1      15.438  -9.972  30.183  0.00  0.00    +0.164 C 
BRANCH  16   5
ATOM      5  N   UNL     1      14.309  -9.773  31.155  0.00  0.00    -0.250 N 
ATOM      7  N   UNL     1      14.439  -8.931  32.194  0.00  0.00    -0.065 NA
ATOM      8  N   UNL     1      13.297  -8.965  32.873  0.00  0.00    -0.132 NA
ATOM     18  C   UNL     1      13.086 -10.367  31.140  0.00  0.00    +0.136 A 
ATOM     20  C   UNL     1      12.458  -9.840  32.241  0.00  0.00    +0.108 A 
BRANCH  20  22
ATOM     22  C   UNL     1      11.106 -10.102  32.752  0.00  0.00    +0.218 C 
BRANCH  22   3
ATOM      3  O   UNL     1      10.126  -9.675  31.802  0.00  0.00    -0.377 OA
ATOM     24  C   UNL     1       9.634  -8.384  32.120  0.00  0.00    +0.194 C 
ENDBRANCH  22   3
ENDBRANCH  20  22
ENDBRANCH  16   5
ENDBRANCH  10  16
TORSDOF 8
ENDMDL
