MODEL 1
REMARK VINA RESULT:      -1.4      0.000      0.000
REMARK  Name = 45784106
REMARK  13 active torsions:
REMARK  status: ('A' for Active; 'I' for Inactive)
REMARK    1  A    between atoms: O_2  and  C_28
REMARK    2  A    between atoms: O_2  and  C_32
REMARK    3  A    between atoms: N_3  and  C_16
REMARK    4  A    between atoms: N_3  and  C_22
REMARK    5  A    between atoms: N_7  and  C_31
REMARK    6  A    between atoms: C_9  and  C_13
REMARK    7  A    between atoms: C_10  and  C_16
REMARK    8  A    between atoms: C_12  and  C_17
REMARK    9  A    between atoms: C_13  and  C_18
REMARK   10  A    between atoms: C_13  and  C_19
REMARK   11  A    between atoms: C_14  and  C_20
REMARK   12  A    between atoms: C_17  and  C_21
REMARK   13  A    between atoms: C_23  and  C_26
REMARK                            x       y       z     vdW  Elec       q    Type
REMARK                         _______ _______ _______ _____ _____    ______ ____
ROOT
ATOM      9  C   UNL     1      -2.358   3.171  25.005  0.00  0.00    +0.000 C 
ATOM     10  C   UNL     1      -3.693   3.297  24.229  0.00  0.00    +0.032 C 
ATOM     11  C   UNL     1      -1.168   3.228  24.035  0.00  0.00    +0.012 C 
ATOM     12  C   UNL     1      -1.224   2.111  22.975  0.00  0.00    +0.024 C 
ATOM     14  C   UNL     1      -2.600   1.996  22.352  0.00  0.00    -0.073 C 
ATOM     15  C   UNL     1      -3.690   2.544  22.919  0.00  0.00    -0.022 C 
ATOM     20  C   UNL     1      -2.690   1.276  21.036  0.00  0.00    +0.039 C 
ENDROOT
BRANCH   9  13
ATOM     13  C   UNL     1      -2.212   4.262  26.068  0.00  0.00    -0.013 C 
ATOM     18  C   UNL     1      -3.522   4.445  26.828  0.00  0.00    +0.007 C 
ATOM     19  C   UNL     1      -1.771   5.575  25.428  0.00  0.00    +0.007 C 
ENDBRANCH   9  13
BRANCH  10  16
ATOM     16  C   UNL     1      -4.875   2.828  25.084  0.00  0.00    +0.109 C 
BRANCH  16   3
ATOM      3  N   UNL     1      -5.279   1.514  24.668  0.00  0.00    -0.342 N 
ATOM     33  H   UNL     1      -6.219   1.365  24.320  0.00  0.00    +0.146 HD
BRANCH   3  22
ATOM      6  N   UNL     1      -2.685  -0.791  25.883  0.00  0.00    -0.219 NA
ATOM     22  C   UNL     1      -4.466   0.389  24.753  0.00  0.00    +0.046 A 
ATOM     24  C   UNL     1      -4.591  -0.654  23.844  0.00  0.00    +0.029 A 
ATOM     25  C   UNL     1      -3.506   0.274  25.744  0.00  0.00    +0.137 A 
ATOM     27  C   UNL     1      -3.764  -1.768  23.954  0.00  0.00    +0.069 A 
ATOM     28  C   UNL     1      -2.836  -1.787  24.982  0.00  0.00    +0.214 A 
BRANCH  28   2
ATOM      2  O   UNL     1      -2.010  -2.873  25.111  0.00  0.00    -0.480 OA
ATOM     32  C   UNL     1      -0.611  -2.613  25.134  0.00  0.00    +0.279 C 
ENDBRANCH  28   2
ENDBRANCH   3  22
ENDBRANCH  16   3
ENDBRANCH  10  16
BRANCH  12  17
ATOM     17  C   UNL     1      -0.775   0.768  23.563  0.00  0.00    +0.105 C 
BRANCH  17  21
ATOM      1  O   UNL     1       1.654   0.591  23.712  0.00  0.00    -0.419 OA
ATOM      4  N   UNL     1       0.784  -0.290  21.849  0.00  0.00    -0.112 NA
ATOM      5  N   UNL     1       2.156  -0.459  21.801  0.00  0.00    -0.106 NA
ATOM     21  C   UNL     1       0.537   0.326  22.981  0.00  0.00    +0.218 A 
ATOM     23  C   UNL     1       2.622   0.071  22.908  0.00  0.00    +0.266 A 
BRANCH  23  26
ATOM      7  N   UNL     1       4.707  -0.963  23.724  0.00  0.00    -0.329 N 
ATOM      8  N   UNL     1       6.152   0.717  23.581  0.00  0.00    -0.243 NA
ATOM     26  C   UNL     1       3.999   0.099  23.237  0.00  0.00    +0.125 A 
ATOM     29  C   UNL     1       4.912   1.124  23.157  0.00  0.00    +0.143 A 
ATOM     30  C   UNL     1       5.994  -0.545  23.916  0.00  0.00    +0.199 A 
ATOM     31  C   UNL     1       4.212  -2.294  23.996  0.00  0.00    +0.150 C 
ENDBRANCH  23  26
ENDBRANCH  17  21
ENDBRANCH  12  17
TORSDOF 8
ENDMDL
MODEL 2
REMARK VINA RESULT:      -0.6      1.685      4.445
REMARK  Name = 45784106
REMARK  13 active torsions:
REMARK  status: ('A' for Active; 'I' for Inactive)
REMARK    1  A    between atoms: O_2  and  C_28
REMARK    2  A    between atoms: O_2  and  C_32
REMARK    3  A    between atoms: N_3  and  C_16
REMARK    4  A    between atoms: N_3  and  C_22
REMARK    5  A    between atoms: N_7  and  C_31
REMARK    6  A    between atoms: C_9  and  C_13
REMARK    7  A    between atoms: C_10  and  C_16
REMARK    8  A    between atoms: C_12  and  C_17
REMARK    9  A    between atoms: C_13  and  C_18
REMARK   10  A    between atoms: C_13  and  C_19
REMARK   11  A    between atoms: C_14  and  C_20
REMARK   12  A    between atoms: C_17  and  C_21
REMARK   13  A    between atoms: C_23  and  C_26
REMARK                            x       y       z     vdW  Elec       q    Type
REMARK                         _______ _______ _______ _____ _____    ______ ____
ROOT
ATOM      9  C   UNL     1      -3.172  -1.417  24.437  0.00  0.00    +0.000 C 
ATOM     10  C   UNL     1      -3.604  -0.589  25.673  0.00  0.00    +0.032 C 
ATOM     11  C   UNL     1      -1.672  -1.743  24.510  0.00  0.00    +0.012 C 
ATOM     12  C   UNL     1      -0.802  -0.474  24.576  0.00  0.00    +0.024 C 
ATOM     14  C   UNL     1      -1.329   0.517  25.594  0.00  0.00    -0.073 C 
ATOM     15  C   UNL     1      -2.579   0.442  26.082  0.00  0.00    -0.022 C 
ATOM     20  C   UNL     1      -0.370   1.571  26.072  0.00  0.00    +0.039 C 
ENDROOT
BRANCH   9  13
ATOM     13  C   UNL     1      -3.978  -2.713  24.309  0.00  0.00    -0.013 C 
ATOM     18  C   UNL     1      -3.044  -3.915  24.223  0.00  0.00    +0.007 C 
ATOM     19  C   UNL     1      -4.895  -2.652  23.092  0.00  0.00    +0.007 C 
ENDBRANCH   9  13
BRANCH  10  16
ATOM     16  C   UNL     1      -4.953   0.100  25.431  0.00  0.00    +0.109 C 
BRANCH  16   3
ATOM      3  N   UNL     1      -4.792   1.144  24.458  0.00  0.00    -0.342 N 
ATOM     33  H   UNL     1      -5.235   1.055  23.550  0.00  0.00    +0.146 HD
BRANCH   3  22
ATOM      6  N   UNL     1      -2.269   3.751  23.865  0.00  0.00    -0.219 NA
ATOM     22  C   UNL     1      -4.013   2.278  24.657  0.00  0.00    +0.046 A 
ATOM     24  C   UNL     1      -4.169   3.062  25.794  0.00  0.00    +0.029 A 
ATOM     25  C   UNL     1      -3.057   2.661  23.732  0.00  0.00    +0.137 A 
ATOM     27  C   UNL     1      -3.376   4.192  25.967  0.00  0.00    +0.069 A 
ATOM     28  C   UNL     1      -2.449   4.490  24.982  0.00  0.00    +0.214 A 
BRANCH  28   2
ATOM      2  O   UNL     1      -1.657   5.598  25.129  0.00  0.00    -0.480 OA
ATOM     32  C   UNL     1      -0.306   5.480  24.697  0.00  0.00    +0.279 C 
ENDBRANCH  28   2
ENDBRANCH   3  22
ENDBRANCH  16   3
ENDBRANCH  10  16
BRANCH  12  17
ATOM     17  C   UNL     1      -0.668   0.177  23.195  0.00  0.00    +0.105 C 
BRANCH  17  21
ATOM      1  O   UNL     1       1.749   0.199  23.534  0.00  0.00    -0.419 OA
ATOM      4  N   UNL     1       1.124  -0.236  21.431  0.00  0.00    -0.112 NA
ATOM      5  N   UNL     1       2.505  -0.254  21.478  0.00  0.00    -0.106 NA
ATOM     21  C   UNL     1       0.725   0.032  22.653  0.00  0.00    +0.218 A 
ATOM     23  C   UNL     1       2.826   0.005  22.725  0.00  0.00    +0.266 A 
BRANCH  23  26
ATOM      7  N   UNL     1       4.850  -0.960  23.750  0.00  0.00    -0.329 N 
ATOM      8  N   UNL     1       6.254   0.761  23.729  0.00  0.00    -0.243 NA
ATOM     26  C   UNL     1       4.164   0.076  23.185  0.00  0.00    +0.125 A 
ATOM     29  C   UNL     1       5.050   1.127  23.183  0.00  0.00    +0.143 A 
ATOM     30  C   UNL     1       6.100  -0.502  24.061  0.00  0.00    +0.199 A 
ATOM     31  C   UNL     1       4.370  -2.302  23.987  0.00  0.00    +0.150 C 
ENDBRANCH  23  26
ENDBRANCH  17  21
ENDBRANCH  12  17
TORSDOF 8
ENDMDL
MODEL 3
REMARK VINA RESULT:      -0.1      2.083      5.856
REMARK  Name = 45784106
REMARK  13 active torsions:
REMARK  status: ('A' for Active; 'I' for Inactive)
REMARK    1  A    between atoms: O_2  and  C_28
REMARK    2  A    between atoms: O_2  and  C_32
REMARK    3  A    between atoms: N_3  and  C_16
REMARK    4  A    between atoms: N_3  and  C_22
REMARK    5  A    between atoms: N_7  and  C_31
REMARK    6  A    between atoms: C_9  and  C_13
REMARK    7  A    between atoms: C_10  and  C_16
REMARK    8  A    between atoms: C_12  and  C_17
REMARK    9  A    between atoms: C_13  and  C_18
REMARK   10  A    between atoms: C_13  and  C_19
REMARK   11  A    between atoms: C_14  and  C_20
REMARK   12  A    between atoms: C_17  and  C_21
REMARK   13  A    between atoms: C_23  and  C_26
REMARK                            x       y       z     vdW  Elec       q    Type
REMARK                         _______ _______ _______ _____ _____    ______ ____
ROOT
ATOM      9  C   UNL     1      -1.800   4.122  24.772  0.00  0.00    +0.000 C 
ATOM     10  C   UNL     1      -1.807   3.295  26.082  0.00  0.00    +0.032 C 
ATOM     11  C   UNL     1      -3.052   5.008  24.692  0.00  0.00    +0.012 C 
ATOM     12  C   UNL     1      -4.353   4.186  24.744  0.00  0.00    +0.024 C 
ATOM     14  C   UNL     1      -4.324   3.155  25.854  0.00  0.00    -0.073 C 
ATOM     15  C   UNL     1      -3.178   2.779  26.449  0.00  0.00    -0.022 C 
ATOM     20  C   UNL     1      -5.648   2.599  26.296  0.00  0.00    +0.039 C 
ENDROOT
BRANCH   9  13
ATOM     13  C   UNL     1      -0.543   4.989  24.652  0.00  0.00    -0.013 C 
ATOM     18  C   UNL     1      -0.871   6.447  24.952  0.00  0.00    +0.007 C 
ATOM     19  C   UNL     1       0.071   4.847  23.264  0.00  0.00    +0.007 C 
ENDBRANCH   9  13
BRANCH  10  16
ATOM     16  C   UNL     1      -0.825   2.121  25.999  0.00  0.00    +0.109 C 
BRANCH  16   3
ATOM      3  N   UNL     1      -0.779   1.627  24.651  0.00  0.00    -0.342 N 
ATOM     33  H   UNL     1      -1.637   1.547  24.117  0.00  0.00    +0.146 HD
BRANCH   3  22
ATOM      6  N   UNL     1       2.696   1.604  23.452  0.00  0.00    -0.219 NA
ATOM     22  C   UNL     1       0.383   1.196  24.022  0.00  0.00    +0.046 A 
ATOM     24  C   UNL     1       0.424  -0.020  23.350  0.00  0.00    +0.029 A 
ATOM     25  C   UNL     1       1.535   1.965  24.043  0.00  0.00    +0.137 A 
ATOM     27  C   UNL     1       1.602  -0.426  22.729  0.00  0.00    +0.069 A 
ATOM     28  C   UNL     1       2.699   0.415  22.809  0.00  0.00    +0.214 A 
BRANCH  28   2
ATOM      2  O   UNL     1       3.870   0.037  22.206  0.00  0.00    -0.480 OA
ATOM     32  C   UNL     1       5.060   0.175  22.975  0.00  0.00    +0.279 C 
ENDBRANCH  28   2
ENDBRANCH   3  22
ENDBRANCH  16   3
ENDBRANCH  10  16
BRANCH  12  17
ATOM     17  C   UNL     1      -4.644   3.527  23.391  0.00  0.00    +0.105 C 
BRANCH  17  21
ATOM      1  O   UNL     1      -4.388   1.164  23.947  0.00  0.00    -0.419 OA
ATOM      4  N   UNL     1      -2.844   1.944  22.529  0.00  0.00    -0.112 NA
ATOM      5  N   UNL     1      -2.579   0.605  22.755  0.00  0.00    -0.106 NA
ATOM     21  C   UNL     1      -3.907   2.226  23.245  0.00  0.00    +0.218 A 
ATOM     23  C   UNL     1      -3.506   0.192  23.588  0.00  0.00    +0.266 A 
BRANCH  23  26
ATOM      7  N   UNL     1      -2.916  -1.611  25.165  0.00  0.00    -0.329 N 
ATOM      8  N   UNL     1      -4.073  -3.330  24.365  0.00  0.00    -0.243 NA
ATOM     26  C   UNL     1      -3.581  -1.138  24.069  0.00  0.00    +0.125 A 
ATOM     29  C   UNL     1      -4.288  -2.217  23.593  0.00  0.00    +0.143 A 
ATOM     30  C   UNL     1      -3.243  -2.931  25.304  0.00  0.00    +0.199 A 
ATOM     31  C   UNL     1      -2.028  -0.874  26.034  0.00  0.00    +0.150 C 
ENDBRANCH  23  26
ENDBRANCH  17  21
ENDBRANCH  12  17
TORSDOF 8
ENDMDL
MODEL 4
REMARK VINA RESULT:       0.5      2.077      7.178
REMARK  Name = 45784106
REMARK  13 active torsions:
REMARK  status: ('A' for Active; 'I' for Inactive)
REMARK    1  A    between atoms: O_2  and  C_28
REMARK    2  A    between atoms: O_2  and  C_32
REMARK    3  A    between atoms: N_3  and  C_16
REMARK    4  A    between atoms: N_3  and  C_22
REMARK    5  A    between atoms: N_7  and  C_31
REMARK    6  A    between atoms: C_9  and  C_13
REMARK    7  A    between atoms: C_10  and  C_16
REMARK    8  A    between atoms: C_12  and  C_17
REMARK    9  A    between atoms: C_13  and  C_18
REMARK   10  A    between atoms: C_13  and  C_19
REMARK   11  A    between atoms: C_14  and  C_20
REMARK   12  A    between atoms: C_17  and  C_21
REMARK   13  A    between atoms: C_23  and  C_26
REMARK                            x       y       z     vdW  Elec       q    Type
REMARK                         _______ _______ _______ _____ _____    ______ ____
ROOT
ATOM      9  C   UNL     1      -1.206   0.192  24.443  0.00  0.00    +0.000 C 
ATOM     10  C   UNL     1      -0.446  -1.113  24.097  0.00  0.00    +0.032 C 
ATOM     11  C   UNL     1      -2.179  -0.048  25.607  0.00  0.00    +0.012 C 
ATOM     12  C   UNL     1      -3.213  -1.145  25.287  0.00  0.00    +0.024 C 
ATOM     14  C   UNL     1      -2.561  -2.373  24.685  0.00  0.00    -0.073 C 
ATOM     15  C   UNL     1      -1.319  -2.343  24.170  0.00  0.00    -0.022 C 
ATOM     20  C   UNL     1      -3.353  -3.650  24.730  0.00  0.00    +0.039 C 
ENDROOT
BRANCH   9  13
ATOM     13  C   UNL     1      -0.247   1.333  24.796  0.00  0.00    -0.013 C 
ATOM     18  C   UNL     1      -0.383   1.706  26.269  0.00  0.00    +0.007 C 
ATOM     19  C   UNL     1      -0.509   2.543  23.906  0.00  0.00    +0.007 C 
ENDBRANCH   9  13
BRANCH  10  16
ATOM     16  C   UNL     1       0.197  -1.025  22.708  0.00  0.00    +0.109 C 
BRANCH  16   3
ATOM      3  N   UNL     1       1.119   0.076  22.674  0.00  0.00    -0.342 N 
ATOM     33  H   UNL     1       0.796   0.991  22.381  0.00  0.00    +0.146 HD
BRANCH   3  22
ATOM      6  N   UNL     1       4.297  -1.379  23.814  0.00  0.00    -0.219 NA
ATOM     22  C   UNL     1       2.471  -0.034  22.978  0.00  0.00    +0.046 A 
ATOM     24  C   UNL     1       3.340   1.031  22.772  0.00  0.00    +0.029 A 
ATOM     25  C   UNL     1       2.994  -1.206  23.497  0.00  0.00    +0.137 A 
ATOM     27  C   UNL     1       4.688   0.892  23.085  0.00  0.00    +0.069 A 
ATOM     28  C   UNL     1       5.112  -0.323  23.598  0.00  0.00    +0.214 A 
BRANCH  28   2
ATOM      2  O   UNL     1       6.436  -0.484  23.915  0.00  0.00    -0.480 OA
ATOM     32  C   UNL     1       7.346  -0.580  22.826  0.00  0.00    +0.279 C 
ENDBRANCH  28   2
ENDBRANCH   3  22
ENDBRANCH  16   3
ENDBRANCH  10  16
BRANCH  12  17
ATOM     17  C   UNL     1      -4.322  -0.609  24.374  0.00  0.00    +0.105 C 
BRANCH  17  21
ATOM      1  O   UNL     1      -3.560   1.709  24.413  0.00  0.00    -0.419 OA
ATOM      4  N   UNL     1      -5.687   1.434  25.045  0.00  0.00    -0.112 NA
ATOM      5  N   UNL     1      -5.392   2.783  25.115  0.00  0.00    -0.106 NA
ATOM     21  C   UNL     1      -4.589   0.846  24.631  0.00  0.00    +0.218 A 
ATOM     23  C   UNL     1      -4.139   2.896  24.737  0.00  0.00    +0.266 A 
BRANCH  23  26
ATOM      7  N   UNL     1      -2.705   4.666  25.682  0.00  0.00    -0.329 N 
ATOM      8  N   UNL     1      -2.603   6.129  24.014  0.00  0.00    -0.243 NA
ATOM     26  C   UNL     1      -3.456   4.135  24.672  0.00  0.00    +0.125 A 
ATOM     29  C   UNL     1      -3.378   5.056  23.654  0.00  0.00    +0.143 A 
ATOM     30  C   UNL     1      -2.213   5.863  25.241  0.00  0.00    +0.199 A 
ATOM     31  C   UNL     1      -2.458   4.091  26.984  0.00  0.00    +0.150 C 
ENDBRANCH  23  26
ENDBRANCH  17  21
ENDBRANCH  12  17
TORSDOF 8
ENDMDL
MODEL 5
REMARK VINA RESULT:       1.1      2.134      7.166
REMARK  Name = 45784106
REMARK  13 active torsions:
REMARK  status: ('A' for Active; 'I' for Inactive)
REMARK    1  A    between atoms: O_2  and  C_28
REMARK    2  A    between atoms: O_2  and  C_32
REMARK    3  A    between atoms: N_3  and  C_16
REMARK    4  A    between atoms: N_3  and  C_22
REMARK    5  A    between atoms: N_7  and  C_31
REMARK    6  A    between atoms: C_9  and  C_13
REMARK    7  A    between atoms: C_10  and  C_16
REMARK    8  A    between atoms: C_12  and  C_17
REMARK    9  A    between atoms: C_13  and  C_18
REMARK   10  A    between atoms: C_13  and  C_19
REMARK   11  A    between atoms: C_14  and  C_20
REMARK   12  A    between atoms: C_17  and  C_21
REMARK   13  A    between atoms: C_23  and  C_26
REMARK                            x       y       z     vdW  Elec       q    Type
REMARK                         _______ _______ _______ _____ _____    ______ ____
ROOT
ATOM      9  C   UNL     1      -1.150   0.181  24.564  0.00  0.00    +0.000 C 
ATOM     10  C   UNL     1      -0.417  -1.069  24.018  0.00  0.00    +0.032 C 
ATOM     11  C   UNL     1      -2.012  -0.192  25.780  0.00  0.00    +0.012 C 
ATOM     12  C   UNL     1      -3.063  -1.266  25.442  0.00  0.00    +0.024 C 
ATOM     14  C   UNL     1      -2.462  -2.416  24.660  0.00  0.00    -0.073 C 
ATOM     15  C   UNL     1      -1.272  -2.314  24.041  0.00  0.00    -0.022 C 
ATOM     20  C   UNL     1      -3.238  -3.703  24.642  0.00  0.00    +0.039 C 
ENDROOT
BRANCH   9  13
ATOM     13  C   UNL     1      -0.170   1.294  24.946  0.00  0.00    -0.013 C 
ATOM     18  C   UNL     1      -0.387   1.720  26.395  0.00  0.00    +0.007 C 
ATOM     19  C   UNL     1      -0.322   2.484  24.004  0.00  0.00    +0.007 C 
ENDBRANCH   9  13
BRANCH  10  16
ATOM     16  C   UNL     1       0.097  -0.830  22.593  0.00  0.00    +0.109 C 
BRANCH  16   3
ATOM      3  N   UNL     1       1.044   0.250  22.600  0.00  0.00    -0.342 N 
ATOM     33  H   UNL     1       0.749   1.178  22.318  0.00  0.00    +0.146 HD
BRANCH   3  22
ATOM      6  N   UNL     1       4.585   1.089  23.126  0.00  0.00    -0.219 NA
ATOM     22  C   UNL     1       2.387   0.103  22.929  0.00  0.00    +0.046 A 
ATOM     24  C   UNL     1       2.885  -1.116  23.374  0.00  0.00    +0.029 A 
ATOM     25  C   UNL     1       3.270   1.165  22.822  0.00  0.00    +0.137 A 
ATOM     27  C   UNL     1       4.234  -1.233  23.696  0.00  0.00    +0.069 A 
ATOM     28  C   UNL     1       5.033  -0.111  23.557  0.00  0.00    +0.214 A 
BRANCH  28   2
ATOM      2  O   UNL     1       6.364  -0.202  23.868  0.00  0.00    -0.480 OA
ATOM     32  C   UNL     1       7.233  -0.659  22.838  0.00  0.00    +0.279 C 
ENDBRANCH  28   2
ENDBRANCH   3  22
ENDBRANCH  16   3
ENDBRANCH  10  16
BRANCH  12  17
ATOM     17  C   UNL     1      -4.254  -0.657  24.693  0.00  0.00    +0.105 C 
BRANCH  17  21
ATOM      1  O   UNL     1      -3.428   1.639  24.700  0.00  0.00    -0.419 OA
ATOM      4  N   UNL     1      -5.443   1.388  25.638  0.00  0.00    -0.112 NA
ATOM      5  N   UNL     1      -5.102   2.726  25.711  0.00  0.00    -0.106 NA
ATOM     21  C   UNL     1      -4.438   0.792  25.040  0.00  0.00    +0.218 A 
ATOM     23  C   UNL     1      -3.918   2.826  25.152  0.00  0.00    +0.266 A 
BRANCH  23  26
ATOM      7  N   UNL     1      -3.281   4.881  23.947  0.00  0.00    -0.329 N 
ATOM      8  N   UNL     1      -1.894   5.856  25.382  0.00  0.00    -0.243 NA
ATOM     26  C   UNL     1      -3.217   4.050  25.029  0.00  0.00    +0.125 A 
ATOM     29  C   UNL     1      -2.355   4.673  25.901  0.00  0.00    +0.143 A 
ATOM     30  C   UNL     1      -2.471   5.952  24.204  0.00  0.00    +0.199 A 
ATOM     31  C   UNL     1      -4.054   4.690  22.741  0.00  0.00    +0.150 C 
ENDBRANCH  23  26
ENDBRANCH  17  21
ENDBRANCH  12  17
TORSDOF 8
ENDMDL
MODEL 6
REMARK VINA RESULT:       1.4      1.989      7.451
REMARK  Name = 45784106
REMARK  13 active torsions:
REMARK  status: ('A' for Active; 'I' for Inactive)
REMARK    1  A    between atoms: O_2  and  C_28
REMARK    2  A    between atoms: O_2  and  C_32
REMARK    3  A    between atoms: N_3  and  C_16
REMARK    4  A    between atoms: N_3  and  C_22
REMARK    5  A    between atoms: N_7  and  C_31
REMARK    6  A    between atoms: C_9  and  C_13
REMARK    7  A    between atoms: C_10  and  C_16
REMARK    8  A    between atoms: C_12  and  C_17
REMARK    9  A    between atoms: C_13  and  C_18
REMARK   10  A    between atoms: C_13  and  C_19
REMARK   11  A    between atoms: C_14  and  C_20
REMARK   12  A    between atoms: C_17  and  C_21
REMARK   13  A    between atoms: C_23  and  C_26
REMARK                            x       y       z     vdW  Elec       q    Type
REMARK                         _______ _______ _______ _____ _____    ______ ____
ROOT
ATOM      9  C   UNL     1      -1.181   0.244  25.053  0.00  0.00    +0.000 C 
ATOM     10  C   UNL     1      -0.119  -0.425  24.145  0.00  0.00    +0.032 C 
ATOM     11  C   UNL     1      -1.779  -0.784  26.025  0.00  0.00    +0.012 C 
ATOM     12  C   UNL     1      -2.438  -1.967  25.291  0.00  0.00    +0.024 C 
ATOM     14  C   UNL     1      -1.551  -2.512  24.190  0.00  0.00    -0.073 C 
ATOM     15  C   UNL     1      -0.511  -1.814  23.699  0.00  0.00    -0.022 C 
ATOM     20  C   UNL     1      -1.858  -3.898  23.696  0.00  0.00    +0.039 C 
ENDROOT
BRANCH   9  13
ATOM     13  C   UNL     1      -0.598   1.422  25.838  0.00  0.00    -0.013 C 
ATOM     18  C   UNL     1      -1.708   2.188  26.551  0.00  0.00    +0.007 C 
ATOM     19  C   UNL     1       0.186   2.344  24.911  0.00  0.00    +0.007 C 
ENDBRANCH   9  13
BRANCH  10  16
ATOM     16  C   UNL     1       0.179   0.440  22.914  0.00  0.00    +0.109 C 
BRANCH  16   3
ATOM      3  N   UNL     1       1.287  -0.120  22.191  0.00  0.00    -0.342 N 
ATOM     33  H   UNL     1       1.126  -0.564  21.294  0.00  0.00    +0.146 HD
BRANCH   3  22
ATOM      6  N   UNL     1       4.373  -1.345  23.768  0.00  0.00    -0.219 NA
ATOM     22  C   UNL     1       2.594  -0.138  22.664  0.00  0.00    +0.046 A 
ATOM     24  C   UNL     1       3.419   0.972  22.529  0.00  0.00    +0.029 A 
ATOM     25  C   UNL     1       3.113  -1.261  23.286  0.00  0.00    +0.137 A 
ATOM     27  C   UNL     1       4.723   0.924  23.013  0.00  0.00    +0.069 A 
ATOM     28  C   UNL     1       5.148  -0.247  23.618  0.00  0.00    +0.214 A 
BRANCH  28   2
ATOM      2  O   UNL     1       6.427  -0.318  24.102  0.00  0.00    -0.480 OA
ATOM     32  C   UNL     1       7.475  -0.351  23.139  0.00  0.00    +0.279 C 
ENDBRANCH  28   2
ENDBRANCH   3  22
ENDBRANCH  16   3
ENDBRANCH  10  16
BRANCH  12  17
ATOM     17  C   UNL     1      -3.816  -1.577  24.742  0.00  0.00    +0.105 C 
BRANCH  17  21
ATOM      1  O   UNL     1      -4.512   0.719  25.188  0.00  0.00    -0.419 OA
ATOM      4  N   UNL     1      -3.356   0.466  23.291  0.00  0.00    -0.112 NA
ATOM      5  N   UNL     1      -3.683   1.803  23.416  0.00  0.00    -0.106 NA
ATOM     21  C   UNL     1      -3.859  -0.129  24.347  0.00  0.00    +0.218 A 
ATOM     23  C   UNL     1      -4.358   1.904  24.538  0.00  0.00    +0.266 A 
BRANCH  23  26
ATOM      7  N   UNL     1      -4.170   4.295  25.115  0.00  0.00    -0.329 N 
ATOM      8  N   UNL     1      -6.206   4.755  25.876  0.00  0.00    -0.243 NA
ATOM     26  C   UNL     1      -4.877   3.129  25.026  0.00  0.00    +0.125 A 
ATOM     29  C   UNL     1      -6.129   3.438  25.501  0.00  0.00    +0.143 A 
ATOM     30  C   UNL     1      -5.010   5.243  25.630  0.00  0.00    +0.199 A 
ATOM     31  C   UNL     1      -2.792   4.514  24.740  0.00  0.00    +0.150 C 
ENDBRANCH  23  26
ENDBRANCH  17  21
ENDBRANCH  12  17
TORSDOF 8
ENDMDL
MODEL 7
REMARK VINA RESULT:       1.4      2.289      6.708
REMARK  Name = 45784106
REMARK  13 active torsions:
REMARK  status: ('A' for Active; 'I' for Inactive)
REMARK    1  A    between atoms: O_2  and  C_28
REMARK    2  A    between atoms: O_2  and  C_32
REMARK    3  A    between atoms: N_3  and  C_16
REMARK    4  A    between atoms: N_3  and  C_22
REMARK    5  A    between atoms: N_7  and  C_31
REMARK    6  A    between atoms: C_9  and  C_13
REMARK    7  A    between atoms: C_10  and  C_16
REMARK    8  A    between atoms: C_12  and  C_17
REMARK    9  A    between atoms: C_13  and  C_18
REMARK   10  A    between atoms: C_13  and  C_19
REMARK   11  A    between atoms: C_14  and  C_20
REMARK   12  A    between atoms: C_17  and  C_21
REMARK   13  A    between atoms: C_23  and  C_26
REMARK                            x       y       z     vdW  Elec       q    Type
REMARK                         _______ _______ _______ _____ _____    ______ ____
ROOT
ATOM      9  C   UNL     1      -1.757  -0.655  25.133  0.00  0.00    +0.000 C 
ATOM     10  C   UNL     1      -1.384  -2.042  24.554  0.00  0.00    +0.032 C 
ATOM     11  C   UNL     1      -3.113  -0.721  25.851  0.00  0.00    +0.012 C 
ATOM     12  C   UNL     1      -4.247  -1.180  24.915  0.00  0.00    +0.024 C 
ATOM     14  C   UNL     1      -3.850  -2.397  24.105  0.00  0.00    -0.073 C 
ATOM     15  C   UNL     1      -2.566  -2.775  23.965  0.00  0.00    -0.022 C 
ATOM     20  C   UNL     1      -4.965  -3.199  23.495  0.00  0.00    +0.039 C 
ENDROOT
BRANCH   9  13
ATOM     13  C   UNL     1      -0.686  -0.133  26.096  0.00  0.00    -0.013 C 
ATOM     18  C   UNL     1      -0.797  -0.833  27.446  0.00  0.00    +0.007 C 
ATOM     19  C   UNL     1      -0.807   1.378  26.259  0.00  0.00    +0.007 C 
ENDBRANCH   9  13
BRANCH  10  16
ATOM     16  C   UNL     1      -0.281  -1.920  23.496  0.00  0.00    +0.109 C 
BRANCH  16   3
ATOM      3  N   UNL     1       0.279  -0.598  23.535  0.00  0.00    -0.342 N 
ATOM     33  H   UNL     1      -0.335   0.204  23.620  0.00  0.00    +0.146 HD
BRANCH   3  22
ATOM      6  N   UNL     1       3.392   1.278  22.982  0.00  0.00    -0.219 NA
ATOM     22  C   UNL     1       1.637  -0.326  23.416  0.00  0.00    +0.046 A 
ATOM     24  C   UNL     1       2.585  -1.326  23.598  0.00  0.00    +0.029 A 
ATOM     25  C   UNL     1       2.087   0.947  23.112  0.00  0.00    +0.137 A 
ATOM     27  C   UNL     1       3.938  -1.024  23.473  0.00  0.00    +0.069 A 
ATOM     28  C   UNL     1       4.285   0.281  23.167  0.00  0.00    +0.214 A 
BRANCH  28   2
ATOM      2  O   UNL     1       5.611   0.603  23.039  0.00  0.00    -0.480 OA
ATOM     32  C   UNL     1       6.544  -0.263  23.676  0.00  0.00    +0.279 C 
ENDBRANCH  28   2
ENDBRANCH   3  22
ENDBRANCH  16   3
ENDBRANCH  10  16
BRANCH  12  17
ATOM     17  C   UNL     1      -4.705  -0.038  24.001  0.00  0.00    +0.105 C 
BRANCH  17  21
ATOM      1  O   UNL     1      -3.340   1.970  24.247  0.00  0.00    -0.419 OA
ATOM      4  N   UNL     1      -5.176   1.949  25.524  0.00  0.00    -0.112 NA
ATOM      5  N   UNL     1      -4.504   3.133  25.763  0.00  0.00    -0.106 NA
ATOM     21  C   UNL     1      -4.461   1.302  24.633  0.00  0.00    +0.218 A 
ATOM     23  C   UNL     1      -3.438   3.102  24.996  0.00  0.00    +0.266 A 
BRANCH  23  26
ATOM      7  N   UNL     1      -1.236   4.040  24.400  0.00  0.00    -0.329 N 
ATOM      8  N   UNL     1      -1.390   6.120  25.165  0.00  0.00    -0.243 NA
ATOM     26  C   UNL     1      -2.482   4.146  24.951  0.00  0.00    +0.125 A 
ATOM     29  C   UNL     1      -2.553   5.438  25.416  0.00  0.00    +0.143 A 
ATOM     30  C   UNL     1      -0.618   5.250  24.552  0.00  0.00    +0.199 A 
ATOM     31  C   UNL     1      -0.655   2.878  23.767  0.00  0.00    +0.150 C 
ENDBRANCH  23  26
ENDBRANCH  17  21
ENDBRANCH  12  17
TORSDOF 8
ENDMDL
