MODEL 1
REMARK VINA RESULT:       7.3      0.000      0.000
REMARK  Name = 11886088
REMARK  9 active torsions:
REMARK  status: ('A' for Active; 'I' for Inactive)
REMARK    1  A    between atoms: O_3  and  C_16
REMARK    2  A    between atoms: O_3  and  C_21
REMARK    3  A    between atoms: N_7  and  C_15
REMARK    4  A    between atoms: N_11  and  C_32
REMARK    5  A    between atoms: N_12  and  C_25
REMARK    6  A    between atoms: C_19  and  C_20
REMARK    7  A    between atoms: C_24  and  C_25
REMARK    8  A    between atoms: C_37  and  C_38
REMARK    9  A    between atoms: C_38  and  C_39
REMARK                            x       y       z     vdW  Elec       q    Type
REMARK                         _______ _______ _______ _____ _____    ______ ____
ROOT
ATOM      1  O   UNL     1      -4.000   2.530  22.456  0.00  0.00    -0.368 OA
ATOM      2  O   UNL     1      -4.601   2.354  25.888  0.00  0.00    -0.368 OA
ATOM     13  C   UNL     1      -4.630   1.704  24.613  0.00  0.00    +0.177 C 
ATOM     14  C   UNL     1      -4.871   2.767  23.558  0.00  0.00    +0.192 C 
ATOM     15  C   UNL     1      -3.275   1.131  24.230  0.00  0.00    +0.168 C 
ATOM     16  C   UNL     1      -4.584   4.070  24.278  0.00  0.00    +0.235 C 
ATOM     17  C   UNL     1      -3.255   1.329  22.718  0.00  0.00    +0.190 C 
ATOM     18  C   UNL     1      -4.990   3.727  25.697  0.00  0.00    +0.207 C 
ENDROOT
BRANCH  15   7
ATOM      7  N   UNL     1      -3.032  -0.233  24.675  0.00  0.00    -0.217 N 
ATOM      8  N   UNL     1      -3.990  -0.930  25.301  0.00  0.00    -0.043 NA
ATOM      9  N   UNL     1      -2.143  -2.163  25.107  0.00  0.00    -0.108 NA
ATOM     10  N   UNL     1      -3.441  -2.110  25.562  0.00  0.00    -0.023 NA
ATOM     19  C   UNL     1      -1.910  -0.991  24.562  0.00  0.00    +0.182 A 
BRANCH  19  20
ATOM     20  C   UNL     1      -0.687  -0.551  23.942  0.00  0.00    +0.021 A 
ATOM     22  C   UNL     1       0.045   0.494  24.506  0.00  0.00    +0.012 A 
ATOM     23  C   UNL     1      -0.235  -1.169  22.776  0.00  0.00    +0.012 A 
ATOM     24  C   UNL     1       1.681   0.302  22.739  0.00  0.00    -0.033 A 
ATOM     26  C   UNL     1       1.229   0.920  23.905  0.00  0.00    +0.005 A 
ATOM     27  C   UNL     1       0.949  -0.742  22.174  0.00  0.00    +0.005 A 
BRANCH  24  25
ATOM     25  C   UNL     1       2.948   0.758  22.097  0.00  0.00    +0.119 C 
BRANCH  25  12
ATOM      5  O   UNL     1       5.770  -0.874  24.739  0.00  0.00    -0.377 OA
ATOM     12  N   UNL     1       4.119   0.055  22.614  0.00  0.00    -0.294 NA
ATOM     28  C   UNL     1       4.984   0.970  23.373  0.00  0.00    +0.113 C 
ATOM     29  C   UNL     1       3.716  -1.075  23.463  0.00  0.00    +0.113 C 
ATOM     30  C   UNL     1       6.193   0.211  23.913  0.00  0.00    +0.175 C 
ATOM     31  C   UNL     1       4.954  -1.785  24.003  0.00  0.00    +0.175 C 
ENDBRANCH  25  12
ENDBRANCH  24  25
ENDBRANCH  19  20
ENDBRANCH  15   7
BRANCH  16   3
ATOM      3  O   UNL     1      -3.192   4.367  24.251  0.00  0.00    -0.442 OA
BRANCH   3  21
ATOM      4  O   UNL     1      -2.866   5.108  26.390  0.00  0.00    -0.226 OA
ATOM     11  N   UNL     1      -1.493   3.471  25.433  0.00  0.00    -0.251 N 
ATOM     21  C   UNL     1      -2.534   4.380  25.462  0.00  0.00    +0.405 C 
ATOM     40  H   UNL     1      -1.373   2.953  24.566  0.00  0.00    +0.158 HD
BRANCH  11  32
ATOM     32  C   UNL     1      -0.571   3.170  26.461  0.00  0.00    +0.036 A 
ATOM     33  C   UNL     1       0.799   3.284  26.226  0.00  0.00    +0.024 A 
ATOM     34  C   UNL     1      -1.032   2.756  27.711  0.00  0.00    +0.024 A 
ATOM     35  C   UNL     1       1.707   2.986  27.240  0.00  0.00    +0.013 A 
ATOM     36  C   UNL     1      -0.122   2.458  28.726  0.00  0.00    +0.013 A 
ATOM     37  C   UNL     1       1.247   2.573  28.490  0.00  0.00    +0.017 A 
BRANCH  37  38
ATOM      6  O   UNL     1       1.834   1.710  30.606  0.00  0.00    -0.292 OA
ATOM     38  C   UNL     1       2.196   2.261  29.548  0.00  0.00    +0.160 C 
ATOM     39  C   UNL     1       3.671   2.608  29.384  0.00  0.00    +0.091 C 
ENDBRANCH  37  38
ENDBRANCH  11  32
ENDBRANCH   3  21
ENDBRANCH  16   3
TORSDOF 8
ENDMDL
MODEL 2
REMARK VINA RESULT:      10.3      2.442      5.595
REMARK  Name = 11886088
REMARK  9 active torsions:
REMARK  status: ('A' for Active; 'I' for Inactive)
REMARK    1  A    between atoms: O_3  and  C_16
REMARK    2  A    between atoms: O_3  and  C_21
REMARK    3  A    between atoms: N_7  and  C_15
REMARK    4  A    between atoms: N_11  and  C_32
REMARK    5  A    between atoms: N_12  and  C_25
REMARK    6  A    between atoms: C_19  and  C_20
REMARK    7  A    between atoms: C_24  and  C_25
REMARK    8  A    between atoms: C_37  and  C_38
REMARK    9  A    between atoms: C_38  and  C_39
REMARK                            x       y       z     vdW  Elec       q    Type
REMARK                         _______ _______ _______ _____ _____    ______ ____
ROOT
ATOM      1  O   UNL     1      -2.262   5.001  23.537  0.00  0.00    -0.368 OA
ATOM      2  O   UNL     1      -1.893   3.291  26.556  0.00  0.00    -0.368 OA
ATOM     13  C   UNL     1      -2.648   4.216  25.766  0.00  0.00    +0.177 C 
ATOM     14  C   UNL     1      -1.681   4.925  24.837  0.00  0.00    +0.192 C 
ATOM     15  C   UNL     1      -3.600   3.513  24.812  0.00  0.00    +0.168 C 
ATOM     16  C   UNL     1      -0.432   4.068  24.884  0.00  0.00    +0.235 C 
ATOM     17  C   UNL     1      -3.581   4.436  23.598  0.00  0.00    +0.190 C 
ATOM     18  C   UNL     1      -0.496   3.517  26.294  0.00  0.00    +0.207 C 
ENDROOT
BRANCH  15   7
ATOM      7  N   UNL     1      -4.922   3.234  25.352  0.00  0.00    -0.217 N 
ATOM      8  N   UNL     1      -5.734   4.231  25.728  0.00  0.00    -0.043 NA
ATOM      9  N   UNL     1      -6.724   2.263  26.069  0.00  0.00    -0.108 NA
ATOM     10  N   UNL     1      -6.835   3.632  26.165  0.00  0.00    -0.023 NA
ATOM     19  C   UNL     1      -5.533   2.039  25.565  0.00  0.00    +0.182 A 
BRANCH  19  20
ATOM     20  C   UNL     1      -4.942   0.758  25.272  0.00  0.00    +0.021 A 
ATOM     22  C   UNL     1      -4.153   0.119  26.229  0.00  0.00    +0.012 A 
ATOM     23  C   UNL     1      -5.159   0.157  24.032  0.00  0.00    +0.012 A 
ATOM     24  C   UNL     1      -3.798  -1.722  24.706  0.00  0.00    -0.033 A 
ATOM     26  C   UNL     1      -3.581  -1.122  25.946  0.00  0.00    +0.005 A 
ATOM     27  C   UNL     1      -4.586  -1.084  23.749  0.00  0.00    +0.005 A 
BRANCH  24  25
ATOM     25  C   UNL     1      -3.186  -3.049  24.404  0.00  0.00    +0.119 C 
BRANCH  25  12
ATOM      5  O   UNL     1       0.776  -1.747  24.866  0.00  0.00    -0.377 OA
ATOM     12  N   UNL     1      -1.729  -2.985  24.323  0.00  0.00    -0.294 NA
ATOM     28  C   UNL     1      -1.299  -1.774  23.610  0.00  0.00    +0.113 C 
ATOM     29  C   UNL     1      -1.130  -3.018  25.665  0.00  0.00    +0.113 C 
ATOM     30  C   UNL     1       0.225  -1.722  23.549  0.00  0.00    +0.175 C 
ATOM     31  C   UNL     1       0.390  -2.936  25.556  0.00  0.00    +0.175 C 
ENDBRANCH  25  12
ENDBRANCH  24  25
ENDBRANCH  19  20
ENDBRANCH  15   7
BRANCH  16   3
ATOM      3  O   UNL     1      -0.522   2.990  23.958  0.00  0.00    -0.442 OA
BRANCH   3  21
ATOM      4  O   UNL     1       0.020   0.964  24.870  0.00  0.00    -0.226 OA
ATOM     11  N   UNL     1       1.499   2.115  23.467  0.00  0.00    -0.251 N 
ATOM     21  C   UNL     1       0.322   1.919  24.165  0.00  0.00    +0.405 C 
ATOM     40  H   UNL     1       1.565   2.976  22.930  0.00  0.00    +0.158 HD
BRANCH  11  32
ATOM     32  C   UNL     1       2.625   1.265  23.404  0.00  0.00    +0.036 A 
ATOM     33  C   UNL     1       2.455  -0.106  23.209  0.00  0.00    +0.024 A 
ATOM     34  C   UNL     1       3.908   1.796  23.537  0.00  0.00    +0.024 A 
ATOM     35  C   UNL     1       3.567  -0.945  23.148  0.00  0.00    +0.013 A 
ATOM     36  C   UNL     1       5.021   0.957  23.475  0.00  0.00    +0.013 A 
ATOM     37  C   UNL     1       4.850  -0.414  23.280  0.00  0.00    +0.017 A 
BRANCH  37  38
ATOM      6  O   UNL     1       5.937  -2.492  23.538  0.00  0.00    -0.292 OA
ATOM     38  C   UNL     1       6.010  -1.289  23.216  0.00  0.00    +0.160 C 
ATOM     39  C   UNL     1       7.357  -0.748  22.749  0.00  0.00    +0.091 C 
ENDBRANCH  37  38
ENDBRANCH  11  32
ENDBRANCH   3  21
ENDBRANCH  16   3
TORSDOF 8
ENDMDL
