MODEL 1
REMARK VINA RESULT:       0.0      0.000      0.000
REMARK  Name = 38031273
REMARK  14 active torsions:
REMARK  status: ('A' for Active; 'I' for Inactive)
REMARK    1  A    between atoms: O_3  and  C_31
REMARK    2  A    between atoms: O_3  and  C_32
REMARK    3  A    between atoms: N_4  and  C_15
REMARK    4  A    between atoms: N_6  and  C_23
REMARK    5  A    between atoms: C_8  and  C_12
REMARK    6  A    between atoms: C_9  and  C_15
REMARK    7  A    between atoms: C_11  and  C_16
REMARK    8  A    between atoms: C_12  and  C_17
REMARK    9  A    between atoms: C_12  and  C_18
REMARK   10  A    between atoms: C_13  and  C_19
REMARK   11  A    between atoms: C_16  and  C_20
REMARK   12  A    between atoms: C_22  and  C_24
REMARK   13  A    between atoms: C_23  and  C_25
REMARK   14  A    between atoms: C_23  and  C_26
REMARK                            x       y       z     vdW  Elec       q    Type
REMARK                         _______ _______ _______ _____ _____    ______ ____
ROOT
ATOM      8  C   UNL     1      -3.992   3.261  25.601  0.00  0.00    +0.000 C 
ATOM      9  C   UNL     1      -3.982   3.571  24.083  0.00  0.00    +0.032 C 
ATOM     10  C   UNL     1      -3.080   4.241  26.354  0.00  0.00    +0.012 C 
ATOM     11  C   UNL     1      -1.624   4.183  25.854  0.00  0.00    +0.024 C 
ATOM     13  C   UNL     1      -1.546   4.213  24.341  0.00  0.00    -0.073 C 
ATOM     14  C   UNL     1      -2.614   3.950  23.566  0.00  0.00    -0.022 C 
ATOM     19  C   UNL     1      -0.225   4.597  23.738  0.00  0.00    +0.039 C 
ENDROOT
BRANCH   8  12
ATOM     12  C   UNL     1      -5.408   3.319  26.183  0.00  0.00    -0.013 C 
ATOM     17  C   UNL     1      -6.194   4.468  25.558  0.00  0.00    +0.007 C 
ATOM     18  C   UNL     1      -6.128   1.991  25.968  0.00  0.00    +0.007 C 
ENDBRANCH   8  12
BRANCH   9  15
ATOM     15  C   UNL     1      -4.524   2.387  23.274  0.00  0.00    +0.113 C 
BRANCH  15   4
ATOM      2  O   UNL     1      -4.910  -0.067  24.740  0.00  0.00    -0.253 OA
ATOM      4  N   UNL     1      -3.629   1.275  23.341  0.00  0.00    -0.299 N 
ATOM      6  N   UNL     1      -2.853  -0.811  23.970  0.00  0.00    -0.297 N 
ATOM     21  C   UNL     1      -3.889   0.113  24.079  0.00  0.00    +0.300 C 
ATOM     33  H   UNL     1      -2.788   1.294  22.773  0.00  0.00    +0.150 HD
ATOM     34  H   UNL     1      -2.015  -0.539  23.463  0.00  0.00    +0.150 HD
BRANCH   6  23
ATOM     23  C   UNL     1      -2.872  -2.093  24.635  0.00  0.00    +0.068 C 
ATOM     25  C   UNL     1      -1.483  -2.717  24.621  0.00  0.00    +0.027 C 
ATOM     26  C   UNL     1      -3.899  -3.014  23.989  0.00  0.00    +0.027 C 
ENDBRANCH   6  23
ENDBRANCH  15   4
ENDBRANCH   9  15
BRANCH  11  16
ATOM     16  C   UNL     1      -0.895   2.957  26.417  0.00  0.00    +0.105 C 
BRANCH  16  20
ATOM      1  O   UNL     1       0.889   1.910  25.123  0.00  0.00    -0.420 OA
ATOM      5  N   UNL     1      -1.171   1.302  24.500  0.00  0.00    -0.112 NA
ATOM      7  N   UNL     1      -0.268   0.639  23.691  0.00  0.00    -0.107 NA
ATOM     20  C   UNL     1      -0.452   2.032  25.320  0.00  0.00    +0.218 A 
ATOM     22  C   UNL     1       0.922   1.025  24.089  0.00  0.00    +0.248 A 
BRANCH  22  24
ATOM     24  C   UNL     1       2.226   0.662  23.614  0.00  0.00    +0.039 A 
ATOM     27  C   UNL     1       3.062   1.633  23.063  0.00  0.00    +0.017 A 
ATOM     28  C   UNL     1       2.658  -0.661  23.704  0.00  0.00    +0.017 A 
ATOM     29  C   UNL     1       4.331   1.281  22.602  0.00  0.00    +0.046 A 
ATOM     30  C   UNL     1       3.925  -1.014  23.242  0.00  0.00    +0.046 A 
ATOM     31  C   UNL     1       4.761  -0.043  22.691  0.00  0.00    +0.120 A 
BRANCH  31   3
ATOM      3  O   UNL     1       6.001  -0.386  22.244  0.00  0.00    -0.495 OA
ATOM     32  C   UNL     1       7.058  -0.391  23.202  0.00  0.00    +0.277 C 
ENDBRANCH  31   3
ENDBRANCH  22  24
ENDBRANCH  16  20
ENDBRANCH  11  16
TORSDOF 8
ENDMDL
MODEL 2
REMARK VINA RESULT:       0.7      1.873      4.450
REMARK  Name = 38031273
REMARK  14 active torsions:
REMARK  status: ('A' for Active; 'I' for Inactive)
REMARK    1  A    between atoms: O_3  and  C_31
REMARK    2  A    between atoms: O_3  and  C_32
REMARK    3  A    between atoms: N_4  and  C_15
REMARK    4  A    between atoms: N_6  and  C_23
REMARK    5  A    between atoms: C_8  and  C_12
REMARK    6  A    between atoms: C_9  and  C_15
REMARK    7  A    between atoms: C_11  and  C_16
REMARK    8  A    between atoms: C_12  and  C_17
REMARK    9  A    between atoms: C_12  and  C_18
REMARK   10  A    between atoms: C_13  and  C_19
REMARK   11  A    between atoms: C_16  and  C_20
REMARK   12  A    between atoms: C_22  and  C_24
REMARK   13  A    between atoms: C_23  and  C_25
REMARK   14  A    between atoms: C_23  and  C_26
REMARK                            x       y       z     vdW  Elec       q    Type
REMARK                         _______ _______ _______ _____ _____    ______ ____
ROOT
ATOM      8  C   UNL     1      -3.410   2.158  23.929  0.00  0.00    +0.000 C 
ATOM      9  C   UNL     1      -4.167   3.387  24.492  0.00  0.00    +0.032 C 
ATOM     10  C   UNL     1      -4.372   0.977  23.737  0.00  0.00    +0.012 C 
ATOM     11  C   UNL     1      -5.058   0.565  25.053  0.00  0.00    +0.024 C 
ATOM     13  C   UNL     1      -5.601   1.764  25.805  0.00  0.00    -0.073 C 
ATOM     14  C   UNL     1      -5.200   3.019  25.531  0.00  0.00    -0.022 C 
ATOM     19  C   UNL     1      -6.648   1.493  26.848  0.00  0.00    +0.039 C 
ENDROOT
BRANCH   8  12
ATOM     12  C   UNL     1      -2.712   2.479  22.604  0.00  0.00    -0.013 C 
ATOM     17  C   UNL     1      -2.374   1.193  21.856  0.00  0.00    +0.007 C 
ATOM     18  C   UNL     1      -3.588   3.389  21.747  0.00  0.00    +0.007 C 
ENDBRANCH   8  12
BRANCH   9  15
ATOM     15  C   UNL     1      -3.193   4.414  25.082  0.00  0.00    +0.113 C 
BRANCH  15   4
ATOM      2  O   UNL     1      -0.502   3.380  25.171  0.00  0.00    -0.253 OA
ATOM      4  N   UNL     1      -2.516   3.876  26.219  0.00  0.00    -0.299 N 
ATOM      6  N   UNL     1      -0.788   2.925  27.427  0.00  0.00    -0.297 N 
ATOM     21  C   UNL     1      -1.202   3.391  26.182  0.00  0.00    +0.300 C 
ATOM     33  H   UNL     1      -2.982   3.905  27.120  0.00  0.00    +0.150 HD
ATOM     34  H   UNL     1      -1.466   2.905  28.185  0.00  0.00    +0.150 HD
BRANCH   6  23
ATOM     23  C   UNL     1       0.526   2.373  27.660  0.00  0.00    +0.068 C 
ATOM     25  C   UNL     1       0.830   2.342  29.152  0.00  0.00    +0.027 C 
ATOM     26  C   UNL     1       1.581   3.164  26.898  0.00  0.00    +0.027 C 
ENDBRANCH   6  23
ENDBRANCH  15   4
ENDBRANCH   9  15
BRANCH  11  16
ATOM     16  C   UNL     1      -4.112  -0.255  25.938  0.00  0.00    +0.105 C 
BRANCH  16  20
ATOM      1  O   UNL     1      -1.896  -0.067  24.932  0.00  0.00    -0.420 OA
ATOM      5  N   UNL     1      -2.895  -2.038  24.587  0.00  0.00    -0.112 NA
ATOM      7  N   UNL     1      -1.660  -2.071  23.967  0.00  0.00    -0.107 NA
ATOM     20  C   UNL     1      -2.991  -0.850  25.136  0.00  0.00    +0.218 A 
ATOM     22  C   UNL     1      -1.113  -0.900  24.194  0.00  0.00    +0.248 A 
BRANCH  22  24
ATOM     24  C   UNL     1       0.160  -0.373  23.794  0.00  0.00    +0.039 A 
ATOM     27  C   UNL     1       0.471   0.963  24.043  0.00  0.00    +0.017 A 
ATOM     28  C   UNL     1       1.087  -1.198  23.157  0.00  0.00    +0.017 A 
ATOM     29  C   UNL     1       1.710   1.475  23.655  0.00  0.00    +0.046 A 
ATOM     30  C   UNL     1       2.325  -0.688  22.768  0.00  0.00    +0.046 A 
ATOM     31  C   UNL     1       2.636   0.649  23.017  0.00  0.00    +0.120 A 
BRANCH  31   3
ATOM      3  O   UNL     1       3.846   1.148  22.641  0.00  0.00    -0.495 OA
ATOM     32  C   UNL     1       5.005   0.497  23.159  0.00  0.00    +0.277 C 
ENDBRANCH  31   3
ENDBRANCH  22  24
ENDBRANCH  16  20
ENDBRANCH  11  16
TORSDOF 8
ENDMDL
MODEL 3
REMARK VINA RESULT:       0.8      2.013      6.199
REMARK  Name = 38031273
REMARK  14 active torsions:
REMARK  status: ('A' for Active; 'I' for Inactive)
REMARK    1  A    between atoms: O_3  and  C_31
REMARK    2  A    between atoms: O_3  and  C_32
REMARK    3  A    between atoms: N_4  and  C_15
REMARK    4  A    between atoms: N_6  and  C_23
REMARK    5  A    between atoms: C_8  and  C_12
REMARK    6  A    between atoms: C_9  and  C_15
REMARK    7  A    between atoms: C_11  and  C_16
REMARK    8  A    between atoms: C_12  and  C_17
REMARK    9  A    between atoms: C_12  and  C_18
REMARK   10  A    between atoms: C_13  and  C_19
REMARK   11  A    between atoms: C_16  and  C_20
REMARK   12  A    between atoms: C_22  and  C_24
REMARK   13  A    between atoms: C_23  and  C_25
REMARK   14  A    between atoms: C_23  and  C_26
REMARK                            x       y       z     vdW  Elec       q    Type
REMARK                         _______ _______ _______ _____ _____    ______ ____
ROOT
ATOM      8  C   UNL     1      -2.604   2.608  23.826  0.00  0.00    +0.000 C 
ATOM      9  C   UNL     1      -1.111   3.003  23.941  0.00  0.00    +0.032 C 
ATOM     10  C   UNL     1      -3.457   3.833  23.465  0.00  0.00    +0.012 C 
ATOM     11  C   UNL     1      -3.330   4.959  24.509  0.00  0.00    +0.024 C 
ATOM     13  C   UNL     1      -1.884   5.226  24.877  0.00  0.00    -0.073 C 
ATOM     14  C   UNL     1      -0.904   4.345  24.603  0.00  0.00    -0.022 C 
ATOM     19  C   UNL     1      -1.582   6.547  25.526  0.00  0.00    +0.039 C 
ENDROOT
BRANCH   8  12
ATOM     12  C   UNL     1      -2.821   1.502  22.788  0.00  0.00    -0.013 C 
ATOM     17  C   UNL     1      -2.656   2.058  21.376  0.00  0.00    +0.007 C 
ATOM     18  C   UNL     1      -1.854   0.347  23.030  0.00  0.00    +0.007 C 
ENDBRANCH   8  12
BRANCH   9  15
ATOM     15  C   UNL     1      -0.313   1.934  24.695  0.00  0.00    +0.113 C 
BRANCH  15   4
ATOM      2  O   UNL     1       1.139  -0.201  23.408  0.00  0.00    -0.253 OA
ATOM      4  N   UNL     1       1.058   1.946  24.293  0.00  0.00    -0.299 N 
ATOM      6  N   UNL     1       3.029   1.145  23.385  0.00  0.00    -0.297 N 
ATOM     21  C   UNL     1       1.695   0.865  23.670  0.00  0.00    +0.300 C 
ATOM     33  H   UNL     1       1.587   2.806  24.400  0.00  0.00    +0.150 HD
ATOM     34  H   UNL     1       3.417   2.026  23.710  0.00  0.00    +0.150 HD
BRANCH   6  23
ATOM     23  C   UNL     1       3.909   0.197  22.743  0.00  0.00    +0.068 C 
ATOM     25  C   UNL     1       5.319   0.323  23.302  0.00  0.00    +0.027 C 
ATOM     26  C   UNL     1       3.894   0.391  21.232  0.00  0.00    +0.027 C 
ENDBRANCH   6  23
ENDBRANCH  15   4
ENDBRANCH   9  15
BRANCH  11  16
ATOM     16  C   UNL     1      -4.166   4.653  25.756  0.00  0.00    +0.105 C 
BRANCH  16  20
ATOM      1  O   UNL     1      -4.084   2.239  25.407  0.00  0.00    -0.420 OA
ATOM      5  N   UNL     1      -6.145   3.049  25.721  0.00  0.00    -0.112 NA
ATOM      7  N   UNL     1      -6.247   1.683  25.537  0.00  0.00    -0.107 NA
ATOM     20  C   UNL     1      -4.865   3.330  25.637  0.00  0.00    +0.218 A 
ATOM     22  C   UNL     1      -5.020   1.252  25.357  0.00  0.00    +0.248 A 
BRANCH  22  24
ATOM     24  C   UNL     1      -4.523  -0.073  25.122  0.00  0.00    +0.039 A 
ATOM     27  C   UNL     1      -4.949  -0.788  24.003  0.00  0.00    +0.017 A 
ATOM     28  C   UNL     1      -3.615  -0.645  26.012  0.00  0.00    +0.017 A 
ATOM     29  C   UNL     1      -4.464  -2.077  23.774  0.00  0.00    +0.046 A 
ATOM     30  C   UNL     1      -3.131  -1.932  25.785  0.00  0.00    +0.046 A 
ATOM     31  C   UNL     1      -3.557  -2.648  24.665  0.00  0.00    +0.120 A 
BRANCH  31   3
ATOM      3  O   UNL     1      -3.082  -3.904  24.441  0.00  0.00    -0.495 OA
ATOM     32  C   UNL     1      -2.163  -4.068  23.361  0.00  0.00    +0.277 C 
ENDBRANCH  31   3
ENDBRANCH  22  24
ENDBRANCH  16  20
ENDBRANCH  11  16
TORSDOF 8
ENDMDL
MODEL 4
REMARK VINA RESULT:       0.8      1.887      5.498
REMARK  Name = 38031273
REMARK  14 active torsions:
REMARK  status: ('A' for Active; 'I' for Inactive)
REMARK    1  A    between atoms: O_3  and  C_31
REMARK    2  A    between atoms: O_3  and  C_32
REMARK    3  A    between atoms: N_4  and  C_15
REMARK    4  A    between atoms: N_6  and  C_23
REMARK    5  A    between atoms: C_8  and  C_12
REMARK    6  A    between atoms: C_9  and  C_15
REMARK    7  A    between atoms: C_11  and  C_16
REMARK    8  A    between atoms: C_12  and  C_17
REMARK    9  A    between atoms: C_12  and  C_18
REMARK   10  A    between atoms: C_13  and  C_19
REMARK   11  A    between atoms: C_16  and  C_20
REMARK   12  A    between atoms: C_22  and  C_24
REMARK   13  A    between atoms: C_23  and  C_25
REMARK   14  A    between atoms: C_23  and  C_26
REMARK                            x       y       z     vdW  Elec       q    Type
REMARK                         _______ _______ _______ _____ _____    ______ ____
ROOT
ATOM      8  C   UNL     1      -3.109   2.943  23.775  0.00  0.00    +0.000 C 
ATOM      9  C   UNL     1      -1.800   3.183  24.568  0.00  0.00    +0.032 C 
ATOM     10  C   UNL     1      -4.025   4.173  23.868  0.00  0.00    +0.012 C 
ATOM     11  C   UNL     1      -4.393   4.517  25.323  0.00  0.00    +0.024 C 
ATOM     13  C   UNL     1      -3.177   4.509  26.228  0.00  0.00    -0.073 C 
ATOM     14  C   UNL     1      -2.022   3.919  25.868  0.00  0.00    -0.022 C 
ATOM     19  C   UNL     1      -3.302   5.234  27.538  0.00  0.00    +0.039 C 
ENDROOT
BRANCH   8  12
ATOM     12  C   UNL     1      -2.832   2.613  22.305  0.00  0.00    -0.013 C 
ATOM     17  C   UNL     1      -2.679   1.107  22.117  0.00  0.00    +0.007 C 
ATOM     18  C   UNL     1      -3.946   3.159  21.417  0.00  0.00    +0.007 C 
ENDBRANCH   8  12
BRANCH   9  15
ATOM     15  C   UNL     1      -1.073   1.862  24.847  0.00  0.00    +0.113 C 
BRANCH  15   4
ATOM      2  O   UNL     1       0.461  -0.249  23.618  0.00  0.00    -0.253 OA
ATOM      4  N   UNL     1       0.285   1.929  24.408  0.00  0.00    -0.299 N 
ATOM      6  N   UNL     1       2.274   1.193  23.486  0.00  0.00    -0.297 N 
ATOM     21  C   UNL     1       0.964   0.856  23.818  0.00  0.00    +0.300 C 
ATOM     33  H   UNL     1       0.769   2.820  24.464  0.00  0.00    +0.150 HD
ATOM     34  H   UNL     1       2.622   2.107  23.762  0.00  0.00    +0.150 HD
BRANCH   6  23
ATOM     23  C   UNL     1       3.189   0.264  22.864  0.00  0.00    +0.068 C 
ATOM     25  C   UNL     1       4.627   0.722  23.068  0.00  0.00    +0.027 C 
ATOM     26  C   UNL     1       2.864   0.104  21.384  0.00  0.00    +0.027 C 
ENDBRANCH   6  23
ENDBRANCH  15   4
ENDBRANCH   9  15
BRANCH  11  16
ATOM     16  C   UNL     1      -5.479   3.577  25.856  0.00  0.00    +0.105 C 
BRANCH  16  20
ATOM      1  O   UNL     1      -4.245   1.495  25.542  0.00  0.00    -0.420 OA
ATOM      5  N   UNL     1      -6.200   1.574  24.458  0.00  0.00    -0.112 NA
ATOM      7  N   UNL     1      -5.614   0.350  24.192  0.00  0.00    -0.107 NA
ATOM     20  C   UNL     1      -5.367   2.208  25.248  0.00  0.00    +0.218 A 
ATOM     22  C   UNL     1      -4.476   0.348  24.845  0.00  0.00    +0.248 A 
BRANCH  22  24
ATOM     24  C   UNL     1      -3.457  -0.657  24.937  0.00  0.00    +0.039 A 
ATOM     27  C   UNL     1      -3.578  -1.841  24.209  0.00  0.00    +0.017 A 
ATOM     28  C   UNL     1      -2.344  -0.450  25.752  0.00  0.00    +0.017 A 
ATOM     29  C   UNL     1      -2.586  -2.819  24.298  0.00  0.00    +0.046 A 
ATOM     30  C   UNL     1      -1.353  -1.427  25.842  0.00  0.00    +0.046 A 
ATOM     31  C   UNL     1      -1.475  -2.611  25.114  0.00  0.00    +0.120 A 
BRANCH  31   3
ATOM      3  O   UNL     1      -0.505  -3.563  25.199  0.00  0.00    -0.495 OA
ATOM     32  C   UNL     1       0.807  -3.125  25.547  0.00  0.00    +0.277 C 
ENDBRANCH  31   3
ENDBRANCH  22  24
ENDBRANCH  16  20
ENDBRANCH  11  16
TORSDOF 8
ENDMDL
MODEL 5
REMARK VINA RESULT:       1.8      2.150      4.937
REMARK  Name = 38031273
REMARK  14 active torsions:
REMARK  status: ('A' for Active; 'I' for Inactive)
REMARK    1  A    between atoms: O_3  and  C_31
REMARK    2  A    between atoms: O_3  and  C_32
REMARK    3  A    between atoms: N_4  and  C_15
REMARK    4  A    between atoms: N_6  and  C_23
REMARK    5  A    between atoms: C_8  and  C_12
REMARK    6  A    between atoms: C_9  and  C_15
REMARK    7  A    between atoms: C_11  and  C_16
REMARK    8  A    between atoms: C_12  and  C_17
REMARK    9  A    between atoms: C_12  and  C_18
REMARK   10  A    between atoms: C_13  and  C_19
REMARK   11  A    between atoms: C_16  and  C_20
REMARK   12  A    between atoms: C_22  and  C_24
REMARK   13  A    between atoms: C_23  and  C_25
REMARK   14  A    between atoms: C_23  and  C_26
REMARK                            x       y       z     vdW  Elec       q    Type
REMARK                         _______ _______ _______ _____ _____    ______ ____
ROOT
ATOM      8  C   UNL     1      -3.578   2.663  23.389  0.00  0.00    +0.000 C 
ATOM      9  C   UNL     1      -2.986   3.432  24.595  0.00  0.00    +0.032 C 
ATOM     10  C   UNL     1      -5.113   2.676  23.445  0.00  0.00    +0.012 C 
ATOM     11  C   UNL     1      -5.654   2.042  24.740  0.00  0.00    +0.024 C 
ATOM     13  C   UNL     1      -4.927   2.559  25.966  0.00  0.00    -0.073 C 
ATOM     14  C   UNL     1      -3.741   3.190  25.880  0.00  0.00    -0.022 C 
ATOM     19  C   UNL     1      -5.615   2.376  27.290  0.00  0.00    +0.039 C 
ENDROOT
BRANCH   8  12
ATOM     12  C   UNL     1      -3.103   3.246  22.054  0.00  0.00    -0.013 C 
ATOM     17  C   UNL     1      -2.433   2.165  21.210  0.00  0.00    +0.007 C 
ATOM     18  C   UNL     1      -4.273   3.873  21.300  0.00  0.00    +0.007 C 
ENDBRANCH   8  12
BRANCH   9  15
ATOM     15  C   UNL     1      -1.506   3.086  24.800  0.00  0.00    +0.113 C 
BRANCH  15   4
ATOM      2  O   UNL     1       0.975   2.212  25.983  0.00  0.00    -0.253 OA
ATOM      4  N   UNL     1      -1.181   3.052  26.190  0.00  0.00    -0.299 N 
ATOM      6  N   UNL     1       0.102   2.685  28.080  0.00  0.00    -0.297 N 
ATOM     21  C   UNL     1       0.051   2.612  26.690  0.00  0.00    +0.300 C 
ATOM     33  H   UNL     1      -1.851   3.429  26.854  0.00  0.00    +0.150 HD
ATOM     34  H   UNL     1      -0.741   2.957  28.579  0.00  0.00    +0.150 HD
BRANCH   6  23
ATOM     23  C   UNL     1       1.262   2.290  28.843  0.00  0.00    +0.068 C 
ATOM     25  C   UNL     1       0.951   2.327  30.334  0.00  0.00    +0.027 C 
ATOM     26  C   UNL     1       2.452   3.178  28.505  0.00  0.00    +0.027 C 
ENDBRANCH   6  23
ENDBRANCH  15   4
ENDBRANCH   9  15
BRANCH  11  16
ATOM     16  C   UNL     1      -5.597   0.513  24.673  0.00  0.00    +0.105 C 
BRANCH  16  20
ATOM      1  O   UNL     1      -3.212   0.179  24.281  0.00  0.00    -0.420 OA
ATOM      5  N   UNL     1      -3.940  -0.629  26.235  0.00  0.00    -0.112 NA
ATOM      7  N   UNL     1      -2.585  -0.885  26.146  0.00  0.00    -0.107 NA
ATOM     20  C   UNL     1      -4.263  -0.007  25.125  0.00  0.00    +0.218 A 
ATOM     22  C   UNL     1      -2.202  -0.397  24.990  0.00  0.00    +0.248 A 
BRANCH  22  24
ATOM     24  C   UNL     1      -0.909  -0.375  24.370  0.00  0.00    +0.039 A 
ATOM     27  C   UNL     1       0.011  -1.389  24.640  0.00  0.00    +0.017 A 
ATOM     28  C   UNL     1      -0.571   0.658  23.497  0.00  0.00    +0.017 A 
ATOM     29  C   UNL     1       1.269  -1.368  24.036  0.00  0.00    +0.046 A 
ATOM     30  C   UNL     1       0.686   0.680  22.894  0.00  0.00    +0.046 A 
ATOM     31  C   UNL     1       1.606  -0.334  23.164  0.00  0.00    +0.120 A 
BRANCH  31   3
ATOM      3  O   UNL     1       2.832  -0.315  22.572  0.00  0.00    -0.495 OA
ATOM     32  C   UNL     1       3.593   0.886  22.693  0.00  0.00    +0.277 C 
ENDBRANCH  31   3
ENDBRANCH  22  24
ENDBRANCH  16  20
ENDBRANCH  11  16
TORSDOF 8
ENDMDL
MODEL 6
REMARK VINA RESULT:       2.1      2.272      4.818
REMARK  Name = 38031273
REMARK  14 active torsions:
REMARK  status: ('A' for Active; 'I' for Inactive)
REMARK    1  A    between atoms: O_3  and  C_31
REMARK    2  A    between atoms: O_3  and  C_32
REMARK    3  A    between atoms: N_4  and  C_15
REMARK    4  A    between atoms: N_6  and  C_23
REMARK    5  A    between atoms: C_8  and  C_12
REMARK    6  A    between atoms: C_9  and  C_15
REMARK    7  A    between atoms: C_11  and  C_16
REMARK    8  A    between atoms: C_12  and  C_17
REMARK    9  A    between atoms: C_12  and  C_18
REMARK   10  A    between atoms: C_13  and  C_19
REMARK   11  A    between atoms: C_16  and  C_20
REMARK   12  A    between atoms: C_22  and  C_24
REMARK   13  A    between atoms: C_23  and  C_25
REMARK   14  A    between atoms: C_23  and  C_26
REMARK                            x       y       z     vdW  Elec       q    Type
REMARK                         _______ _______ _______ _____ _____    ______ ____
ROOT
ATOM      8  C   UNL     1      -3.528   1.590  24.048  0.00  0.00    +0.000 C 
ATOM      9  C   UNL     1      -2.412   1.704  25.115  0.00  0.00    +0.032 C 
ATOM     10  C   UNL     1      -4.789   0.957  24.657  0.00  0.00    +0.012 C 
ATOM     11  C   UNL     1      -4.516  -0.447  25.230  0.00  0.00    +0.024 C 
ATOM     13  C   UNL     1      -3.266  -0.473  26.085  0.00  0.00    -0.073 C 
ATOM     14  C   UNL     1      -2.342   0.504  26.030  0.00  0.00    -0.022 C 
ATOM     19  C   UNL     1      -3.121  -1.625  27.039  0.00  0.00    +0.039 C 
ENDROOT
BRANCH   8  12
ATOM     12  C   UNL     1      -3.875   2.953  23.440  0.00  0.00    -0.013 C 
ATOM     17  C   UNL     1      -3.475   4.077  24.391  0.00  0.00    +0.007 C 
ATOM     18  C   UNL     1      -3.193   3.122  22.086  0.00  0.00    +0.007 C 
ENDBRANCH   8  12
BRANCH   9  15
ATOM     15  C   UNL     1      -1.043   1.928  24.462  0.00  0.00    +0.113 C 
BRANCH  15   4
ATOM      2  O   UNL     1      -0.637   3.547  26.814  0.00  0.00    -0.253 OA
ATOM      4  N   UNL     1       0.005   1.800  25.424  0.00  0.00    -0.299 N 
ATOM      6  N   UNL     1       1.243   2.285  27.317  0.00  0.00    -0.297 N 
ATOM     21  C   UNL     1       0.135   2.629  26.546  0.00  0.00    +0.300 C 
ATOM     33  H   UNL     1       0.656   1.026  25.332  0.00  0.00    +0.150 HD
ATOM     34  H   UNL     1       1.866   1.560  26.970  0.00  0.00    +0.150 HD
BRANCH   6  23
ATOM     23  C   UNL     1       1.603   2.984  28.528  0.00  0.00    +0.068 C 
ATOM     25  C   UNL     1       3.117   3.027  28.684  0.00  0.00    +0.027 C 
ATOM     26  C   UNL     1       0.940   2.336  29.736  0.00  0.00    +0.027 C 
ENDBRANCH   6  23
ENDBRANCH  15   4
ENDBRANCH   9  15
BRANCH  11  16
ATOM     16  C   UNL     1      -4.440  -1.494  24.113  0.00  0.00    +0.105 C 
BRANCH  16  20
ATOM      1  O   UNL     1      -2.084  -1.091  23.618  0.00  0.00    -0.420 OA
ATOM      5  N   UNL     1      -2.577  -3.231  24.046  0.00  0.00    -0.112 NA
ATOM      7  N   UNL     1      -1.223  -3.149  23.784  0.00  0.00    -0.107 NA
ATOM     20  C   UNL     1      -3.039  -2.007  23.937  0.00  0.00    +0.218 A 
ATOM     22  C   UNL     1      -0.980  -1.883  23.539  0.00  0.00    +0.248 A 
BRANCH  22  24
ATOM     24  C   UNL     1       0.247  -1.216  23.210  0.00  0.00    +0.039 A 
ATOM     27  C   UNL     1       0.430  -0.684  21.934  0.00  0.00    +0.017 A 
ATOM     28  C   UNL     1       1.256  -1.101  24.165  0.00  0.00    +0.017 A 
ATOM     29  C   UNL     1       1.624  -0.034  21.614  0.00  0.00    +0.046 A 
ATOM     30  C   UNL     1       2.449  -0.453  23.846  0.00  0.00    +0.046 A 
ATOM     31  C   UNL     1       2.632   0.080  22.570  0.00  0.00    +0.120 A 
BRANCH  31   3
ATOM      3  O   UNL     1       3.795   0.716  22.259  0.00  0.00    -0.495 OA
ATOM     32  C   UNL     1       4.905   0.504  23.131  0.00  0.00    +0.277 C 
ENDBRANCH  31   3
ENDBRANCH  22  24
ENDBRANCH  16  20
ENDBRANCH  11  16
TORSDOF 8
ENDMDL
MODEL 7
REMARK VINA RESULT:       2.3      2.207      5.758
REMARK  Name = 38031273
REMARK  14 active torsions:
REMARK  status: ('A' for Active; 'I' for Inactive)
REMARK    1  A    between atoms: O_3  and  C_31
REMARK    2  A    between atoms: O_3  and  C_32
REMARK    3  A    between atoms: N_4  and  C_15
REMARK    4  A    between atoms: N_6  and  C_23
REMARK    5  A    between atoms: C_8  and  C_12
REMARK    6  A    between atoms: C_9  and  C_15
REMARK    7  A    between atoms: C_11  and  C_16
REMARK    8  A    between atoms: C_12  and  C_17
REMARK    9  A    between atoms: C_12  and  C_18
REMARK   10  A    between atoms: C_13  and  C_19
REMARK   11  A    between atoms: C_16  and  C_20
REMARK   12  A    between atoms: C_22  and  C_24
REMARK   13  A    between atoms: C_23  and  C_25
REMARK   14  A    between atoms: C_23  and  C_26
REMARK                            x       y       z     vdW  Elec       q    Type
REMARK                         _______ _______ _______ _____ _____    ______ ____
ROOT
ATOM      8  C   UNL     1      -3.021  -0.407  24.647  0.00  0.00    +0.000 C 
ATOM      9  C   UNL     1      -1.838   0.092  23.780  0.00  0.00    +0.032 C 
ATOM     10  C   UNL     1      -4.350  -0.215  23.902  0.00  0.00    +0.012 C 
ATOM     11  C   UNL     1      -4.604   1.259  23.534  0.00  0.00    +0.024 C 
ATOM     13  C   UNL     1      -3.381   1.902  22.912  0.00  0.00    -0.073 C 
ATOM     14  C   UNL     1      -2.154   1.359  23.021  0.00  0.00    -0.022 C 
ATOM     19  C   UNL     1      -3.604   3.161  22.123  0.00  0.00    +0.039 C 
ENDROOT
BRANCH   8  12
ATOM     12  C   UNL     1      -2.856  -1.879  25.041  0.00  0.00    -0.013 C 
ATOM     17  C   UNL     1      -3.148  -2.067  26.527  0.00  0.00    +0.007 C 
ATOM     18  C   UNL     1      -3.767  -2.762  24.194  0.00  0.00    +0.007 C 
ENDBRANCH   8  12
BRANCH   9  15
ATOM     15  C   UNL     1      -0.581   0.306  24.631  0.00  0.00    +0.113 C 
BRANCH  15   4
ATOM      2  O   UNL     1       1.853   1.567  23.733  0.00  0.00    -0.253 OA
ATOM      4  N   UNL     1       0.549  -0.332  24.035  0.00  0.00    -0.299 N 
ATOM      6  N   UNL     1       2.647  -0.511  23.076  0.00  0.00    -0.297 N 
ATOM     21  C   UNL     1       1.700   0.352  23.623  0.00  0.00    +0.300 C 
ATOM     33  H   UNL     1       0.553  -1.345  23.964  0.00  0.00    +0.150 HD
ATOM     34  H   UNL     1       2.397  -1.489  22.957  0.00  0.00    +0.150 HD
BRANCH   6  23
ATOM     23  C   UNL     1       3.923  -0.058  22.574  0.00  0.00    +0.068 C 
ATOM     25  C   UNL     1       5.037  -0.447  23.536  0.00  0.00    +0.027 C 
ATOM     26  C   UNL     1       3.899   1.446  22.334  0.00  0.00    +0.027 C 
ENDBRANCH   6  23
ENDBRANCH  15   4
ENDBRANCH   9  15
BRANCH  11  16
ATOM     16  C   UNL     1      -5.085   2.058  24.750  0.00  0.00    +0.105 C 
BRANCH  16  20
ATOM      1  O   UNL     1      -2.947   2.370  25.884  0.00  0.00    -0.420 OA
ATOM      5  N   UNL     1      -3.924   4.273  25.233  0.00  0.00    -0.112 NA
ATOM      7  N   UNL     1      -2.733   4.596  25.855  0.00  0.00    -0.107 NA
ATOM     20  C   UNL     1      -4.008   2.964  25.273  0.00  0.00    +0.218 A 
ATOM     22  C   UNL     1      -2.197   3.455  26.219  0.00  0.00    +0.248 A 
BRANCH  22  24
ATOM     24  C   UNL     1      -0.965   3.180  26.901  0.00  0.00    +0.039 A 
ATOM     27  C   UNL     1       0.229   3.108  26.183  0.00  0.00    +0.017 A 
ATOM     28  C   UNL     1      -0.961   2.986  28.282  0.00  0.00    +0.017 A 
ATOM     29  C   UNL     1       1.427   2.842  26.846  0.00  0.00    +0.046 A 
ATOM     30  C   UNL     1       0.236   2.720  28.946  0.00  0.00    +0.046 A 
ATOM     31  C   UNL     1       1.430   2.648  28.227  0.00  0.00    +0.120 A 
BRANCH  31   3
ATOM      3  O   UNL     1       2.599   2.391  28.875  0.00  0.00    -0.495 OA
ATOM     32  C   UNL     1       2.507   1.871  30.201  0.00  0.00    +0.277 C 
ENDBRANCH  31   3
ENDBRANCH  22  24
ENDBRANCH  16  20
ENDBRANCH  11  16
TORSDOF 8
ENDMDL
MODEL 8
REMARK VINA RESULT:       2.5      1.656      3.395
REMARK  Name = 38031273
REMARK  14 active torsions:
REMARK  status: ('A' for Active; 'I' for Inactive)
REMARK    1  A    between atoms: O_3  and  C_31
REMARK    2  A    between atoms: O_3  and  C_32
REMARK    3  A    between atoms: N_4  and  C_15
REMARK    4  A    between atoms: N_6  and  C_23
REMARK    5  A    between atoms: C_8  and  C_12
REMARK    6  A    between atoms: C_9  and  C_15
REMARK    7  A    between atoms: C_11  and  C_16
REMARK    8  A    between atoms: C_12  and  C_17
REMARK    9  A    between atoms: C_12  and  C_18
REMARK   10  A    between atoms: C_13  and  C_19
REMARK   11  A    between atoms: C_16  and  C_20
REMARK   12  A    between atoms: C_22  and  C_24
REMARK   13  A    between atoms: C_23  and  C_25
REMARK   14  A    between atoms: C_23  and  C_26
REMARK                            x       y       z     vdW  Elec       q    Type
REMARK                         _______ _______ _______ _____ _____    ______ ____
ROOT
ATOM      8  C   UNL     1      -1.930   3.949  24.846  0.00  0.00    +0.000 C 
ATOM      9  C   UNL     1      -2.233   3.099  26.106  0.00  0.00    +0.032 C 
ATOM     10  C   UNL     1      -3.216   4.603  24.320  0.00  0.00    +0.012 C 
ATOM     11  C   UNL     1      -4.294   3.563  23.959  0.00  0.00    +0.024 C 
ATOM     13  C   UNL     1      -4.461   2.524  25.049  0.00  0.00    -0.073 C 
ATOM     14  C   UNL     1      -3.535   2.340  26.009  0.00  0.00    -0.022 C 
ATOM     19  C   UNL     1      -5.738   1.732  25.041  0.00  0.00    +0.039 C 
ENDROOT
BRANCH   8  12
ATOM     12  C   UNL     1      -0.878   5.026  25.127  0.00  0.00    -0.013 C 
ATOM     17  C   UNL     1       0.261   4.934  24.115  0.00  0.00    +0.007 C 
ATOM     18  C   UNL     1      -1.514   6.413  25.100  0.00  0.00    +0.007 C 
ENDBRANCH   8  12
BRANCH   9  15
ATOM     15  C   UNL     1      -1.091   2.118  26.398  0.00  0.00    +0.113 C 
BRANCH  15   4
ATOM      2  O   UNL     1      -1.772  -0.579  27.162  0.00  0.00    -0.253 OA
ATOM      4  N   UNL     1      -1.172   0.977  25.543  0.00  0.00    -0.299 N 
ATOM      6  N   UNL     1      -1.517  -1.233  24.951  0.00  0.00    -0.297 N 
ATOM     21  C   UNL     1      -1.511  -0.307  25.992  0.00  0.00    +0.300 C 
ATOM     33  H   UNL     1      -1.044   1.108  24.544  0.00  0.00    +0.150 HD
ATOM     34  H   UNL     1      -1.212  -0.927  24.031  0.00  0.00    +0.150 HD
BRANCH   6  23
ATOM     23  C   UNL     1      -1.833  -2.628  25.146  0.00  0.00    +0.068 C 
ATOM     25  C   UNL     1      -1.289  -3.460  23.993  0.00  0.00    +0.027 C 
ATOM     26  C   UNL     1      -3.337  -2.818  25.303  0.00  0.00    +0.027 C 
ENDBRANCH   6  23
ENDBRANCH  15   4
ENDBRANCH   9  15
BRANCH  11  16
ATOM     16  C   UNL     1      -3.992   2.900  22.611  0.00  0.00    +0.105 C 
BRANCH  16  20
ATOM      1  O   UNL     1      -1.713   2.030  22.673  0.00  0.00    -0.420 OA
ATOM      5  N   UNL     1      -3.294   0.479  22.985  0.00  0.00    -0.112 NA
ATOM      7  N   UNL     1      -2.064  -0.148  23.044  0.00  0.00    -0.107 NA
ATOM     20  C   UNL     1      -3.041   1.748  22.767  0.00  0.00    +0.218 A 
ATOM     22  C   UNL     1      -1.171   0.795  22.856  0.00  0.00    +0.248 A 
BRANCH  22  24
ATOM     24  C   UNL     1       0.262   0.726  22.816  0.00  0.00    +0.039 A 
ATOM     27  C   UNL     1       1.024   1.627  23.561  0.00  0.00    +0.017 A 
ATOM     28  C   UNL     1       0.892  -0.241  22.035  0.00  0.00    +0.017 A 
ATOM     29  C   UNL     1       2.417   1.559  23.523  0.00  0.00    +0.046 A 
ATOM     30  C   UNL     1       2.284  -0.309  21.996  0.00  0.00    +0.046 A 
ATOM     31  C   UNL     1       3.046   0.592  22.740  0.00  0.00    +0.120 A 
BRANCH  31   3
ATOM      3  O   UNL     1       4.406   0.524  22.706  0.00  0.00    -0.495 OA
ATOM     32  C   UNL     1       5.037  -0.338  23.652  0.00  0.00    +0.277 C 
ENDBRANCH  31   3
ENDBRANCH  22  24
ENDBRANCH  16  20
ENDBRANCH  11  16
TORSDOF 8
ENDMDL
MODEL 9
REMARK VINA RESULT:       2.9      1.422      1.990
REMARK  Name = 38031273
REMARK  14 active torsions:
REMARK  status: ('A' for Active; 'I' for Inactive)
REMARK    1  A    between atoms: O_3  and  C_31
REMARK    2  A    between atoms: O_3  and  C_32
REMARK    3  A    between atoms: N_4  and  C_15
REMARK    4  A    between atoms: N_6  and  C_23
REMARK    5  A    between atoms: C_8  and  C_12
REMARK    6  A    between atoms: C_9  and  C_15
REMARK    7  A    between atoms: C_11  and  C_16
REMARK    8  A    between atoms: C_12  and  C_17
REMARK    9  A    between atoms: C_12  and  C_18
REMARK   10  A    between atoms: C_13  and  C_19
REMARK   11  A    between atoms: C_16  and  C_20
REMARK   12  A    between atoms: C_22  and  C_24
REMARK   13  A    between atoms: C_23  and  C_25
REMARK   14  A    between atoms: C_23  and  C_26
REMARK                            x       y       z     vdW  Elec       q    Type
REMARK                         _______ _______ _______ _____ _____    ______ ____
ROOT
ATOM      8  C   UNL     1      -3.642   3.030  25.372  0.00  0.00    +0.000 C 
ATOM      9  C   UNL     1      -4.601   2.713  24.197  0.00  0.00    +0.032 C 
ATOM     10  C   UNL     1      -2.336   3.645  24.848  0.00  0.00    +0.012 C 
ATOM     11  C   UNL     1      -1.608   2.711  23.862  0.00  0.00    +0.024 C 
ATOM     13  C   UNL     1      -2.552   2.142  22.823  0.00  0.00    -0.073 C 
ATOM     14  C   UNL     1      -3.889   2.164  22.984  0.00  0.00    -0.022 C 
ATOM     19  C   UNL     1      -1.931   1.587  21.572  0.00  0.00    +0.039 C 
ENDROOT
BRANCH   8  12
ATOM     12  C   UNL     1      -4.286   3.974  26.393  0.00  0.00    -0.013 C 
ATOM     17  C   UNL     1      -3.249   4.948  26.944  0.00  0.00    +0.007 C 
ATOM     18  C   UNL     1      -5.453   4.727  25.760  0.00  0.00    +0.007 C 
ENDBRANCH   8  12
BRANCH   9  15
ATOM     15  C   UNL     1      -5.701   1.737  24.629  0.00  0.00    +0.113 C 
BRANCH  15   4
ATOM      2  O   UNL     1      -4.121  -0.427  23.561  0.00  0.00    -0.253 OA
ATOM      4  N   UNL     1      -5.147   0.637  25.354  0.00  0.00    -0.299 N 
ATOM      6  N   UNL     1      -3.971  -1.325  25.695  0.00  0.00    -0.297 N 
ATOM     21  C   UNL     1      -4.387  -0.379  24.761  0.00  0.00    +0.300 C 
ATOM     33  H   UNL     1      -5.249   0.621  26.364  0.00  0.00    +0.150 HD
ATOM     34  H   UNL     1      -4.307  -1.240  26.650  0.00  0.00    +0.150 HD
BRANCH   6  23
ATOM     23  C   UNL     1      -3.173  -2.476  25.342  0.00  0.00    +0.068 C 
ATOM     25  C   UNL     1      -1.757  -2.047  24.981  0.00  0.00    +0.027 C 
ATOM     26  C   UNL     1      -3.824  -3.248  24.202  0.00  0.00    +0.027 C 
ENDBRANCH   6  23
ENDBRANCH  15   4
ENDBRANCH   9  15
BRANCH  11  16
ATOM     16  C   UNL     1      -0.869   1.592  24.604  0.00  0.00    +0.105 C 
BRANCH  16  20
ATOM      1  O   UNL     1       1.417   0.848  24.184  0.00  0.00    -0.420 OA
ATOM      5  N   UNL     1      -0.016   0.377  22.534  0.00  0.00    -0.112 NA
ATOM      7  N   UNL     1       1.229  -0.096  22.165  0.00  0.00    -0.107 NA
ATOM     20  C   UNL     1       0.141   0.920  23.718  0.00  0.00    +0.218 A 
ATOM     22  C   UNL     1       2.034   0.201  23.158  0.00  0.00    +0.248 A 
BRANCH  22  24
ATOM     24  C   UNL     1       3.437  -0.047  23.326  0.00  0.00    +0.039 A 
ATOM     27  C   UNL     1       4.359   0.973  23.091  0.00  0.00    +0.017 A 
ATOM     28  C   UNL     1       3.879  -1.309  23.724  0.00  0.00    +0.017 A 
ATOM     29  C   UNL     1       5.723   0.731  23.256  0.00  0.00    +0.046 A 
ATOM     30  C   UNL     1       5.242  -1.551  23.888  0.00  0.00    +0.046 A 
ATOM     31  C   UNL     1       6.164  -0.531  23.654  0.00  0.00    +0.120 A 
BRANCH  31   3
ATOM      3  O   UNL     1       7.495  -0.766  23.817  0.00  0.00    -0.495 OA
ATOM     32  C   UNL     1       8.383  -0.150  22.885  0.00  0.00    +0.277 C 
ENDBRANCH  31   3
ENDBRANCH  22  24
ENDBRANCH  16  20
ENDBRANCH  11  16
TORSDOF 8
ENDMDL
MODEL 10
REMARK VINA RESULT:       3.0      3.132      6.281
REMARK  Name = 38031273
REMARK  14 active torsions:
REMARK  status: ('A' for Active; 'I' for Inactive)
REMARK    1  A    between atoms: O_3  and  C_31
REMARK    2  A    between atoms: O_3  and  C_32
REMARK    3  A    between atoms: N_4  and  C_15
REMARK    4  A    between atoms: N_6  and  C_23
REMARK    5  A    between atoms: C_8  and  C_12
REMARK    6  A    between atoms: C_9  and  C_15
REMARK    7  A    between atoms: C_11  and  C_16
REMARK    8  A    between atoms: C_12  and  C_17
REMARK    9  A    between atoms: C_12  and  C_18
REMARK   10  A    between atoms: C_13  and  C_19
REMARK   11  A    between atoms: C_16  and  C_20
REMARK   12  A    between atoms: C_22  and  C_24
REMARK   13  A    between atoms: C_23  and  C_25
REMARK   14  A    between atoms: C_23  and  C_26
REMARK                            x       y       z     vdW  Elec       q    Type
REMARK                         _______ _______ _______ _____ _____    ______ ____
ROOT
ATOM      8  C   UNL     1      -2.313   2.657  23.753  0.00  0.00    +0.000 C 
ATOM      9  C   UNL     1      -0.853   3.164  23.655  0.00  0.00    +0.032 C 
ATOM     10  C   UNL     1      -3.298   3.821  23.572  0.00  0.00    +0.012 C 
ATOM     11  C   UNL     1      -3.094   4.926  24.626  0.00  0.00    +0.024 C 
ATOM     13  C   UNL     1      -1.633   5.295  24.779  0.00  0.00    -0.073 C 
ATOM     14  C   UNL     1      -0.644   4.501  24.326  0.00  0.00    -0.022 C 
ATOM     19  C   UNL     1      -1.331   6.619  25.423  0.00  0.00    +0.039 C 
ENDROOT
BRANCH   8  12
ATOM     12  C   UNL     1      -2.606   1.564  22.720  0.00  0.00    -0.013 C 
ATOM     17  C   UNL     1      -2.569   2.144  21.308  0.00  0.00    +0.007 C 
ATOM     18  C   UNL     1      -1.609   0.417  22.859  0.00  0.00    +0.007 C 
ENDBRANCH   8  12
BRANCH   9  15
ATOM     15  C   UNL     1       0.129   2.141  24.238  0.00  0.00    +0.113 C 
BRANCH  15   4
ATOM      2  O   UNL     1      -0.343   1.018  26.853  0.00  0.00    -0.253 OA
ATOM      4  N   UNL     1       0.662   2.602  25.481  0.00  0.00    -0.299 N 
ATOM      6  N   UNL     1       1.033   2.649  27.763  0.00  0.00    -0.297 N 
ATOM     21  C   UNL     1       0.384   2.000  26.715  0.00  0.00    +0.300 C 
ATOM     33  H   UNL     1       1.332   3.365  25.469  0.00  0.00    +0.150 HD
ATOM     34  H   UNL     1       1.551   3.499  27.558  0.00  0.00    +0.150 HD
BRANCH   6  23
ATOM     23  C   UNL     1       0.913   2.227  29.139  0.00  0.00    +0.068 C 
ATOM     25  C   UNL     1       0.137   3.262  29.943  0.00  0.00    +0.027 C 
ATOM     26  C   UNL     1       2.289   1.977  29.743  0.00  0.00    +0.027 C 
ENDBRANCH   6  23
ENDBRANCH  15   4
ENDBRANCH   9  15
BRANCH  11  16
ATOM     16  C   UNL     1      -3.702   4.523  25.974  0.00  0.00    +0.105 C 
BRANCH  16  20
ATOM      1  O   UNL     1      -3.774   2.121  25.550  0.00  0.00    -0.420 OA
ATOM      5  N   UNL     1      -5.762   3.026  26.030  0.00  0.00    -0.112 NA
ATOM      7  N   UNL     1      -5.950   1.674  25.815  0.00  0.00    -0.107 NA
ATOM     20  C   UNL     1      -4.478   3.243  25.865  0.00  0.00    +0.218 A 
ATOM     22  C   UNL     1      -4.764   1.187  25.537  0.00  0.00    +0.248 A 
BRANCH  22  24
ATOM     24  C   UNL     1      -4.356  -0.154  25.229  0.00  0.00    +0.039 A 
ATOM     27  C   UNL     1      -3.556  -0.862  26.125  0.00  0.00    +0.017 A 
ATOM     28  C   UNL     1      -4.762  -0.749  24.035  0.00  0.00    +0.017 A 
ATOM     29  C   UNL     1      -3.161  -2.167  25.826  0.00  0.00    +0.046 A 
ATOM     30  C   UNL     1      -4.367  -2.053  23.736  0.00  0.00    +0.046 A 
ATOM     31  C   UNL     1      -3.566  -2.761  24.632  0.00  0.00    +0.120 A 
BRANCH  31   3
ATOM      3  O   UNL     1      -3.183  -4.035  24.341  0.00  0.00    -0.495 OA
ATOM     32  C   UNL     1      -3.355  -4.474  22.995  0.00  0.00    +0.277 C 
ENDBRANCH  31   3
ENDBRANCH  22  24
ENDBRANCH  16  20
ENDBRANCH  11  16
TORSDOF 8
ENDMDL
