MODEL 1
REMARK VINA RESULT:      -4.7      0.000      0.000
REMARK  Name = 40777334
REMARK  9 active torsions:
REMARK  status: ('A' for Active; 'I' for Inactive)
REMARK    1  A    between atoms: N_4  and  C_13
REMARK    2  A    between atoms: C_6  and  C_10
REMARK    3  A    between atoms: C_7  and  C_11
REMARK    4  A    between atoms: C_10  and  C_16
REMARK    5  A    between atoms: C_11  and  C_20
REMARK    6  A    between atoms: C_22  and  C_23
REMARK    7  A    between atoms: C_22  and  C_24
REMARK    8  A    between atoms: C_22  and  C_25
REMARK    9  A    between atoms: C_22  and  C_26
REMARK                            x       y       z     vdW  Elec       q    Type
REMARK                         _______ _______ _______ _____ _____    ______ ____
ROOT
ATOM      3  N   UNL     1      -2.412  -3.147  24.577  0.00  0.00    -0.316 NA
ATOM      6  C   UNL     1      -3.851  -0.626  24.047  0.00  0.00    +0.004 C 
ATOM      7  C   UNL     1      -2.316  -0.691  24.224  0.00  0.00    +0.012 C 
ATOM      8  C   UNL     1      -4.362  -2.001  23.584  0.00  0.00    +0.019 C 
ATOM      9  C   UNL     1      -1.894  -1.882  25.101  0.00  0.00    +0.085 C 
ATOM     12  C   UNL     1      -3.871  -3.138  24.478  0.00  0.00    +0.081 C 
ATOM     27  H   UNL     1      -2.120  -3.910  25.188  0.00  0.00    +0.122 HD
ENDROOT
BRANCH   6  10
ATOM     10  C   UNL     1      -4.603  -0.159  25.299  0.00  0.00    +0.099 C 
BRANCH  10  16
ATOM      1  O   UNL     1      -6.229   1.577  24.857  0.00  0.00    -0.276 OA
ATOM      4  N   UNL     1      -4.068   2.168  25.472  0.00  0.00    -0.312 N 
ATOM     16  C   UNL     1      -5.084   1.272  25.177  0.00  0.00    +0.214 C 
ATOM     28  H   UNL     1      -3.153   1.814  25.730  0.00  0.00    +0.149 HD
BRANCH   4  13
ATOM     13  C   UNL     1      -4.245   3.604  25.434  0.00  0.00    +0.073 C 
ATOM     14  C   UNL     1      -3.419   4.289  26.528  0.00  0.00    +0.022 C 
ATOM     15  C   UNL     1      -3.906   4.164  24.049  0.00  0.00    +0.022 C 
ATOM     17  C   UNL     1      -1.919   4.262  26.233  0.00  0.00    +0.002 C 
ATOM     18  C   UNL     1      -2.406   4.137  23.758  0.00  0.00    +0.002 C 
ATOM     19  C   UNL     1      -1.607   4.835  24.855  0.00  0.00    +0.000 C 
ENDBRANCH   4  13
ENDBRANCH  10  16
ENDBRANCH   6  10
BRANCH   7  11
ATOM     11  C   UNL     1      -1.719   0.610  24.761  0.00  0.00    +0.064 C 
BRANCH  11  20
ATOM      2  O   UNL     1       1.582   1.801  23.958  0.00  0.00    -0.359 OA
ATOM      5  N   UNL     1       0.321   1.958  24.519  0.00  0.00    -0.083 NA
ATOM     20  C   UNL     1      -0.308   0.802  24.286  0.00  0.00    +0.084 A 
ATOM     21  C   UNL     1       0.498  -0.113  23.587  0.00  0.00    +0.071 A 
ATOM     23  C   UNL     1       1.675   0.564  23.406  0.00  0.00    +0.143 A 
BRANCH  23  22
ATOM     22  C   UNL     1       2.953   0.227  22.765  0.00  0.00    +0.023 C 
ATOM     24  C   UNL     1       2.769  -0.174  21.260  0.00  0.00    +0.019 C 
ATOM     25  C   UNL     1       3.666  -0.980  23.469  0.00  0.00    +0.019 C 
ATOM     26  C   UNL     1       4.039   1.367  22.739  0.00  0.00    +0.019 C 
ENDBRANCH  23  22
ENDBRANCH  11  20
ENDBRANCH   7  11
TORSDOF 6
ENDMDL
MODEL 2
REMARK VINA RESULT:      -3.3      1.980      5.978
REMARK  Name = 40777334
REMARK  9 active torsions:
REMARK  status: ('A' for Active; 'I' for Inactive)
REMARK    1  A    between atoms: N_4  and  C_13
REMARK    2  A    between atoms: C_6  and  C_10
REMARK    3  A    between atoms: C_7  and  C_11
REMARK    4  A    between atoms: C_10  and  C_16
REMARK    5  A    between atoms: C_11  and  C_20
REMARK    6  A    between atoms: C_22  and  C_23
REMARK    7  A    between atoms: C_22  and  C_24
REMARK    8  A    between atoms: C_22  and  C_25
REMARK    9  A    between atoms: C_22  and  C_26
REMARK                            x       y       z     vdW  Elec       q    Type
REMARK                         _______ _______ _______ _____ _____    ______ ____
ROOT
ATOM      3  N   UNL     1       2.918   0.763  22.123  0.00  0.00    -0.316 NA
ATOM      6  C   UNL     1       0.335   0.045  23.355  0.00  0.00    +0.004 C 
ATOM      7  C   UNL     1       1.095   1.346  23.705  0.00  0.00    +0.012 C 
ATOM      8  C   UNL     1       0.757  -0.422  21.952  0.00  0.00    +0.019 C 
ATOM      9  C   UNL     1       2.610   1.195  23.487  0.00  0.00    +0.085 C 
ATOM     12  C   UNL     1       2.275  -0.509  21.798  0.00  0.00    +0.081 C 
ATOM     27  H   UNL     1       3.928   0.666  22.019  0.00  0.00    +0.122 HD
ENDROOT
BRANCH   6  10
ATOM     10  C   UNL     1       0.519  -1.079  24.381  0.00  0.00    +0.099 C 
BRANCH  10  16
ATOM      1  O   UNL     1      -0.860  -0.748  26.341  0.00  0.00    -0.276 OA
ATOM      4  N   UNL     1      -1.624  -2.118  24.627  0.00  0.00    -0.312 N 
ATOM     16  C   UNL     1      -0.711  -1.275  25.243  0.00  0.00    +0.214 C 
ATOM     28  H   UNL     1      -1.408  -2.501  23.713  0.00  0.00    +0.149 HD
BRANCH   4  13
ATOM     13  C   UNL     1      -2.891  -2.483  25.225  0.00  0.00    +0.073 C 
ATOM     14  C   UNL     1      -3.394  -1.380  26.163  0.00  0.00    +0.022 C 
ATOM     15  C   UNL     1      -3.930  -2.817  24.150  0.00  0.00    +0.022 C 
ATOM     17  C   UNL     1      -3.876  -0.143  25.406  0.00  0.00    +0.002 C 
ATOM     18  C   UNL     1      -4.411  -1.576  23.397  0.00  0.00    +0.002 C 
ATOM     19  C   UNL     1      -4.918  -0.498  24.351  0.00  0.00    +0.000 C 
ENDBRANCH   4  13
ENDBRANCH  10  16
ENDBRANCH   6  10
BRANCH   7  11
ATOM     11  C   UNL     1       0.804   1.849  25.119  0.00  0.00    +0.064 C 
BRANCH  11  20
ATOM      2  O   UNL     1      -2.242   3.504  26.089  0.00  0.00    -0.359 OA
ATOM      5  N   UNL     1      -0.950   3.060  26.341  0.00  0.00    -0.083 NA
ATOM     20  C   UNL     1      -0.565   2.458  25.212  0.00  0.00    +0.084 A 
ATOM     21  C   UNL     1      -1.563   2.491  24.222  0.00  0.00    +0.071 A 
ATOM     23  C   UNL     1      -2.596   3.159  24.824  0.00  0.00    +0.143 A 
BRANCH  23  22
ATOM     22  C   UNL     1      -3.941   3.555  24.388  0.00  0.00    +0.023 C 
ATOM     24  C   UNL     1      -4.332   2.902  23.017  0.00  0.00    +0.019 C 
ATOM     25  C   UNL     1      -4.066   5.108  24.200  0.00  0.00    +0.019 C 
ATOM     26  C   UNL     1      -5.124   3.179  25.357  0.00  0.00    +0.019 C 
ENDBRANCH  23  22
ENDBRANCH  11  20
ENDBRANCH   7  11
TORSDOF 6
ENDMDL
MODEL 3
REMARK VINA RESULT:      -2.6      1.433      4.716
REMARK  Name = 40777334
REMARK  9 active torsions:
REMARK  status: ('A' for Active; 'I' for Inactive)
REMARK    1  A    between atoms: N_4  and  C_13
REMARK    2  A    between atoms: C_6  and  C_10
REMARK    3  A    between atoms: C_7  and  C_11
REMARK    4  A    between atoms: C_10  and  C_16
REMARK    5  A    between atoms: C_11  and  C_20
REMARK    6  A    between atoms: C_22  and  C_23
REMARK    7  A    between atoms: C_22  and  C_24
REMARK    8  A    between atoms: C_22  and  C_25
REMARK    9  A    between atoms: C_22  and  C_26
REMARK                            x       y       z     vdW  Elec       q    Type
REMARK                         _______ _______ _______ _____ _____    ______ ____
ROOT
ATOM      3  N   UNL     1      -0.509   5.258  24.664  0.00  0.00    -0.316 NA
ATOM      6  C   UNL     1      -2.776   3.747  25.795  0.00  0.00    +0.004 C 
ATOM      7  C   UNL     1      -1.323   3.219  25.824  0.00  0.00    +0.012 C 
ATOM      8  C   UNL     1      -2.752   5.281  25.698  0.00  0.00    +0.019 C 
ATOM      9  C   UNL     1      -0.486   3.795  24.669  0.00  0.00    +0.085 C 
ATOM     12  C   UNL     1      -1.870   5.780  24.554  0.00  0.00    +0.081 C 
ATOM     27  H   UNL     1       0.048   5.602  23.881  0.00  0.00    +0.122 HD
ENDROOT
BRANCH   6  10
ATOM     10  C   UNL     1      -3.636   3.144  24.678  0.00  0.00    +0.099 C 
BRANCH  10  16
ATOM      1  O   UNL     1      -5.521   2.070  25.748  0.00  0.00    -0.276 OA
ATOM      4  N   UNL     1      -3.828   0.762  24.841  0.00  0.00    -0.312 N 
ATOM     16  C   UNL     1      -4.451   1.961  25.157  0.00  0.00    +0.214 C 
ATOM     28  H   UNL     1      -2.943   0.779  24.345  0.00  0.00    +0.149 HD
BRANCH   4  13
ATOM     13  C   UNL     1      -4.383  -0.530  25.180  0.00  0.00    +0.073 C 
ATOM     14  C   UNL     1      -4.480  -1.430  23.943  0.00  0.00    +0.022 C 
ATOM     15  C   UNL     1      -3.573  -1.201  26.294  0.00  0.00    +0.022 C 
ATOM     17  C   UNL     1      -3.112  -1.916  23.464  0.00  0.00    +0.002 C 
ATOM     18  C   UNL     1      -2.207  -1.687  25.811  0.00  0.00    +0.002 C 
ATOM     19  C   UNL     1      -2.330  -2.590  24.587  0.00  0.00    +0.000 C 
ENDBRANCH   4  13
ENDBRANCH  10  16
ENDBRANCH   6  10
BRANCH   7  11
ATOM     11  C   UNL     1      -1.239   1.692  25.839  0.00  0.00    +0.064 C 
BRANCH  11  20
ATOM      2  O   UNL     1       0.134   0.374  22.783  0.00  0.00    -0.359 OA
ATOM      5  N   UNL     1      -0.930   0.777  23.580  0.00  0.00    -0.083 NA
ATOM     20  C   UNL     1      -0.373   1.181  24.725  0.00  0.00    +0.084 A 
ATOM     21  C   UNL     1       1.028   1.057  24.709  0.00  0.00    +0.071 A 
ATOM     23  C   UNL     1       1.295   0.546  23.467  0.00  0.00    +0.143 A 
BRANCH  23  22
ATOM     22  C   UNL     1       2.530   0.169  22.768  0.00  0.00    +0.023 C 
ATOM     24  C   UNL     1       3.535   1.368  22.658  0.00  0.00    +0.019 C 
ATOM     25  C   UNL     1       2.251  -0.321  21.303  0.00  0.00    +0.019 C 
ATOM     26  C   UNL     1       3.371  -0.992  23.419  0.00  0.00    +0.019 C 
ENDBRANCH  23  22
ENDBRANCH  11  20
ENDBRANCH   7  11
TORSDOF 6
ENDMDL
