MODEL 1
REMARK VINA RESULT:      -5.3      0.000      0.000
REMARK  Name = 75366957
REMARK  11 active torsions:
REMARK  status: ('A' for Active; 'I' for Inactive)
REMARK    1  A    between atoms: O_2  and  C_11
REMARK    2  A    between atoms: O_5  and  C_21
REMARK    3  A    between atoms: O_5  and  C_24
REMARK    4  A    between atoms: N_6  and  C_15
REMARK    5  A    between atoms: N_8  and  C_20
REMARK    6  A    between atoms: C_9  and  C_15
REMARK    7  A    between atoms: C_10  and  C_14
REMARK    8  A    between atoms: C_14  and  C_16
REMARK    9  A    between atoms: C_19  and  C_21
REMARK   10  A    between atoms: C_20  and  C_22
REMARK   11  A    between atoms: C_20  and  C_23
REMARK                            x       y       z     vdW  Elec       q    Type
REMARK                         _______ _______ _______ _____ _____    ______ ____
ROOT
ATOM      1  O   UNL     1      -2.842   0.087  25.093  0.00  0.00    -0.369 OA
ATOM      9  C   UNL     1      -1.882  -0.940  24.812  0.00  0.00    +0.164 C 
ATOM     10  C   UNL     1      -3.922   0.181  24.160  0.00  0.00    +0.125 C 
ATOM     11  C   UNL     1      -2.554  -2.314  24.690  0.00  0.00    +0.145 C 
ATOM     12  C   UNL     1      -4.694  -1.135  24.094  0.00  0.00    +0.034 C 
ATOM     13  C   UNL     1      -3.759  -2.291  23.753  0.00  0.00    +0.036 C 
ENDROOT
BRANCH  11   2
ATOM      2  O   UNL     1      -3.015  -2.718  25.982  0.00  0.00    -0.389 OA
ATOM     25  H   UNL     1      -3.956  -2.481  26.047  0.00  0.00    +0.210 HD
ENDBRANCH  11   2
BRANCH  10  14
ATOM     14  C   UNL     1      -4.826   1.318  24.619  0.00  0.00    +0.090 C 
BRANCH  14  16
ATOM      3  O   UNL     1      -3.451   4.235  26.229  0.00  0.00    -0.357 OA
ATOM      7  N   UNL     1      -4.372   3.198  26.141  0.00  0.00    -0.083 NA
ATOM     16  C   UNL     1      -4.034   2.528  25.035  0.00  0.00    +0.086 A 
ATOM     17  C   UNL     1      -2.918   3.092  24.392  0.00  0.00    +0.073 A 
ATOM     19  C   UNL     1      -2.591   4.162  25.182  0.00  0.00    +0.163 A 
BRANCH  19  21
ATOM     21  C   UNL     1      -1.546   5.189  25.120  0.00  0.00    +0.236 C 
BRANCH  21   5
ATOM      5  O   UNL     1      -0.276   4.590  24.845  0.00  0.00    -0.375 OA
ATOM     24  C   UNL     1      -0.140   3.347  25.514  0.00  0.00    +0.194 C 
ENDBRANCH  21   5
ENDBRANCH  19  21
ENDBRANCH  14  16
ENDBRANCH  10  14
BRANCH   9  15
ATOM     15  C   UNL     1      -1.032  -0.582  23.595  0.00  0.00    +0.140 C 
BRANCH  15   6
ATOM      4  O   UNL     1       1.207  -0.323  21.793  0.00  0.00    -0.253 OA
ATOM      6  N   UNL     1       0.350  -0.476  23.948  0.00  0.00    -0.297 N 
ATOM      8  N   UNL     1       2.629  -0.268  23.625  0.00  0.00    -0.297 N 
ATOM     18  C   UNL     1       1.383  -0.353  23.010  0.00  0.00    +0.300 C 
ATOM     26  H   UNL     1       0.598  -0.509  24.932  0.00  0.00    +0.150 HD
ATOM     27  H   UNL     1       2.665  -0.229  24.639  0.00  0.00    +0.150 HD
BRANCH   8  20
ATOM     20  C   UNL     1       3.860  -0.135  22.882  0.00  0.00    +0.068 C 
ATOM     22  C   UNL     1       4.079   1.314  22.465  0.00  0.00    +0.027 C 
ATOM     23  C   UNL     1       5.033  -0.656  23.703  0.00  0.00    +0.027 C 
ENDBRANCH   8  20
ENDBRANCH  15   6
ENDBRANCH   9  15
TORSDOF 8
ENDMDL
MODEL 2
REMARK VINA RESULT:      -4.5      1.396      1.762
REMARK  Name = 75366957
REMARK  11 active torsions:
REMARK  status: ('A' for Active; 'I' for Inactive)
REMARK    1  A    between atoms: O_2  and  C_11
REMARK    2  A    between atoms: O_5  and  C_21
REMARK    3  A    between atoms: O_5  and  C_24
REMARK    4  A    between atoms: N_6  and  C_15
REMARK    5  A    between atoms: N_8  and  C_20
REMARK    6  A    between atoms: C_9  and  C_15
REMARK    7  A    between atoms: C_10  and  C_14
REMARK    8  A    between atoms: C_14  and  C_16
REMARK    9  A    between atoms: C_19  and  C_21
REMARK   10  A    between atoms: C_20  and  C_22
REMARK   11  A    between atoms: C_20  and  C_23
REMARK                            x       y       z     vdW  Elec       q    Type
REMARK                         _______ _______ _______ _____ _____    ______ ____
ROOT
ATOM      1  O   UNL     1      -2.307   0.369  24.814  0.00  0.00    -0.369 OA
ATOM      9  C   UNL     1      -0.906   0.066  24.770  0.00  0.00    +0.164 C 
ATOM     10  C   UNL     1      -3.161  -0.616  24.225  0.00  0.00    +0.125 C 
ATOM     11  C   UNL     1      -0.608  -1.296  25.411  0.00  0.00    +0.145 C 
ATOM     12  C   UNL     1      -2.981  -1.967  24.915  0.00  0.00    +0.034 C 
ATOM     13  C   UNL     1      -1.519  -2.400  24.879  0.00  0.00    +0.036 C 
ENDROOT
BRANCH  11   2
ATOM      2  O   UNL     1      -0.821  -1.198  26.821  0.00  0.00    -0.389 OA
ATOM     25  H   UNL     1      -0.943  -0.258  27.036  0.00  0.00    +0.210 HD
ENDBRANCH  11   2
BRANCH  10  14
ATOM     14  C   UNL     1      -4.595  -0.121  24.365  0.00  0.00    +0.090 C 
BRANCH  14  16
ATOM      3  O   UNL     1      -5.454   3.059  25.827  0.00  0.00    -0.357 OA
ATOM      7  N   UNL     1      -5.731   1.733  25.516  0.00  0.00    -0.083 NA
ATOM     16  C   UNL     1      -4.650   1.298  24.862  0.00  0.00    +0.086 A 
ATOM     17  C   UNL     1      -3.668   2.295  24.734  0.00  0.00    +0.073 A 
ATOM     19  C   UNL     1      -4.223   3.382  25.356  0.00  0.00    +0.163 A 
BRANCH  19  21
ATOM     21  C   UNL     1      -3.768   4.755  25.601  0.00  0.00    +0.236 C 
BRANCH  21   5
ATOM      5  O   UNL     1      -2.422   4.753  26.086  0.00  0.00    -0.375 OA
ATOM     24  C   UNL     1      -1.512   5.160  25.078  0.00  0.00    +0.194 C 
ENDBRANCH  21   5
ENDBRANCH  19  21
ENDBRANCH  14  16
ENDBRANCH  10  14
BRANCH   9  15
ATOM     15  C   UNL     1      -0.361   0.188  23.348  0.00  0.00    +0.140 C 
BRANCH  15   6
ATOM      4  O   UNL     1       2.232   1.452  23.296  0.00  0.00    -0.253 OA
ATOM      6  N   UNL     1       0.910  -0.457  23.229  0.00  0.00    -0.297 N 
ATOM      8  N   UNL     1       3.209  -0.642  23.087  0.00  0.00    -0.297 N 
ATOM     18  C   UNL     1       2.130   0.229  23.211  0.00  0.00    +0.300 C 
ATOM     26  H   UNL     1       0.927  -1.469  23.136  0.00  0.00    +0.150 HD
ATOM     27  H   UNL     1       3.027  -1.641  23.098  0.00  0.00    +0.150 HD
BRANCH   8  20
ATOM     20  C   UNL     1       4.579  -0.188  23.044  0.00  0.00    +0.068 C 
ATOM     22  C   UNL     1       4.636   1.326  22.875  0.00  0.00    +0.027 C 
ATOM     23  C   UNL     1       5.324  -0.632  24.296  0.00  0.00    +0.027 C 
ENDBRANCH   8  20
ENDBRANCH  15   6
ENDBRANCH   9  15
TORSDOF 8
ENDMDL
MODEL 3
REMARK VINA RESULT:      -4.4      1.761      6.264
REMARK  Name = 75366957
REMARK  11 active torsions:
REMARK  status: ('A' for Active; 'I' for Inactive)
REMARK    1  A    between atoms: O_2  and  C_11
REMARK    2  A    between atoms: O_5  and  C_21
REMARK    3  A    between atoms: O_5  and  C_24
REMARK    4  A    between atoms: N_6  and  C_15
REMARK    5  A    between atoms: N_8  and  C_20
REMARK    6  A    between atoms: C_9  and  C_15
REMARK    7  A    between atoms: C_10  and  C_14
REMARK    8  A    between atoms: C_14  and  C_16
REMARK    9  A    between atoms: C_19  and  C_21
REMARK   10  A    between atoms: C_20  and  C_22
REMARK   11  A    between atoms: C_20  and  C_23
REMARK                            x       y       z     vdW  Elec       q    Type
REMARK                         _______ _______ _______ _____ _____    ______ ____
ROOT
ATOM      1  O   UNL     1      -2.551   2.553  25.824  0.00  0.00    -0.369 OA
ATOM      9  C   UNL     1      -3.745   3.245  25.434  0.00  0.00    +0.164 C 
ATOM     10  C   UNL     1      -1.378   2.897  25.081  0.00  0.00    +0.125 C 
ATOM     11  C   UNL     1      -3.552   4.766  25.488  0.00  0.00    +0.145 C 
ATOM     12  C   UNL     1      -1.081   4.390  25.204  0.00  0.00    +0.034 C 
ATOM     13  C   UNL     1      -2.285   5.217  24.765  0.00  0.00    +0.036 C 
ENDROOT
BRANCH  11   2
ATOM      2  O   UNL     1      -3.438   5.168  26.855  0.00  0.00    -0.389 OA
ATOM     25  H   UNL     1      -3.324   4.365  27.390  0.00  0.00    +0.210 HD
ENDBRANCH  11   2
BRANCH  10  14
ATOM     14  C   UNL     1      -0.227   2.066  25.632  0.00  0.00    +0.090 C 
BRANCH  14  16
ATOM      3  O   UNL     1       0.626  -0.469  23.216  0.00  0.00    -0.357 OA
ATOM      7  N   UNL     1      -0.201   0.068  24.195  0.00  0.00    -0.083 NA
ATOM     16  C   UNL     1       0.398   1.203  24.569  0.00  0.00    +0.086 A 
ATOM     17  C   UNL     1       1.594   1.431  23.867  0.00  0.00    +0.073 A 
ATOM     19  C   UNL     1       1.691   0.351  23.030  0.00  0.00    +0.163 A 
BRANCH  19  21
ATOM     21  C   UNL     1       2.673  -0.068  22.022  0.00  0.00    +0.236 C 
BRANCH  21   5
ATOM      5  O   UNL     1       3.844   0.748  22.101  0.00  0.00    -0.375 OA
ATOM     24  C   UNL     1       4.755   0.248  23.066  0.00  0.00    +0.194 C 
ENDBRANCH  21   5
ENDBRANCH  19  21
ENDBRANCH  14  16
ENDBRANCH  10  14
BRANCH   9  15
ATOM     15  C   UNL     1      -4.247   2.755  24.077  0.00  0.00    +0.140 C 
BRANCH  15   6
ATOM      4  O   UNL     1      -4.683   0.263  25.464  0.00  0.00    -0.253 OA
ATOM      6  N   UNL     1      -3.686   1.479  23.753  0.00  0.00    -0.297 N 
ATOM      8  N   UNL     1      -3.276  -0.787  23.947  0.00  0.00    -0.297 N 
ATOM     18  C   UNL     1      -3.948   0.310  24.478  0.00  0.00    +0.300 C 
ATOM     26  H   UNL     1      -3.051   1.421  22.963  0.00  0.00    +0.150 HD
ATOM     27  H   UNL     1      -2.749  -0.661  23.087  0.00  0.00    +0.150 HD
BRANCH   8  20
ATOM     20  C   UNL     1      -3.375  -2.113  24.510  0.00  0.00    +0.068 C 
ATOM     22  C   UNL     1      -4.391  -2.946  23.738  0.00  0.00    +0.027 C 
ATOM     23  C   UNL     1      -2.009  -2.785  24.526  0.00  0.00    +0.027 C 
ENDBRANCH   8  20
ENDBRANCH  15   6
ENDBRANCH   9  15
TORSDOF 8
ENDMDL
MODEL 4
REMARK VINA RESULT:      -4.2      1.918      4.859
REMARK  Name = 75366957
REMARK  11 active torsions:
REMARK  status: ('A' for Active; 'I' for Inactive)
REMARK    1  A    between atoms: O_2  and  C_11
REMARK    2  A    between atoms: O_5  and  C_21
REMARK    3  A    between atoms: O_5  and  C_24
REMARK    4  A    between atoms: N_6  and  C_15
REMARK    5  A    between atoms: N_8  and  C_20
REMARK    6  A    between atoms: C_9  and  C_15
REMARK    7  A    between atoms: C_10  and  C_14
REMARK    8  A    between atoms: C_14  and  C_16
REMARK    9  A    between atoms: C_19  and  C_21
REMARK   10  A    between atoms: C_20  and  C_22
REMARK   11  A    between atoms: C_20  and  C_23
REMARK                            x       y       z     vdW  Elec       q    Type
REMARK                         _______ _______ _______ _____ _____    ______ ____
ROOT
ATOM      1  O   UNL     1      -2.666   2.646  24.323  0.00  0.00    -0.369 OA
ATOM      9  C   UNL     1      -1.509   3.420  24.666  0.00  0.00    +0.164 C 
ATOM     10  C   UNL     1      -3.590   2.427  25.393  0.00  0.00    +0.125 C 
ATOM     11  C   UNL     1      -1.901   4.775  25.268  0.00  0.00    +0.145 C 
ATOM     12  C   UNL     1      -4.099   3.757  25.946  0.00  0.00    +0.034 C 
ATOM     13  C   UNL     1      -2.933   4.639  26.385  0.00  0.00    +0.036 C 
ENDROOT
BRANCH  11   2
ATOM      2  O   UNL     1      -2.476   5.587  24.241  0.00  0.00    -0.389 OA
ATOM     25  H   UNL     1      -1.839   6.289  24.028  0.00  0.00    +0.210 HD
ENDBRANCH  11   2
BRANCH  10  14
ATOM     14  C   UNL     1      -4.740   1.593  24.841  0.00  0.00    +0.090 C 
BRANCH  14  16
ATOM      3  O   UNL     1      -4.460  -1.880  23.922  0.00  0.00    -0.357 OA
ATOM      7  N   UNL     1      -5.106  -0.651  23.900  0.00  0.00    -0.083 NA
ATOM     16  C   UNL     1      -4.341   0.156  24.642  0.00  0.00    +0.086 A 
ATOM     17  C   UNL     1      -3.209  -0.504  25.152  0.00  0.00    +0.073 A 
ATOM     19  C   UNL     1      -3.332  -1.781  24.670  0.00  0.00    +0.163 A 
BRANCH  19  21
ATOM     21  C   UNL     1      -2.522  -2.998  24.800  0.00  0.00    +0.236 C 
BRANCH  21   5
ATOM      5  O   UNL     1      -1.197  -2.766  24.313  0.00  0.00    -0.375 OA
ATOM     24  C   UNL     1      -0.336  -2.335  25.354  0.00  0.00    +0.194 C 
ENDBRANCH  21   5
ENDBRANCH  19  21
ENDBRANCH  14  16
ENDBRANCH  10  14
BRANCH   9  15
ATOM     15  C   UNL     1      -0.559   2.623  25.558  0.00  0.00    +0.140 C 
BRANCH  15   6
ATOM      4  O   UNL     1       0.017   0.324  23.913  0.00  0.00    -0.253 OA
ATOM      6  N   UNL     1       0.666   2.336  24.877  0.00  0.00    -0.297 N 
ATOM      8  N   UNL     1       2.148   1.165  23.545  0.00  0.00    -0.297 N 
ATOM     18  C   UNL     1       0.868   1.194  24.093  0.00  0.00    +0.300 C 
ATOM     26  H   UNL     1       1.437   2.990  24.980  0.00  0.00    +0.150 HD
ATOM     27  H   UNL     1       2.755   1.966  23.694  0.00  0.00    +0.150 HD
BRANCH   8  20
ATOM     20  C   UNL     1       2.612   0.093  22.697  0.00  0.00    +0.068 C 
ATOM     22  C   UNL     1       1.583  -0.217  21.616  0.00  0.00    +0.027 C 
ATOM     23  C   UNL     1       3.962   0.445  22.088  0.00  0.00    +0.027 C 
ENDBRANCH   8  20
ENDBRANCH  15   6
ENDBRANCH   9  15
TORSDOF 8
ENDMDL
MODEL 5
REMARK VINA RESULT:      -3.6      2.042      5.569
REMARK  Name = 75366957
REMARK  11 active torsions:
REMARK  status: ('A' for Active; 'I' for Inactive)
REMARK    1  A    between atoms: O_2  and  C_11
REMARK    2  A    between atoms: O_5  and  C_21
REMARK    3  A    between atoms: O_5  and  C_24
REMARK    4  A    between atoms: N_6  and  C_15
REMARK    5  A    between atoms: N_8  and  C_20
REMARK    6  A    between atoms: C_9  and  C_15
REMARK    7  A    between atoms: C_10  and  C_14
REMARK    8  A    between atoms: C_14  and  C_16
REMARK    9  A    between atoms: C_19  and  C_21
REMARK   10  A    between atoms: C_20  and  C_22
REMARK   11  A    between atoms: C_20  and  C_23
REMARK                            x       y       z     vdW  Elec       q    Type
REMARK                         _______ _______ _______ _____ _____    ______ ____
ROOT
ATOM      1  O   UNL     1      -4.107   2.904  26.346  0.00  0.00    -0.369 OA
ATOM      9  C   UNL     1      -5.465   2.763  25.907  0.00  0.00    +0.164 C 
ATOM     10  C   UNL     1      -3.163   3.204  25.314  0.00  0.00    +0.125 C 
ATOM     11  C   UNL     1      -5.939   4.007  25.145  0.00  0.00    +0.145 C 
ATOM     12  C   UNL     1      -3.534   4.504  24.605  0.00  0.00    +0.034 C 
ATOM     13  C   UNL     1      -4.956   4.433  24.058  0.00  0.00    +0.036 C 
ENDROOT
BRANCH  11   2
ATOM      2  O   UNL     1      -6.064   5.093  26.068  0.00  0.00    -0.389 OA
ATOM     25  H   UNL     1      -6.670   4.811  26.774  0.00  0.00    +0.210 HD
ENDBRANCH  11   2
BRANCH  10  14
ATOM     14  C   UNL     1      -1.791   3.313  25.967  0.00  0.00    +0.090 C 
BRANCH  14  16
ATOM      3  O   UNL     1       1.173   1.628  24.799  0.00  0.00    -0.357 OA
ATOM      7  N   UNL     1       0.497   2.449  25.693  0.00  0.00    -0.083 NA
ATOM     16  C   UNL     1      -0.757   2.501  25.234  0.00  0.00    +0.086 A 
ATOM     17  C   UNL     1      -0.929   1.739  24.065  0.00  0.00    +0.073 A 
ATOM     19  C   UNL     1       0.314   1.212  23.834  0.00  0.00    +0.163 A 
BRANCH  19  21
ATOM     21  C   UNL     1       0.868   0.330  22.800  0.00  0.00    +0.236 C 
BRANCH  21   5
ATOM      5  O   UNL     1       2.157  -0.148  23.193  0.00  0.00    -0.375 OA
ATOM     24  C   UNL     1       3.188   0.497  22.463  0.00  0.00    +0.194 C 
ENDBRANCH  21   5
ENDBRANCH  19  21
ENDBRANCH  14  16
ENDBRANCH  10  14
BRANCH   9  15
ATOM     15  C   UNL     1      -5.655   1.471  25.115  0.00  0.00    +0.140 C 
BRANCH  15   6
ATOM      4  O   UNL     1      -3.727   0.132  23.435  0.00  0.00    -0.253 OA
ATOM      6  N   UNL     1      -4.704   0.479  25.515  0.00  0.00    -0.297 N 
ATOM      8  N   UNL     1      -2.988  -1.052  25.288  0.00  0.00    -0.297 N 
ATOM     18  C   UNL     1      -3.798  -0.126  24.636  0.00  0.00    +0.300 C 
ATOM     26  H   UNL     1      -4.697   0.186  26.488  0.00  0.00    +0.150 HD
ATOM     27  H   UNL     1      -3.074  -1.143  26.297  0.00  0.00    +0.150 HD
BRANCH   8  20
ATOM     20  C   UNL     1      -1.969  -1.816  24.608  0.00  0.00    +0.068 C 
ATOM     22  C   UNL     1      -0.675  -1.817  25.413  0.00  0.00    +0.027 C 
ATOM     23  C   UNL     1      -2.457  -3.235  24.347  0.00  0.00    +0.027 C 
ENDBRANCH   8  20
ENDBRANCH  15   6
ENDBRANCH   9  15
TORSDOF 8
ENDMDL
MODEL 6
REMARK VINA RESULT:      -2.1      2.529      4.453
REMARK  Name = 75366957
REMARK  11 active torsions:
REMARK  status: ('A' for Active; 'I' for Inactive)
REMARK    1  A    between atoms: O_2  and  C_11
REMARK    2  A    between atoms: O_5  and  C_21
REMARK    3  A    between atoms: O_5  and  C_24
REMARK    4  A    between atoms: N_6  and  C_15
REMARK    5  A    between atoms: N_8  and  C_20
REMARK    6  A    between atoms: C_9  and  C_15
REMARK    7  A    between atoms: C_10  and  C_14
REMARK    8  A    between atoms: C_14  and  C_16
REMARK    9  A    between atoms: C_19  and  C_21
REMARK   10  A    between atoms: C_20  and  C_22
REMARK   11  A    between atoms: C_20  and  C_23
REMARK                            x       y       z     vdW  Elec       q    Type
REMARK                         _______ _______ _______ _____ _____    ______ ____
ROOT
ATOM      1  O   UNL     1      -1.811  -0.600  25.164  0.00  0.00    -0.369 OA
ATOM      9  C   UNL     1      -0.403  -0.636  24.900  0.00  0.00    +0.164 C 
ATOM     10  C   UNL     1      -2.620  -1.351  24.254  0.00  0.00    +0.125 C 
ATOM     11  C   UNL     1       0.119  -2.078  24.845  0.00  0.00    +0.145 C 
ATOM     12  C   UNL     1      -2.210  -2.822  24.256  0.00  0.00    +0.034 C 
ATOM     13  C   UNL     1      -0.725  -2.968  23.936  0.00  0.00    +0.036 C 
ENDROOT
BRANCH  11   2
ATOM      2  O   UNL     1       0.076  -2.634  26.161  0.00  0.00    -0.389 OA
ATOM     25  H   UNL     1       0.276  -1.920  26.790  0.00  0.00    +0.210 HD
ENDBRANCH  11   2
BRANCH  10  14
ATOM     14  C   UNL     1      -4.070  -1.192  24.692  0.00  0.00    +0.090 C 
BRANCH  14  16
ATOM      3  O   UNL     1      -4.479   2.372  24.337  0.00  0.00    -0.357 OA
ATOM      7  N   UNL     1      -3.890   1.161  23.993  0.00  0.00    -0.083 NA
ATOM     16  C   UNL     1      -4.468   0.257  24.789  0.00  0.00    +0.086 A 
ATOM     17  C   UNL     1      -5.420   0.834  25.647  0.00  0.00    +0.073 A 
ATOM     19  C   UNL     1      -5.387   2.164  25.323  0.00  0.00    +0.163 A 
BRANCH  19  21
ATOM     21  C   UNL     1      -6.108   3.347  25.810  0.00  0.00    +0.236 C 
BRANCH  21   5
ATOM      5  O   UNL     1      -5.528   4.538  25.271  0.00  0.00    -0.375 OA
ATOM     24  C   UNL     1      -6.435   5.626  25.338  0.00  0.00    +0.194 C 
ENDBRANCH  21   5
ENDBRANCH  19  21
ENDBRANCH  14  16
ENDBRANCH  10  14
BRANCH   9  15
ATOM     15  C   UNL     1      -0.057   0.171  23.650  0.00  0.00    +0.140 C 
BRANCH  15   6
ATOM      4  O   UNL     1       0.006   2.134  25.764  0.00  0.00    -0.253 OA
ATOM      6  N   UNL     1      -0.711   1.444  23.664  0.00  0.00    -0.297 N 
ATOM      8  N   UNL     1      -1.361   3.504  24.484  0.00  0.00    -0.297 N 
ATOM     18  C   UNL     1      -0.632   2.345  24.733  0.00  0.00    +0.300 C 
ATOM     26  H   UNL     1      -1.278   1.701  22.861  0.00  0.00    +0.150 HD
ATOM     27  H   UNL     1      -1.795   3.616  23.573  0.00  0.00    +0.150 HD
BRANCH   8  20
ATOM     20  C   UNL     1      -1.444   4.593  25.429  0.00  0.00    +0.068 C 
ATOM     22  C   UNL     1      -1.517   5.929  24.699  0.00  0.00    +0.027 C 
ATOM     23  C   UNL     1      -2.640   4.404  26.353  0.00  0.00    +0.027 C 
ENDBRANCH   8  20
ENDBRANCH  15   6
ENDBRANCH   9  15
TORSDOF 8
ENDMDL
MODEL 7
REMARK VINA RESULT:      -2.0      1.940      5.453
REMARK  Name = 75366957
REMARK  11 active torsions:
REMARK  status: ('A' for Active; 'I' for Inactive)
REMARK    1  A    between atoms: O_2  and  C_11
REMARK    2  A    between atoms: O_5  and  C_21
REMARK    3  A    between atoms: O_5  and  C_24
REMARK    4  A    between atoms: N_6  and  C_15
REMARK    5  A    between atoms: N_8  and  C_20
REMARK    6  A    between atoms: C_9  and  C_15
REMARK    7  A    between atoms: C_10  and  C_14
REMARK    8  A    between atoms: C_14  and  C_16
REMARK    9  A    between atoms: C_19  and  C_21
REMARK   10  A    between atoms: C_20  and  C_22
REMARK   11  A    between atoms: C_20  and  C_23
REMARK                            x       y       z     vdW  Elec       q    Type
REMARK                         _______ _______ _______ _____ _____    ______ ____
ROOT
ATOM      1  O   UNL     1       0.334   0.760  23.120  0.00  0.00    -0.369 OA
ATOM      9  C   UNL     1       1.038  -0.484  22.997  0.00  0.00    +0.164 C 
ATOM     10  C   UNL     1       1.011   1.769  23.875  0.00  0.00    +0.125 C 
ATOM     11  C   UNL     1       2.439  -0.277  22.407  0.00  0.00    +0.145 C 
ATOM     12  C   UNL     1       2.367   2.091  23.250  0.00  0.00    +0.034 C 
ATOM     13  C   UNL     1       3.213   0.829  23.120  0.00  0.00    +0.036 C 
ENDROOT
BRANCH  11   2
ATOM      2  O   UNL     1       2.309   0.099  21.034  0.00  0.00    -0.389 OA
ATOM     25  H   UNL     1       1.369   0.032  20.797  0.00  0.00    +0.210 HD
ENDBRANCH  11   2
BRANCH  10  14
ATOM     14  C   UNL     1       0.116   3.002  23.895  0.00  0.00    +0.090 C 
BRANCH  14  16
ATOM      3  O   UNL     1      -2.884   1.750  25.452  0.00  0.00    -0.357 OA
ATOM      7  N   UNL     1      -1.502   1.843  25.343  0.00  0.00    -0.083 NA
ATOM     16  C   UNL     1      -1.291   2.664  24.310  0.00  0.00    +0.086 A 
ATOM     17  C   UNL     1      -2.492   3.114  23.733  0.00  0.00    +0.073 A 
ATOM     19  C   UNL     1      -3.462   2.510  24.488  0.00  0.00    +0.163 A 
BRANCH  19  21
ATOM     21  C   UNL     1      -4.929   2.526  24.458  0.00  0.00    +0.236 C 
BRANCH  21   5
ATOM      5  O   UNL     1      -5.446   3.032  25.692  0.00  0.00    -0.375 OA
ATOM     24  C   UNL     1      -6.195   2.042  26.379  0.00  0.00    +0.194 C 
ENDBRANCH  21   5
ENDBRANCH  19  21
ENDBRANCH  14  16
ENDBRANCH  10  14
BRANCH   9  15
ATOM     15  C   UNL     1       1.055  -1.239  24.325  0.00  0.00    +0.140 C 
BRANCH  15   6
ATOM      4  O   UNL     1      -1.510  -2.371  23.646  0.00  0.00    -0.253 OA
ATOM      6  N   UNL     1      -0.177  -1.065  25.030  0.00  0.00    -0.297 N 
ATOM      8  N   UNL     1      -2.426  -1.318  25.499  0.00  0.00    -0.297 N 
ATOM     18  C   UNL     1      -1.386  -1.651  24.636  0.00  0.00    +0.300 C 
ATOM     26  H   UNL     1      -0.179  -0.470  25.854  0.00  0.00    +0.150 HD
ATOM     27  H   UNL     1      -2.208  -0.776  26.330  0.00  0.00    +0.150 HD
BRANCH   8  20
ATOM     20  C   UNL     1      -3.777  -1.793  25.316  0.00  0.00    +0.068 C 
ATOM     22  C   UNL     1      -4.500  -0.956  24.267  0.00  0.00    +0.027 C 
ATOM     23  C   UNL     1      -3.773  -3.268  24.937  0.00  0.00    +0.027 C 
ENDBRANCH   8  20
ENDBRANCH  15   6
ENDBRANCH   9  15
TORSDOF 8
ENDMDL
MODEL 8
REMARK VINA RESULT:      -1.5      2.523      5.332
REMARK  Name = 75366957
REMARK  11 active torsions:
REMARK  status: ('A' for Active; 'I' for Inactive)
REMARK    1  A    between atoms: O_2  and  C_11
REMARK    2  A    between atoms: O_5  and  C_21
REMARK    3  A    between atoms: O_5  and  C_24
REMARK    4  A    between atoms: N_6  and  C_15
REMARK    5  A    between atoms: N_8  and  C_20
REMARK    6  A    between atoms: C_9  and  C_15
REMARK    7  A    between atoms: C_10  and  C_14
REMARK    8  A    between atoms: C_14  and  C_16
REMARK    9  A    between atoms: C_19  and  C_21
REMARK   10  A    between atoms: C_20  and  C_22
REMARK   11  A    between atoms: C_20  and  C_23
REMARK                            x       y       z     vdW  Elec       q    Type
REMARK                         _______ _______ _______ _____ _____    ______ ____
ROOT
ATOM      1  O   UNL     1      -1.892   3.182  24.375  0.00  0.00    -0.369 OA
ATOM      9  C   UNL     1      -0.488   3.321  24.630  0.00  0.00    +0.164 C 
ATOM     10  C   UNL     1      -2.732   4.103  25.077  0.00  0.00    +0.125 C 
ATOM     11  C   UNL     1      -0.007   4.749  24.343  0.00  0.00    +0.145 C 
ATOM     12  C   UNL     1      -2.363   5.543  24.727  0.00  0.00    +0.034 C 
ATOM     13  C   UNL     1      -0.886   5.804  25.010  0.00  0.00    +0.036 C 
ENDROOT
BRANCH  11   2
ATOM      2  O   UNL     1      -0.051   4.976  22.932  0.00  0.00    -0.389 OA
ATOM     25  H   UNL     1      -0.930   4.705  22.617  0.00  0.00    +0.210 HD
ENDBRANCH  11   2
BRANCH  10  14
ATOM     14  C   UNL     1      -4.172   3.800  24.683  0.00  0.00    +0.090 C 
BRANCH  14  16
ATOM      3  O   UNL     1      -5.428   0.483  25.321  0.00  0.00    -0.357 OA
ATOM      7  N   UNL     1      -5.422   1.857  25.529  0.00  0.00    -0.083 NA
ATOM     16  C   UNL     1      -4.464   2.324  24.723  0.00  0.00    +0.086 A 
ATOM     17  C   UNL     1      -3.838   1.301  23.991  0.00  0.00    +0.073 A 
ATOM     19  C   UNL     1      -4.481   0.164  24.404  0.00  0.00    +0.163 A 
BRANCH  19  21
ATOM     21  C   UNL     1      -4.350  -1.257  24.064  0.00  0.00    +0.236 C 
BRANCH  21   5
ATOM      5  O   UNL     1      -3.870  -1.996  25.191  0.00  0.00    -0.375 OA
ATOM     24  C   UNL     1      -3.636  -3.353  24.853  0.00  0.00    +0.194 C 
ENDBRANCH  21   5
ENDBRANCH  19  21
ENDBRANCH  14  16
ENDBRANCH  10  14
BRANCH   9  15
ATOM     15  C   UNL     1      -0.134   2.844  26.038  0.00  0.00    +0.140 C 
BRANCH  15   6
ATOM      4  O   UNL     1       0.247   0.580  24.290  0.00  0.00    -0.253 OA
ATOM      6  N   UNL     1      -0.585   1.504  26.253  0.00  0.00    -0.297 N 
ATOM      8  N   UNL     1      -0.904  -0.742  25.810  0.00  0.00    -0.297 N 
ATOM     18  C   UNL     1      -0.359   0.455  25.353  0.00  0.00    +0.300 C 
ATOM     26  H   UNL     1      -1.113   1.305  27.098  0.00  0.00    +0.150 HD
ATOM     27  H   UNL     1      -1.324  -0.760  26.735  0.00  0.00    +0.150 HD
BRANCH   8  20
ATOM     20  C   UNL     1      -0.810  -1.977  25.068  0.00  0.00    +0.068 C 
ATOM     22  C   UNL     1      -0.838  -1.703  23.569  0.00  0.00    +0.027 C 
ATOM     23  C   UNL     1       0.446  -2.740  25.466  0.00  0.00    +0.027 C 
ENDBRANCH   8  20
ENDBRANCH  15   6
ENDBRANCH   9  15
TORSDOF 8
ENDMDL
