MODEL 1
REMARK VINA RESULT:      -6.3      0.000      0.000
REMARK  Name = 25390419
REMARK  10 active torsions:
REMARK  status: ('A' for Active; 'I' for Inactive)
REMARK    1  A    between atoms: O_2  and  C_12
REMARK    2  A    between atoms: O_3  and  C_13
REMARK    3  A    between atoms: N_6  and  C_15
REMARK    4  A    between atoms: N_7  and  C_19
REMARK    5  A    between atoms: C_8  and  C_16
REMARK    6  A    between atoms: C_9  and  C_15
REMARK    7  A    between atoms: C_14  and  C_17
REMARK    8  A    between atoms: C_17  and  C_18
REMARK    9  A    between atoms: C_19  and  C_20
REMARK   10  A    between atoms: C_19  and  C_21
REMARK                            x       y       z     vdW  Elec       q    Type
REMARK                         _______ _______ _______ _____ _____    ______ ____
ROOT
ATOM      1  O   UNL     1       0.145   2.229  23.929  0.00  0.00    -0.366 OA
ATOM      9  C   UNL     1       0.038   0.923  24.522  0.00  0.00    +0.167 C 
ATOM     12  C   UNL     1      -0.888   1.089  25.715  0.00  0.00    +0.176 C 
ATOM     13  C   UNL     1      -0.512   2.474  26.201  0.00  0.00    +0.175 C 
ATOM     14  C   UNL     1      -0.284   3.219  24.891  0.00  0.00    +0.158 C 
ENDROOT
BRANCH  12   2
ATOM      2  O   UNL     1      -0.690   0.083  26.685  0.00  0.00    -0.387 OA
ATOM     23  H   UNL     1      -1.512   0.004  27.198  0.00  0.00    +0.210 HD
ENDBRANCH  12   2
BRANCH  13   3
ATOM      3  O   UNL     1       0.727   2.431  26.908  0.00  0.00    -0.387 OA
ATOM     24  H   UNL     1       0.841   1.525  27.241  0.00  0.00    +0.210 HD
ENDBRANCH  13   3
BRANCH   9  15
ATOM     15  C   UNL     1      -0.478  -0.066  23.493  0.00  0.00    +0.138 C 
BRANCH  15   6
ATOM      4  O   UNL     1      -3.282   0.696  23.357  0.00  0.00    -0.276 OA
ATOM      6  N   UNL     1      -1.607  -0.794  23.994  0.00  0.00    -0.313 N 
ATOM     16  C   UNL     1      -2.917  -0.349  23.883  0.00  0.00    +0.216 C 
ATOM     22  H   UNL     1      -1.429  -1.681  24.454  0.00  0.00    +0.149 HD
BRANCH  16   8
ATOM      8  C   UNL     1      -3.934  -1.269  24.473  0.00  0.00    +0.075 C 
ATOM     10  C   UNL     1      -4.281  -2.536  23.748  0.00  0.00    +0.013 C 
ATOM     11  C   UNL     1      -3.490  -2.594  25.021  0.00  0.00    +0.013 C 
ENDBRANCH  16   8
ENDBRANCH  15   6
ENDBRANCH   9  15
BRANCH  14  17
ATOM     17  C   UNL     1      -1.548   3.876  24.352  0.00  0.00    +0.130 C 
BRANCH  17  18
ATOM      5  O   UNL     1      -2.600   4.496  26.441  0.00  0.00    -0.276 OA
ATOM      7  N   UNL     1      -3.769   3.168  24.939  0.00  0.00    -0.313 N 
ATOM     18  C   UNL     1      -2.671   3.899  25.370  0.00  0.00    +0.216 C 
ATOM     25  H   UNL     1      -3.746   2.730  24.023  0.00  0.00    +0.149 HD
BRANCH   7  19
ATOM     19  C   UNL     1      -4.963   3.036  25.723  0.00  0.00    +0.067 C 
ATOM     20  C   UNL     1      -5.719   1.774  25.325  0.00  0.00    +0.027 C 
ATOM     21  C   UNL     1      -5.840   4.274  25.575  0.00  0.00    +0.027 C 
ENDBRANCH   7  19
ENDBRANCH  17  18
ENDBRANCH  14  17
TORSDOF 8
ENDMDL
MODEL 2
REMARK VINA RESULT:      -6.2      2.056      4.372
REMARK  Name = 25390419
REMARK  10 active torsions:
REMARK  status: ('A' for Active; 'I' for Inactive)
REMARK    1  A    between atoms: O_2  and  C_12
REMARK    2  A    between atoms: O_3  and  C_13
REMARK    3  A    between atoms: N_6  and  C_15
REMARK    4  A    between atoms: N_7  and  C_19
REMARK    5  A    between atoms: C_8  and  C_16
REMARK    6  A    between atoms: C_9  and  C_15
REMARK    7  A    between atoms: C_14  and  C_17
REMARK    8  A    between atoms: C_17  and  C_18
REMARK    9  A    between atoms: C_19  and  C_20
REMARK   10  A    between atoms: C_19  and  C_21
REMARK                            x       y       z     vdW  Elec       q    Type
REMARK                         _______ _______ _______ _____ _____    ______ ____
ROOT
ATOM      1  O   UNL     1      -3.725   1.822  25.539  0.00  0.00    -0.366 OA
ATOM      9  C   UNL     1      -4.850   1.031  25.118  0.00  0.00    +0.167 C 
ATOM     12  C   UNL     1      -5.899   2.026  24.650  0.00  0.00    +0.176 C 
ATOM     13  C   UNL     1      -5.680   3.174  25.615  0.00  0.00    +0.175 C 
ATOM     14  C   UNL     1      -4.162   3.182  25.758  0.00  0.00    +0.158 C 
ENDROOT
BRANCH  12   2
ATOM      2  O   UNL     1      -7.203   1.489  24.708  0.00  0.00    -0.387 OA
ATOM     23  H   UNL     1      -7.437   1.390  25.646  0.00  0.00    +0.210 HD
ENDBRANCH  12   2
BRANCH  13   3
ATOM      3  O   UNL     1      -6.244   2.865  26.889  0.00  0.00    -0.387 OA
ATOM     24  H   UNL     1      -7.179   2.642  26.747  0.00  0.00    +0.210 HD
ENDBRANCH  13   3
BRANCH   9  15
ATOM     15  C   UNL     1      -4.417   0.061  24.034  0.00  0.00    +0.138 C 
BRANCH  15   6
ATOM      4  O   UNL     1      -3.774  -2.763  24.298  0.00  0.00    -0.276 OA
ATOM      6  N   UNL     1      -3.142  -0.521  24.337  0.00  0.00    -0.313 N 
ATOM     16  C   UNL     1      -2.930  -1.888  24.445  0.00  0.00    +0.216 C 
ATOM     22  H   UNL     1      -2.359   0.109  24.482  0.00  0.00    +0.149 HD
BRANCH  16   8
ATOM      8  C   UNL     1      -1.523  -2.270  24.766  0.00  0.00    +0.075 C 
ATOM     10  C   UNL     1      -0.396  -1.479  24.168  0.00  0.00    +0.013 C 
ATOM     11  C   UNL     1      -0.699  -1.363  25.633  0.00  0.00    +0.013 C 
ENDBRANCH  16   8
ENDBRANCH  15   6
ENDBRANCH   9  15
BRANCH  14  17
ATOM     17  C   UNL     1      -3.471   4.066  24.729  0.00  0.00    +0.130 C 
BRANCH  17  18
ATOM      5  O   UNL     1      -1.437   5.287  25.207  0.00  0.00    -0.276 OA
ATOM      7  N   UNL     1      -1.336   2.982  24.953  0.00  0.00    -0.313 N 
ATOM     18  C   UNL     1      -1.983   4.209  24.991  0.00  0.00    +0.216 C 
ATOM     25  H   UNL     1      -1.877   2.139  24.793  0.00  0.00    +0.149 HD
BRANCH   7  19
ATOM     19  C   UNL     1       0.076   2.849  25.170  0.00  0.00    +0.067 C 
ATOM     20  C   UNL     1       0.670   1.850  24.185  0.00  0.00    +0.027 C 
ATOM     21  C   UNL     1       0.360   2.439  26.610  0.00  0.00    +0.027 C 
ENDBRANCH   7  19
ENDBRANCH  17  18
ENDBRANCH  14  17
TORSDOF 8
ENDMDL
MODEL 3
REMARK VINA RESULT:      -6.2      2.597      5.162
REMARK  Name = 25390419
REMARK  10 active torsions:
REMARK  status: ('A' for Active; 'I' for Inactive)
REMARK    1  A    between atoms: O_2  and  C_12
REMARK    2  A    between atoms: O_3  and  C_13
REMARK    3  A    between atoms: N_6  and  C_15
REMARK    4  A    between atoms: N_7  and  C_19
REMARK    5  A    between atoms: C_8  and  C_16
REMARK    6  A    between atoms: C_9  and  C_15
REMARK    7  A    between atoms: C_14  and  C_17
REMARK    8  A    between atoms: C_17  and  C_18
REMARK    9  A    between atoms: C_19  and  C_20
REMARK   10  A    between atoms: C_19  and  C_21
REMARK                            x       y       z     vdW  Elec       q    Type
REMARK                         _______ _______ _______ _____ _____    ______ ____
ROOT
ATOM      1  O   UNL     1      -1.631   2.369  23.608  0.00  0.00    -0.366 OA
ATOM      9  C   UNL     1      -0.317   2.347  24.192  0.00  0.00    +0.167 C 
ATOM     12  C   UNL     1      -0.531   2.487  25.690  0.00  0.00    +0.176 C 
ATOM     13  C   UNL     1      -1.724   3.418  25.740  0.00  0.00    +0.175 C 
ATOM     14  C   UNL     1      -2.561   2.926  24.564  0.00  0.00    +0.158 C 
ENDROOT
BRANCH  12   2
ATOM      2  O   UNL     1       0.609   3.004  26.343  0.00  0.00    -0.387 OA
ATOM     23  H   UNL     1       0.567   2.722  27.272  0.00  0.00    +0.210 HD
ENDBRANCH  12   2
BRANCH  13   3
ATOM      3  O   UNL     1      -1.319   4.759  25.465  0.00  0.00    -0.387 OA
ATOM     24  H   UNL     1      -1.767   5.036  24.648  0.00  0.00    +0.210 HD
ENDBRANCH  13   3
BRANCH   9  15
ATOM     15  C   UNL     1       0.394   1.063  23.804  0.00  0.00    +0.138 C 
BRANCH  15   6
ATOM      4  O   UNL     1       2.242  -0.194  21.943  0.00  0.00    -0.276 OA
ATOM      6  N   UNL     1       1.811   1.262  23.711  0.00  0.00    -0.313 N 
ATOM     16  C   UNL     1       2.616   0.613  22.786  0.00  0.00    +0.216 C 
ATOM     22  H   UNL     1       2.239   1.912  24.362  0.00  0.00    +0.149 HD
BRANCH  16   8
ATOM      8  C   UNL     1       4.063   0.973  22.868  0.00  0.00    +0.075 C 
ATOM     10  C   UNL     1       4.886   0.435  24.002  0.00  0.00    +0.013 C 
ATOM     11  C   UNL     1       5.095  -0.086  22.610  0.00  0.00    +0.013 C 
ENDBRANCH  16   8
ENDBRANCH  15   6
ENDBRANCH   9  15
BRANCH  14  17
ATOM     17  C   UNL     1      -3.545   1.830  24.951  0.00  0.00    +0.130 C 
BRANCH  17  18
ATOM      5  O   UNL     1      -3.643   0.352  23.037  0.00  0.00    -0.276 OA
ATOM      7  N   UNL     1      -2.639  -0.397  24.991  0.00  0.00    -0.313 N 
ATOM     18  C   UNL     1      -3.297   0.535  24.200  0.00  0.00    +0.216 C 
ATOM     25  H   UNL     1      -2.367  -0.145  25.936  0.00  0.00    +0.149 HD
BRANCH   7  19
ATOM     19  C   UNL     1      -2.288  -1.703  24.512  0.00  0.00    +0.067 C 
ATOM     20  C   UNL     1      -3.399  -2.697  24.825  0.00  0.00    +0.027 C 
ATOM     21  C   UNL     1      -0.960  -2.153  25.110  0.00  0.00    +0.027 C 
ENDBRANCH   7  19
ENDBRANCH  17  18
ENDBRANCH  14  17
TORSDOF 8
ENDMDL
MODEL 4
REMARK VINA RESULT:      -5.8      1.543      2.167
REMARK  Name = 25390419
REMARK  10 active torsions:
REMARK  status: ('A' for Active; 'I' for Inactive)
REMARK    1  A    between atoms: O_2  and  C_12
REMARK    2  A    between atoms: O_3  and  C_13
REMARK    3  A    between atoms: N_6  and  C_15
REMARK    4  A    between atoms: N_7  and  C_19
REMARK    5  A    between atoms: C_8  and  C_16
REMARK    6  A    between atoms: C_9  and  C_15
REMARK    7  A    between atoms: C_14  and  C_17
REMARK    8  A    between atoms: C_17  and  C_18
REMARK    9  A    between atoms: C_19  and  C_20
REMARK   10  A    between atoms: C_19  and  C_21
REMARK                            x       y       z     vdW  Elec       q    Type
REMARK                         _______ _______ _______ _____ _____    ______ ____
ROOT
ATOM      1  O   UNL     1      -0.663   0.784  22.869  0.00  0.00    -0.366 OA
ATOM      9  C   UNL     1       0.018   0.602  24.123  0.00  0.00    +0.167 C 
ATOM     12  C   UNL     1      -0.713   1.487  25.119  0.00  0.00    +0.176 C 
ATOM     13  C   UNL     1      -1.092   2.671  24.253  0.00  0.00    +0.175 C 
ATOM     14  C   UNL     1      -1.449   1.996  22.933  0.00  0.00    +0.158 C 
ENDROOT
BRANCH  12   2
ATOM      2  O   UNL     1       0.103   1.837  26.216  0.00  0.00    -0.387 OA
ATOM     23  H   UNL     1       0.280   1.025  26.720  0.00  0.00    +0.210 HD
ENDBRANCH  12   2
BRANCH  13   3
ATOM      3  O   UNL     1       0.045   3.506  24.030  0.00  0.00    -0.387 OA
ATOM     24  H   UNL     1       0.264   3.453  23.085  0.00  0.00    +0.210 HD
ENDBRANCH  13   3
BRANCH   9  15
ATOM     15  C   UNL     1       0.006  -0.867  24.503  0.00  0.00    +0.138 C 
BRANCH  15   6
ATOM      4  O   UNL     1      -2.012  -0.937  26.596  0.00  0.00    -0.276 OA
ATOM      6  N   UNL     1      -1.317  -1.414  24.423  0.00  0.00    -0.313 N 
ATOM     16  C   UNL     1      -2.216  -1.402  25.481  0.00  0.00    +0.216 C 
ATOM     22  H   UNL     1      -1.603  -1.831  23.543  0.00  0.00    +0.149 HD
BRANCH  16   8
ATOM      8  C   UNL     1      -3.538  -2.024  25.174  0.00  0.00    +0.075 C 
ATOM     10  C   UNL     1      -4.324  -1.526  23.996  0.00  0.00    +0.013 C 
ATOM     11  C   UNL     1      -3.676  -2.879  23.948  0.00  0.00    +0.013 C 
ENDBRANCH  16   8
ENDBRANCH  15   6
ENDBRANCH   9  15
BRANCH  14  17
ATOM     17  C   UNL     1      -2.917   1.605  22.842  0.00  0.00    +0.130 C 
BRANCH  17  18
ATOM      5  O   UNL     1      -3.984   3.764  23.077  0.00  0.00    -0.276 OA
ATOM      7  N   UNL     1      -4.460   2.096  24.619  0.00  0.00    -0.313 N 
ATOM     18  C   UNL     1      -3.832   2.622  23.499  0.00  0.00    +0.216 C 
ATOM     25  H   UNL     1      -4.292   1.129  24.876  0.00  0.00    +0.149 HD
BRANCH   7  19
ATOM     19  C   UNL     1      -5.376   2.859  25.418  0.00  0.00    +0.067 C 
ATOM     20  C   UNL     1      -4.621   3.878  26.261  0.00  0.00    +0.027 C 
ATOM     21  C   UNL     1      -6.220   1.937  26.290  0.00  0.00    +0.027 C 
ENDBRANCH   7  19
ENDBRANCH  17  18
ENDBRANCH  14  17
TORSDOF 8
ENDMDL
MODEL 5
REMARK VINA RESULT:      -5.4      1.935      4.294
REMARK  Name = 25390419
REMARK  10 active torsions:
REMARK  status: ('A' for Active; 'I' for Inactive)
REMARK    1  A    between atoms: O_2  and  C_12
REMARK    2  A    between atoms: O_3  and  C_13
REMARK    3  A    between atoms: N_6  and  C_15
REMARK    4  A    between atoms: N_7  and  C_19
REMARK    5  A    between atoms: C_8  and  C_16
REMARK    6  A    between atoms: C_9  and  C_15
REMARK    7  A    between atoms: C_14  and  C_17
REMARK    8  A    between atoms: C_17  and  C_18
REMARK    9  A    between atoms: C_19  and  C_20
REMARK   10  A    between atoms: C_19  and  C_21
REMARK                            x       y       z     vdW  Elec       q    Type
REMARK                         _______ _______ _______ _____ _____    ______ ____
ROOT
ATOM      1  O   UNL     1      -2.952   0.024  25.284  0.00  0.00    -0.366 OA
ATOM      9  C   UNL     1      -2.286  -1.245  25.407  0.00  0.00    +0.167 C 
ATOM     12  C   UNL     1      -2.374  -1.889  24.034  0.00  0.00    +0.176 C 
ATOM     13  C   UNL     1      -3.736  -1.420  23.564  0.00  0.00    +0.175 C 
ATOM     14  C   UNL     1      -3.782   0.007  24.100  0.00  0.00    +0.158 C 
ENDROOT
BRANCH  12   2
ATOM      2  O   UNL     1      -2.259  -3.295  24.099  0.00  0.00    -0.387 OA
ATOM     23  H   UNL     1      -1.735  -3.509  24.889  0.00  0.00    +0.210 HD
ENDBRANCH  12   2
BRANCH  13   3
ATOM      3  O   UNL     1      -4.767  -2.169  24.209  0.00  0.00    -0.387 OA
ATOM     24  H   UNL     1      -4.775  -1.906  25.145  0.00  0.00    +0.210 HD
ENDBRANCH  13   3
BRANCH   9  15
ATOM     15  C   UNL     1      -0.860  -1.030  25.881  0.00  0.00    +0.138 C 
BRANCH  15   6
ATOM      4  O   UNL     1       0.300   0.269  23.553  0.00  0.00    -0.276 OA
ATOM      6  N   UNL     1      -0.471   0.343  25.750  0.00  0.00    -0.313 N 
ATOM     16  C   UNL     1       0.079   0.877  24.593  0.00  0.00    +0.216 C 
ATOM     22  H   UNL     1      -0.607   0.950  26.553  0.00  0.00    +0.149 HD
BRANCH  16   8
ATOM      8  C   UNL     1       0.408   2.331  24.680  0.00  0.00    +0.075 C 
ATOM     10  C   UNL     1      -0.617   3.339  24.248  0.00  0.00    +0.013 C 
ATOM     11  C   UNL     1      -0.290   3.178  25.704  0.00  0.00    +0.013 C 
ENDBRANCH  16   8
ENDBRANCH  15   6
ENDBRANCH   9  15
BRANCH  14  17
ATOM     17  C   UNL     1      -3.219   1.029  23.121  0.00  0.00    +0.130 C 
BRANCH  17  18
ATOM      5  O   UNL     1      -3.737   3.335  22.605  0.00  0.00    -0.276 OA
ATOM      7  N   UNL     1      -3.941   2.597  24.795  0.00  0.00    -0.313 N 
ATOM     18  C   UNL     1      -3.655   2.445  23.446  0.00  0.00    +0.216 C 
ATOM     25  H   UNL     1      -3.870   1.793  25.412  0.00  0.00    +0.149 HD
BRANCH   7  19
ATOM     19  C   UNL     1      -4.375   3.844  25.356  0.00  0.00    +0.067 C 
ATOM     20  C   UNL     1      -3.504   4.219  26.548  0.00  0.00    +0.027 C 
ATOM     21  C   UNL     1      -5.846   3.771  25.749  0.00  0.00    +0.027 C 
ENDBRANCH   7  19
ENDBRANCH  17  18
ENDBRANCH  14  17
TORSDOF 8
ENDMDL
MODEL 6
REMARK VINA RESULT:      -5.2      2.086      4.647
REMARK  Name = 25390419
REMARK  10 active torsions:
REMARK  status: ('A' for Active; 'I' for Inactive)
REMARK    1  A    between atoms: O_2  and  C_12
REMARK    2  A    between atoms: O_3  and  C_13
REMARK    3  A    between atoms: N_6  and  C_15
REMARK    4  A    between atoms: N_7  and  C_19
REMARK    5  A    between atoms: C_8  and  C_16
REMARK    6  A    between atoms: C_9  and  C_15
REMARK    7  A    between atoms: C_14  and  C_17
REMARK    8  A    between atoms: C_17  and  C_18
REMARK    9  A    between atoms: C_19  and  C_20
REMARK   10  A    between atoms: C_19  and  C_21
REMARK                            x       y       z     vdW  Elec       q    Type
REMARK                         _______ _______ _______ _____ _____    ______ ____
ROOT
ATOM      1  O   UNL     1      -1.927   1.880  25.303  0.00  0.00    -0.366 OA
ATOM      9  C   UNL     1      -3.184   2.262  24.717  0.00  0.00    +0.167 C 
ATOM     12  C   UNL     1      -2.986   3.681  24.210  0.00  0.00    +0.176 C 
ATOM     13  C   UNL     1      -2.062   4.255  25.265  0.00  0.00    +0.175 C 
ATOM     14  C   UNL     1      -1.149   3.071  25.565  0.00  0.00    +0.158 C 
ENDROOT
BRANCH  12   2
ATOM      2  O   UNL     1      -4.207   4.380  24.098  0.00  0.00    -0.387 OA
ATOM     23  H   UNL     1      -4.705   4.232  24.920  0.00  0.00    +0.210 HD
ENDBRANCH  12   2
BRANCH  13   3
ATOM      3  O   UNL     1      -2.794   4.561  26.452  0.00  0.00    -0.387 OA
ATOM     24  H   UNL     1      -3.422   5.269  26.231  0.00  0.00    +0.210 HD
ENDBRANCH  13   3
BRANCH   9  15
ATOM     15  C   UNL     1      -3.558   1.280  23.623  0.00  0.00    +0.138 C 
BRANCH  15   6
ATOM      4  O   UNL     1      -4.624  -0.261  25.847  0.00  0.00    -0.276 OA
ATOM      6  N   UNL     1      -3.224  -0.064  23.995  0.00  0.00    -0.313 N 
ATOM     16  C   UNL     1      -3.787  -0.721  25.080  0.00  0.00    +0.216 C 
ATOM     22  H   UNL     1      -2.536  -0.552  23.430  0.00  0.00    +0.149 HD
BRANCH  16   8
ATOM      8  C   UNL     1      -3.292  -2.115  25.281  0.00  0.00    +0.075 C 
ATOM     10  C   UNL     1      -3.575  -3.149  24.230  0.00  0.00    +0.013 C 
ATOM     11  C   UNL     1      -2.179  -2.628  24.415  0.00  0.00    +0.013 C 
ENDBRANCH  16   8
ENDBRANCH  15   6
ENDBRANCH   9  15
BRANCH  14  17
ATOM     17  C   UNL     1       0.084   3.028  24.672  0.00  0.00    +0.130 C 
BRANCH  17  18
ATOM      5  O   UNL     1      -0.116   0.616  24.692  0.00  0.00    -0.276 OA
ATOM      7  N   UNL     1       1.673   1.591  23.580  0.00  0.00    -0.313 N 
ATOM     18  C   UNL     1       0.508   1.611  24.333  0.00  0.00    +0.216 C 
ATOM     25  H   UNL     1       2.104   2.469  23.307  0.00  0.00    +0.149 HD
BRANCH   7  19
ATOM     19  C   UNL     1       2.280   0.371  23.131  0.00  0.00    +0.067 C 
ATOM     20  C   UNL     1       3.726   0.620  22.722  0.00  0.00    +0.027 C 
ATOM     21  C   UNL     1       1.479  -0.235  21.985  0.00  0.00    +0.027 C 
ENDBRANCH   7  19
ENDBRANCH  17  18
ENDBRANCH  14  17
TORSDOF 8
ENDMDL
MODEL 7
REMARK VINA RESULT:      -5.0      2.580      6.250
REMARK  Name = 25390419
REMARK  10 active torsions:
REMARK  status: ('A' for Active; 'I' for Inactive)
REMARK    1  A    between atoms: O_2  and  C_12
REMARK    2  A    between atoms: O_3  and  C_13
REMARK    3  A    between atoms: N_6  and  C_15
REMARK    4  A    between atoms: N_7  and  C_19
REMARK    5  A    between atoms: C_8  and  C_16
REMARK    6  A    between atoms: C_9  and  C_15
REMARK    7  A    between atoms: C_14  and  C_17
REMARK    8  A    between atoms: C_17  and  C_18
REMARK    9  A    between atoms: C_19  and  C_20
REMARK   10  A    between atoms: C_19  and  C_21
REMARK                            x       y       z     vdW  Elec       q    Type
REMARK                         _______ _______ _______ _____ _____    ______ ____
ROOT
ATOM      1  O   UNL     1      -2.576   0.112  23.382  0.00  0.00    -0.366 OA
ATOM      9  C   UNL     1      -3.480  -0.100  24.481  0.00  0.00    +0.167 C 
ATOM     12  C   UNL     1      -2.640  -0.711  25.590  0.00  0.00    +0.176 C 
ATOM     13  C   UNL     1      -1.672  -1.569  24.801  0.00  0.00    +0.175 C 
ATOM     14  C   UNL     1      -1.393  -0.694  23.584  0.00  0.00    +0.158 C 
ENDROOT
BRANCH  12   2
ATOM      2  O   UNL     1      -3.424  -1.449  26.503  0.00  0.00    -0.387 OA
ATOM     23  H   UNL     1      -4.058  -1.974  25.987  0.00  0.00    +0.210 HD
ENDBRANCH  12   2
BRANCH  13   3
ATOM      3  O   UNL     1      -2.318  -2.760  24.353  0.00  0.00    -0.387 OA
ATOM     24  H   UNL     1      -2.670  -2.583  23.464  0.00  0.00    +0.210 HD
ENDBRANCH  13   3
BRANCH   9  15
ATOM     15  C   UNL     1      -4.127   1.216  24.872  0.00  0.00    +0.138 C 
BRANCH  15   6
ATOM      4  O   UNL     1      -3.862   4.036  24.213  0.00  0.00    -0.276 OA
ATOM      6  N   UNL     1      -3.156   2.143  25.374  0.00  0.00    -0.313 N 
ATOM     16  C   UNL     1      -3.106   3.478  24.999  0.00  0.00    +0.216 C 
ATOM     22  H   UNL     1      -2.471   1.795  26.038  0.00  0.00    +0.149 HD
BRANCH  16   8
ATOM      8  C   UNL     1      -2.012   4.261  25.649  0.00  0.00    +0.075 C 
ATOM     10  C   UNL     1      -0.652   4.281  25.013  0.00  0.00    +0.013 C 
ATOM     11  C   UNL     1      -1.514   5.511  24.984  0.00  0.00    +0.013 C 
ENDBRANCH  16   8
ENDBRANCH  15   6
ENDBRANCH   9  15
BRANCH  14  17
ATOM     17  C   UNL     1      -0.215   0.249  23.785  0.00  0.00    +0.130 C 
BRANCH  17  18
ATOM      5  O   UNL     1       0.820  -0.463  21.717  0.00  0.00    -0.276 OA
ATOM      7  N   UNL     1       2.170   0.112  23.515  0.00  0.00    -0.313 N 
ATOM     18  C   UNL     1       0.954  -0.078  22.875  0.00  0.00    +0.216 C 
ATOM     25  H   UNL     1       2.182   0.461  24.468  0.00  0.00    +0.149 HD
BRANCH   7  19
ATOM     19  C   UNL     1       3.428  -0.128  22.867  0.00  0.00    +0.067 C 
ATOM     20  C   UNL     1       4.248  -1.135  23.663  0.00  0.00    +0.027 C 
ATOM     21  C   UNL     1       4.190   1.178  22.679  0.00  0.00    +0.027 C 
ENDBRANCH   7  19
ENDBRANCH  17  18
ENDBRANCH  14  17
TORSDOF 8
ENDMDL
MODEL 8
REMARK VINA RESULT:      -5.0      2.107      4.500
REMARK  Name = 25390419
REMARK  10 active torsions:
REMARK  status: ('A' for Active; 'I' for Inactive)
REMARK    1  A    between atoms: O_2  and  C_12
REMARK    2  A    between atoms: O_3  and  C_13
REMARK    3  A    between atoms: N_6  and  C_15
REMARK    4  A    between atoms: N_7  and  C_19
REMARK    5  A    between atoms: C_8  and  C_16
REMARK    6  A    between atoms: C_9  and  C_15
REMARK    7  A    between atoms: C_14  and  C_17
REMARK    8  A    between atoms: C_17  and  C_18
REMARK    9  A    between atoms: C_19  and  C_20
REMARK   10  A    between atoms: C_19  and  C_21
REMARK                            x       y       z     vdW  Elec       q    Type
REMARK                         _______ _______ _______ _____ _____    ______ ____
ROOT
ATOM      1  O   UNL     1      -3.059  -0.086  25.623  0.00  0.00    -0.366 OA
ATOM      9  C   UNL     1      -1.799  -0.771  25.731  0.00  0.00    +0.167 C 
ATOM     12  C   UNL     1      -1.769  -1.758  24.577  0.00  0.00    +0.176 C 
ATOM     13  C   UNL     1      -3.224  -2.171  24.491  0.00  0.00    +0.175 C 
ATOM     14  C   UNL     1      -3.944  -0.858  24.779  0.00  0.00    +0.158 C 
ENDROOT
BRANCH  12   2
ATOM      2  O   UNL     1      -0.895  -2.839  24.825  0.00  0.00    -0.387 OA
ATOM     23  H   UNL     1      -0.184  -2.513  25.401  0.00  0.00    +0.210 HD
ENDBRANCH  12   2
BRANCH  13   3
ATOM      3  O   UNL     1      -3.541  -3.089  25.538  0.00  0.00    -0.387 OA
ATOM     24  H   UNL     1      -2.703  -3.457  25.865  0.00  0.00    +0.210 HD
ENDBRANCH  13   3
BRANCH   9  15
ATOM     15  C   UNL     1      -0.664   0.236  25.692  0.00  0.00    +0.138 C 
BRANCH  15   6
ATOM      4  O   UNL     1       0.699   2.172  24.005  0.00  0.00    -0.276 OA
ATOM      6  N   UNL     1       0.228  -0.030  24.602  0.00  0.00    -0.313 N 
ATOM     16  C   UNL     1       0.834   0.965  23.848  0.00  0.00    +0.216 C 
ATOM     22  H   UNL     1       0.419  -1.001  24.375  0.00  0.00    +0.149 HD
BRANCH  16   8
ATOM      8  C   UNL     1       1.727   0.460  22.763  0.00  0.00    +0.075 C 
ATOM     10  C   UNL     1       3.167   0.882  22.745  0.00  0.00    +0.013 C 
ATOM     11  C   UNL     1       2.803  -0.530  23.103  0.00  0.00    +0.013 C 
ENDBRANCH  16   8
ENDBRANCH  15   6
ENDBRANCH   9  15
BRANCH  14  17
ATOM     17  C   UNL     1      -4.220  -0.042  23.524  0.00  0.00    +0.130 C 
BRANCH  17  18
ATOM      5  O   UNL     1      -2.804   1.844  22.978  0.00  0.00    -0.276 OA
ATOM      7  N   UNL     1      -4.459   2.103  24.584  0.00  0.00    -0.313 N 
ATOM     18  C   UNL     1      -3.732   1.390  23.642  0.00  0.00    +0.216 C 
ATOM     25  H   UNL     1      -5.230   1.649  25.065  0.00  0.00    +0.149 HD
BRANCH   7  19
ATOM     19  C   UNL     1      -4.193   3.481  24.882  0.00  0.00    +0.067 C 
ATOM     20  C   UNL     1      -2.972   3.600  25.784  0.00  0.00    +0.027 C 
ATOM     21  C   UNL     1      -5.414   4.137  25.516  0.00  0.00    +0.027 C 
ENDBRANCH   7  19
ENDBRANCH  17  18
ENDBRANCH  14  17
TORSDOF 8
ENDMDL
MODEL 9
REMARK VINA RESULT:      -5.0      1.896      4.249
REMARK  Name = 25390419
REMARK  10 active torsions:
REMARK  status: ('A' for Active; 'I' for Inactive)
REMARK    1  A    between atoms: O_2  and  C_12
REMARK    2  A    between atoms: O_3  and  C_13
REMARK    3  A    between atoms: N_6  and  C_15
REMARK    4  A    between atoms: N_7  and  C_19
REMARK    5  A    between atoms: C_8  and  C_16
REMARK    6  A    between atoms: C_9  and  C_15
REMARK    7  A    between atoms: C_14  and  C_17
REMARK    8  A    between atoms: C_17  and  C_18
REMARK    9  A    between atoms: C_19  and  C_20
REMARK   10  A    between atoms: C_19  and  C_21
REMARK                            x       y       z     vdW  Elec       q    Type
REMARK                         _______ _______ _______ _____ _____    ______ ____
ROOT
ATOM      1  O   UNL     1      -2.929   1.971  25.509  0.00  0.00    -0.366 OA
ATOM      9  C   UNL     1      -4.344   2.230  25.536  0.00  0.00    +0.167 C 
ATOM     12  C   UNL     1      -4.496   3.712  25.234  0.00  0.00    +0.176 C 
ATOM     13  C   UNL     1      -3.274   4.288  25.920  0.00  0.00    +0.175 C 
ATOM     14  C   UNL     1      -2.219   3.224  25.637  0.00  0.00    +0.158 C 
ENDROOT
BRANCH  12   2
ATOM      2  O   UNL     1      -5.711   4.232  25.728  0.00  0.00    -0.387 OA
ATOM     23  H   UNL     1      -6.378   3.527  25.666  0.00  0.00    +0.210 HD
ENDBRANCH  12   2
BRANCH  13   3
ATOM      3  O   UNL     1      -3.479   4.344  27.332  0.00  0.00    -0.387 OA
ATOM     24  H   UNL     1      -2.615   4.210  27.757  0.00  0.00    +0.210 HD
ENDBRANCH  13   3
BRANCH   9  15
ATOM     15  C   UNL     1      -5.047   1.337  24.530  0.00  0.00    +0.138 C 
BRANCH  15   6
ATOM      4  O   UNL     1      -3.611  -0.562  22.860  0.00  0.00    -0.276 OA
ATOM      6  N   UNL     1      -4.794  -0.048  24.801  0.00  0.00    -0.313 N 
ATOM     16  C   UNL     1      -4.096  -0.882  23.938  0.00  0.00    +0.216 C 
ATOM     22  H   UNL     1      -5.150  -0.431  25.671  0.00  0.00    +0.149 HD
BRANCH  16   8
ATOM      8  C   UNL     1      -3.949  -2.287  24.422  0.00  0.00    +0.075 C 
ATOM     10  C   UNL     1      -2.587  -2.919  24.430  0.00  0.00    +0.013 C 
ATOM     11  C   UNL     1      -3.247  -2.542  25.724  0.00  0.00    +0.013 C 
ENDBRANCH  16   8
ENDBRANCH  15   6
ENDBRANCH   9  15
BRANCH  14  17
ATOM     17  C   UNL     1      -1.462   3.466  24.338  0.00  0.00    +0.130 C 
BRANCH  17  18
ATOM      5  O   UNL     1      -1.930   1.983  22.484  0.00  0.00    -0.276 OA
ATOM      7  N   UNL     1      -0.366   1.342  24.075  0.00  0.00    -0.313 N 
ATOM     18  C   UNL     1      -1.301   2.202  23.515  0.00  0.00    +0.216 C 
ATOM     25  H   UNL     1       0.125   1.622  24.918  0.00  0.00    +0.149 HD
BRANCH   7  19
ATOM     19  C   UNL     1      -0.032   0.078  23.486  0.00  0.00    +0.067 C 
ATOM     20  C   UNL     1      -0.097  -1.027  24.532  0.00  0.00    +0.027 C 
ATOM     21  C   UNL     1       1.344   0.139  22.833  0.00  0.00    +0.027 C 
ENDBRANCH   7  19
ENDBRANCH  17  18
ENDBRANCH  14  17
TORSDOF 8
ENDMDL
MODEL 10
REMARK VINA RESULT:      -4.9      1.891      4.261
REMARK  Name = 25390419
REMARK  10 active torsions:
REMARK  status: ('A' for Active; 'I' for Inactive)
REMARK    1  A    between atoms: O_2  and  C_12
REMARK    2  A    between atoms: O_3  and  C_13
REMARK    3  A    between atoms: N_6  and  C_15
REMARK    4  A    between atoms: N_7  and  C_19
REMARK    5  A    between atoms: C_8  and  C_16
REMARK    6  A    between atoms: C_9  and  C_15
REMARK    7  A    between atoms: C_14  and  C_17
REMARK    8  A    between atoms: C_17  and  C_18
REMARK    9  A    between atoms: C_19  and  C_20
REMARK   10  A    between atoms: C_19  and  C_21
REMARK                            x       y       z     vdW  Elec       q    Type
REMARK                         _______ _______ _______ _____ _____    ______ ____
ROOT
ATOM      1  O   UNL     1      -1.611  -0.077  23.918  0.00  0.00    -0.366 OA
ATOM      9  C   UNL     1      -2.747  -0.958  23.945  0.00  0.00    +0.167 C 
ATOM     12  C   UNL     1      -2.800  -1.516  25.358  0.00  0.00    +0.176 C 
ATOM     13  C   UNL     1      -1.328  -1.634  25.693  0.00  0.00    +0.175 C 
ATOM     14  C   UNL     1      -0.752  -0.382  25.040  0.00  0.00    +0.158 C 
ENDROOT
BRANCH  12   2
ATOM      2  O   UNL     1      -3.487  -2.747  25.417  0.00  0.00    -0.387 OA
ATOM     23  H   UNL     1      -2.864  -3.414  25.751  0.00  0.00    +0.210 HD
ENDBRANCH  12   2
BRANCH  13   3
ATOM      3  O   UNL     1      -0.762  -2.773  25.044  0.00  0.00    -0.387 OA
ATOM     24  H   UNL     1      -0.773  -2.597  24.088  0.00  0.00    +0.210 HD
ENDBRANCH  13   3
BRANCH   9  15
ATOM     15  C   UNL     1      -3.998  -0.193  23.554  0.00  0.00    +0.138 C 
BRANCH  15   6
ATOM      4  O   UNL     1      -3.457   2.664  23.588  0.00  0.00    -0.276 OA
ATOM      6  N   UNL     1      -4.365   0.754  24.566  0.00  0.00    -0.313 N 
ATOM     16  C   UNL     1      -4.061   2.106  24.496  0.00  0.00    +0.216 C 
ATOM     22  H   UNL     1      -4.873   0.407  25.374  0.00  0.00    +0.149 HD
BRANCH  16   8
ATOM      8  C   UNL     1      -4.542   2.908  25.660  0.00  0.00    +0.075 C 
ATOM     10  C   UNL     1      -5.622   3.929  25.448  0.00  0.00    +0.013 C 
ATOM     11  C   UNL     1      -5.923   2.662  26.196  0.00  0.00    +0.013 C 
ENDBRANCH  16   8
ENDBRANCH  15   6
ENDBRANCH   9  15
BRANCH  14  17
ATOM     17  C   UNL     1      -0.749   0.826  25.967  0.00  0.00    +0.130 C 
BRANCH  17  18
ATOM      5  O   UNL     1       0.823   2.078  24.618  0.00  0.00    -0.276 OA
ATOM      7  N   UNL     1      -0.995   3.181  25.550  0.00  0.00    -0.313 N 
ATOM     18  C   UNL     1      -0.200   2.072  25.297  0.00  0.00    +0.216 C 
ATOM     25  H   UNL     1      -1.840   3.072  26.101  0.00  0.00    +0.149 HD
BRANCH   7  19
ATOM     19  C   UNL     1      -0.691   4.482  25.027  0.00  0.00    +0.067 C 
ATOM     20  C   UNL     1      -1.858   5.432  25.264  0.00  0.00    +0.027 C 
ATOM     21  C   UNL     1      -0.342   4.396  23.546  0.00  0.00    +0.027 C 
ENDBRANCH   7  19
ENDBRANCH  17  18
ENDBRANCH  14  17
TORSDOF 8
ENDMDL
