MODEL 1
REMARK VINA RESULT:       4.3      0.000      0.000
REMARK  Name = 11867589
REMARK  8 active torsions:
REMARK  status: ('A' for Active; 'I' for Inactive)
REMARK    1  A    between atoms: N_4  and  C_11
REMARK    2  A    between atoms: N_5  and  C_12
REMARK    3  A    between atoms: N_8  and  C_30
REMARK    4  A    between atoms: N_8  and  C_31
REMARK    5  A    between atoms: N_8  and  C_32
REMARK    6  A    between atoms: C_15  and  C_18
REMARK    7  A    between atoms: C_18  and  C_22
REMARK    8  A    between atoms: C_24  and  C_25
REMARK                            x       y       z     vdW  Elec       q    Type
REMARK                         _______ _______ _______ _____ _____    ______ ____
ROOT
ATOM      1  O   UNL     1      -3.935  -1.070  23.188  0.00  0.00    -0.370 OA
ATOM      2  O   UNL     1      -2.516  -1.955  25.851  0.00  0.00    -0.370 OA
ATOM      9  C   UNL     1      -2.814  -0.679  25.255  0.00  0.00    +0.175 C 
ATOM     10  C   UNL     1      -2.637  -0.833  23.757  0.00  0.00    +0.171 C 
ATOM     11  C   UNL     1      -4.284  -0.356  25.439  0.00  0.00    +0.166 C 
ATOM     12  C   UNL     1      -1.766  -2.060  23.607  0.00  0.00    +0.130 C 
ATOM     13  C   UNL     1      -4.932  -0.995  24.217  0.00  0.00    +0.190 C 
ATOM     14  C   UNL     1      -2.157  -2.884  24.819  0.00  0.00    +0.185 C 
ENDROOT
BRANCH  11   4
ATOM      4  N   UNL     1      -4.529   1.081  25.590  0.00  0.00    -0.244 N 
ATOM      6  N   UNL     1      -5.777   1.549  25.749  0.00  0.00    -0.065 NA
ATOM      7  N   UNL     1      -5.693   2.870  25.853  0.00  0.00    -0.134 NA
ATOM     19  C   UNL     1      -3.613   2.087  25.587  0.00  0.00    +0.134 A 
ATOM     22  C   UNL     1      -4.382   3.190  25.754  0.00  0.00    +0.083 A 
BRANCH  22  18
ATOM     18  C   UNL     1      -3.945   4.619  25.833  0.00  0.00    +0.062 C 
BRANCH  18  15
ATOM     15  C   UNL     1      -2.429   4.768  25.730  0.00  0.00    -0.005 C 
ATOM     16  C   UNL     1      -2.035   5.384  24.381  0.00  0.00    +0.004 C 
ATOM     17  C   UNL     1      -1.736   3.415  25.936  0.00  0.00    +0.004 C 
ATOM     20  C   UNL     1      -0.519   5.495  24.232  0.00  0.00    +0.000 C 
ATOM     21  C   UNL     1      -0.220   3.529  25.785  0.00  0.00    +0.000 C 
ATOM     23  C   UNL     1       0.167   4.149  24.446  0.00  0.00    +0.000 C 
ENDBRANCH  18  15
ENDBRANCH  22  18
ENDBRANCH  11   4
BRANCH  12   5
ATOM      3  O   UNL     1      -0.592   0.417  22.749  0.00  0.00    -0.270 OA
ATOM      5  N   UNL     1      -0.367  -1.713  23.640  0.00  0.00    -0.304 N 
ATOM     24  C   UNL     1       0.109  -0.485  23.202  0.00  0.00    +0.244 C 
ATOM     33  H   UNL     1       0.283  -2.451  23.892  0.00  0.00    +0.149 HD
BRANCH  24  25
ATOM     25  C   UNL     1       1.581  -0.293  23.276  0.00  0.00    +0.037 A 
ATOM     26  C   UNL     1       2.105   0.951  22.994  0.00  0.00    +0.015 A 
ATOM     27  C   UNL     1       2.376  -1.365  23.626  0.00  0.00    +0.015 A 
ATOM     28  C   UNL     1       3.487   1.132  23.065  0.00  0.00    +0.024 A 
ATOM     29  C   UNL     1       3.756  -1.185  23.698  0.00  0.00    +0.024 A 
ATOM     30  C   UNL     1       4.312   0.063  23.417  0.00  0.00    +0.029 A 
BRANCH  30   8
ATOM      8  N   UNL     1       5.709   0.246  23.491  0.00  0.00    -0.336 N 
ATOM     31  C   UNL     1       6.605  -0.677  22.825  0.00  0.00    +0.129 C 
ATOM     32  C   UNL     1       6.265   1.352  24.244  0.00  0.00    +0.129 C 
ENDBRANCH  30   8
ENDBRANCH  24  25
ENDBRANCH  12   5
TORSDOF 6
ENDMDL
