MODEL 1
REMARK VINA RESULT:      -0.1      0.000      0.000
REMARK  Name = 75537083
REMARK  5 active torsions:
REMARK  status: ('A' for Active; 'I' for Inactive)
REMARK    1  A    between atoms: N_4  and  C_13
REMARK    2  A    between atoms: N_5  and  C_14
REMARK    3  A    between atoms: N_6  and  C_24
REMARK    4  A    between atoms: C_13  and  C_15
REMARK    5  A    between atoms: C_14  and  C_17
REMARK                            x       y       z     vdW  Elec       q    Type
REMARK                         _______ _______ _______ _____ _____    ______ ____
ROOT
ATOM      2  O   UNL     1      -8.830  -9.053  12.817  0.00  0.00    -0.252 OA
ATOM      3  N   UNL     1      -6.989 -10.163  11.870  0.00  0.00    -0.278 N 
ATOM      4  N   UNL     1      -4.305 -10.781  11.301  0.00  0.00    -0.295 NA
ATOM      5  N   UNL     1      -8.733  -9.670  10.542  0.00  0.00    -0.279 N 
ATOM      7  C   UNL     1      -6.665 -10.779  10.600  0.00  0.00    +0.109 C 
ATOM      8  C   UNL     1      -5.229 -10.443  10.199  0.00  0.00    +0.109 C 
ATOM      9  C   UNL     1      -7.738 -10.244   9.654  0.00  0.00    +0.133 C 
ATOM     10  C   UNL     1      -6.073 -10.306  12.983  0.00  0.00    +0.125 C 
ATOM     11  C   UNL     1      -4.642 -10.020  12.522  0.00  0.00    +0.104 C 
ATOM     12  C   UNL     1      -8.258  -9.568  11.866  0.00  0.00    +0.305 C 
ENDROOT
BRANCH   4  13
ATOM     13  C   UNL     1      -2.922 -10.520  10.904  0.00  0.00    +0.121 C 
BRANCH  13  15
ATOM      6  N   UNL     1      -1.313  -9.705  14.106  0.00  0.00    -0.349 N 
ATOM     15  C   UNL     1      -2.091 -10.026  12.052  0.00  0.00    -0.008 A 
ATOM     16  C   UNL     1      -0.983  -9.136  11.974  0.00  0.00    +0.004 A 
ATOM     18  C   UNL     1      -2.269 -10.358  13.374  0.00  0.00    +0.091 A 
ATOM     19  C   UNL     1      -0.513  -8.951  13.276  0.00  0.00    +0.049 A 
ATOM     20  C   UNL     1      -0.333  -8.468  10.918  0.00  0.00    +0.010 A 
ATOM     23  C   UNL     1       0.579  -8.129  13.577  0.00  0.00    +0.026 A 
ATOM     24  C   UNL     1      -1.176  -9.805  15.543  0.00  0.00    +0.149 C 
ATOM     25  C   UNL     1       0.761  -7.642  11.202  0.00  0.00    +0.001 A 
ATOM     26  C   UNL     1       1.208  -7.477  12.513  0.00  0.00    +0.002 A 
ENDBRANCH  13  15
ENDBRANCH   4  13
BRANCH   5  14
ATOM     14  C   UNL     1      -9.986  -9.143  10.051  0.00  0.00    +0.144 C 
BRANCH  14  17
ATOM      1  F   UNL     1      -9.463  -3.855   8.188  0.00  0.00    -0.205 F 
ATOM     17  C   UNL     1      -9.846  -7.732   9.555  0.00  0.00    -0.030 A 
ATOM     21  C   UNL     1     -10.719  -6.744  10.008  0.00  0.00    +0.008 A 
ATOM     22  C   UNL     1      -8.843  -7.412   8.641  0.00  0.00    +0.008 A 
ATOM     27  C   UNL     1     -10.590  -5.434   9.547  0.00  0.00    +0.038 A 
ATOM     28  C   UNL     1      -8.713  -6.102   8.179  0.00  0.00    +0.038 A 
ATOM     29  C   UNL     1      -9.587  -5.113   8.632  0.00  0.00    +0.123 A 
ENDBRANCH  14  17
ENDBRANCH   5  14
TORSDOF 4
ENDMDL
MODEL 2
REMARK VINA RESULT:       2.6     15.824     18.644
REMARK  Name = 75537083
REMARK  5 active torsions:
REMARK  status: ('A' for Active; 'I' for Inactive)
REMARK    1  A    between atoms: N_4  and  C_13
REMARK    2  A    between atoms: N_5  and  C_14
REMARK    3  A    between atoms: N_6  and  C_24
REMARK    4  A    between atoms: C_13  and  C_15
REMARK    5  A    between atoms: C_14  and  C_17
REMARK                            x       y       z     vdW  Elec       q    Type
REMARK                         _______ _______ _______ _____ _____    ______ ____
ROOT
ATOM      2  O   UNL     1       0.038  -2.742  22.958  0.00  0.00    -0.252 OA
ATOM      3  N   UNL     1      -1.238  -1.245  24.242  0.00  0.00    -0.278 N 
ATOM      4  N   UNL     1      -3.508  -0.061  25.408  0.00  0.00    -0.295 NA
ATOM      5  N   UNL     1       0.394  -0.410  22.943  0.00  0.00    -0.279 N 
ATOM      7  C   UNL     1      -1.209   0.168  24.559  0.00  0.00    +0.109 C 
ATOM      8  C   UNL     1      -2.623   0.745  24.543  0.00  0.00    +0.109 C 
ATOM      9  C   UNL     1      -0.264   0.753  23.512  0.00  0.00    +0.133 C 
ATOM     10  C   UNL     1      -2.178  -2.107  24.928  0.00  0.00    +0.125 C 
ATOM     11  C   UNL     1      -3.567  -1.461  24.941  0.00  0.00    +0.104 C 
ATOM     12  C   UNL     1      -0.232  -1.610  23.337  0.00  0.00    +0.305 C 
ENDROOT
BRANCH   4  13
ATOM     13  C   UNL     1      -4.849   0.519  25.447  0.00  0.00    +0.121 C 
BRANCH  13  15
ATOM      6  N   UNL     1      -5.456   4.144  25.438  0.00  0.00    -0.349 N 
ATOM     15  C   UNL     1      -4.812   2.020  25.456  0.00  0.00    -0.008 A 
ATOM     16  C   UNL     1      -3.650   2.838  25.513  0.00  0.00    +0.004 A 
ATOM     18  C   UNL     1      -5.907   2.851  25.411  0.00  0.00    +0.091 A 
ATOM     19  C   UNL     1      -4.081   4.166  25.500  0.00  0.00    +0.049 A 
ATOM     20  C   UNL     1      -2.266   2.575  25.574  0.00  0.00    +0.010 A 
ATOM     23  C   UNL     1      -3.196   5.249  25.546  0.00  0.00    +0.026 A 
ATOM     24  C   UNL     1      -6.315   5.308  25.405  0.00  0.00    +0.149 C 
ATOM     25  C   UNL     1      -1.369   3.648  25.621  0.00  0.00    +0.001 A 
ATOM     26  C   UNL     1      -1.829   4.964  25.607  0.00  0.00    +0.002 A 
ENDBRANCH  13  15
ENDBRANCH   4  13
BRANCH   5  14
ATOM     14  C   UNL     1       1.460  -0.291  21.975  0.00  0.00    +0.144 C 
BRANCH  14  17
ATOM      1  F   UNL     1       6.527  -0.131  24.426  0.00  0.00    -0.205 F 
ATOM     17  C   UNL     1       2.811  -0.249  22.629  0.00  0.00    -0.030 A 
ATOM     21  C   UNL     1       3.582   0.912  22.563  0.00  0.00    +0.008 A 
ATOM     22  C   UNL     1       3.295  -1.370  23.303  0.00  0.00    +0.008 A 
ATOM     27  C   UNL     1       4.837   0.952  23.170  0.00  0.00    +0.038 A 
ATOM     28  C   UNL     1       4.549  -1.330  23.911  0.00  0.00    +0.038 A 
ATOM     29  C   UNL     1       5.321  -0.169  23.844  0.00  0.00    +0.123 A 
ENDBRANCH  14  17
ENDBRANCH   5  14
TORSDOF 4
ENDMDL
MODEL 3
REMARK VINA RESULT:       3.2     15.246     18.027
REMARK  Name = 75537083
REMARK  5 active torsions:
REMARK  status: ('A' for Active; 'I' for Inactive)
REMARK    1  A    between atoms: N_4  and  C_13
REMARK    2  A    between atoms: N_5  and  C_14
REMARK    3  A    between atoms: N_6  and  C_24
REMARK    4  A    between atoms: C_13  and  C_15
REMARK    5  A    between atoms: C_14  and  C_17
REMARK                            x       y       z     vdW  Elec       q    Type
REMARK                         _______ _______ _______ _____ _____    ______ ____
ROOT
ATOM      2  O   UNL     1      -1.383  -3.441  23.422  0.00  0.00    -0.252 OA
ATOM      3  N   UNL     1      -2.717  -1.901  24.591  0.00  0.00    -0.278 N 
ATOM      4  N   UNL     1      -4.644   0.100  25.030  0.00  0.00    -0.295 NA
ATOM      5  N   UNL     1      -0.535  -2.028  25.109  0.00  0.00    -0.279 N 
ATOM      7  C   UNL     1      -2.561  -1.013  25.724  0.00  0.00    +0.109 C 
ATOM      8  C   UNL     1      -3.245   0.325  25.447  0.00  0.00    +0.109 C 
ATOM      9  C   UNL     1      -1.047  -0.934  25.915  0.00  0.00    +0.133 C 
ATOM     10  C   UNL     1      -4.030  -2.080  24.005  0.00  0.00    +0.125 C 
ATOM     11  C   UNL     1      -4.701  -0.719  23.802  0.00  0.00    +0.104 C 
ATOM     12  C   UNL     1      -1.528  -2.571  24.269  0.00  0.00    +0.305 C 
ENDROOT
BRANCH   4  13
ATOM     13  C   UNL     1      -5.325   1.378  24.822  0.00  0.00    +0.121 C 
BRANCH  13  15
ATOM      6  N   UNL     1      -3.716   4.427  26.094  0.00  0.00    -0.349 N 
ATOM     15  C   UNL     1      -4.449   2.545  25.174  0.00  0.00    -0.008 A 
ATOM     16  C   UNL     1      -3.142   2.804  24.676  0.00  0.00    +0.004 A 
ATOM     18  C   UNL     1      -4.774   3.560  26.043  0.00  0.00    +0.091 A 
ATOM     19  C   UNL     1      -2.704   3.990  25.268  0.00  0.00    +0.049 A 
ATOM     20  C   UNL     1      -2.286   2.140  23.774  0.00  0.00    +0.010 A 
ATOM     23  C   UNL     1      -1.449   4.549  25.003  0.00  0.00    +0.026 A 
ATOM     24  C   UNL     1      -3.681   5.625  26.904  0.00  0.00    +0.149 C 
ATOM     25  C   UNL     1      -1.028   2.687  23.499  0.00  0.00    +0.001 A 
ATOM     26  C   UNL     1      -0.617   3.873  24.106  0.00  0.00    +0.002 A 
ENDBRANCH  13  15
ENDBRANCH   4  13
BRANCH   5  14
ATOM     14  C   UNL     1       0.867  -2.379  25.095  0.00  0.00    +0.144 C 
BRANCH  14  17
ATOM      1  F   UNL     1       3.853   1.000  21.723  0.00  0.00    -0.205 F 
ATOM     17  C   UNL     1       1.663  -1.478  24.196  0.00  0.00    -0.030 A 
ATOM     21  C   UNL     1       3.046  -1.631  24.102  0.00  0.00    +0.008 A 
ATOM     22  C   UNL     1       1.019  -0.488  23.454  0.00  0.00    +0.008 A 
ATOM     27  C   UNL     1       3.786  -0.795  23.267  0.00  0.00    +0.038 A 
ATOM     28  C   UNL     1       1.758   0.348  22.618  0.00  0.00    +0.038 A 
ATOM     29  C   UNL     1       3.142   0.195  22.525  0.00  0.00    +0.123 A 
ENDBRANCH  14  17
ENDBRANCH   5  14
TORSDOF 4
ENDMDL
MODEL 4
REMARK VINA RESULT:       3.8      1.072      2.134
REMARK  Name = 75537083
REMARK  5 active torsions:
REMARK  status: ('A' for Active; 'I' for Inactive)
REMARK    1  A    between atoms: N_4  and  C_13
REMARK    2  A    between atoms: N_5  and  C_14
REMARK    3  A    between atoms: N_6  and  C_24
REMARK    4  A    between atoms: C_13  and  C_15
REMARK    5  A    between atoms: C_14  and  C_17
REMARK                            x       y       z     vdW  Elec       q    Type
REMARK                         _______ _______ _______ _____ _____    ______ ____
ROOT
ATOM      2  O   UNL     1      -7.641  -9.266  12.880  0.00  0.00    -0.252 OA
ATOM      3  N   UNL     1      -5.764 -10.164  11.791  0.00  0.00    -0.278 N 
ATOM      4  N   UNL     1      -3.084 -10.450  10.985  0.00  0.00    -0.295 NA
ATOM      5  N   UNL     1      -7.671  -9.953  10.624  0.00  0.00    -0.279 N 
ATOM      7  C   UNL     1      -5.477 -10.781  10.513  0.00  0.00    +0.109 C 
ATOM      8  C   UNL     1      -4.142 -10.278   9.968  0.00  0.00    +0.109 C 
ATOM      9  C   UNL     1      -6.694 -10.427   9.660  0.00  0.00    +0.133 C 
ATOM     10  C   UNL     1      -4.739 -10.144  12.814  0.00  0.00    +0.125 C 
ATOM     11  C   UNL     1      -3.406  -9.692  12.212  0.00  0.00    +0.104 C 
ATOM     12  C   UNL     1      -7.096  -9.739  11.892  0.00  0.00    +0.305 C 
ENDROOT
BRANCH   4  13
ATOM     13  C   UNL     1      -1.790 -10.027  10.451  0.00  0.00    +0.121 C 
BRANCH  13  15
ATOM      6  N   UNL     1       0.458  -7.859  12.386  0.00  0.00    -0.349 N 
ATOM     15  C   UNL     1      -0.979  -9.278  11.468  0.00  0.00    -0.008 A 
ATOM     16  C   UNL     1      -1.014  -9.460  12.878  0.00  0.00    +0.004 A 
ATOM     18  C   UNL     1      -0.065  -8.288  11.196  0.00  0.00    +0.091 A 
ATOM     19  C   UNL     1      -0.103  -8.557  13.431  0.00  0.00    +0.049 A 
ATOM     20  C   UNL     1      -1.737 -10.308  13.742  0.00  0.00    +0.010 A 
ATOM     23  C   UNL     1       0.123  -8.459  14.809  0.00  0.00    +0.026 A 
ATOM     24  C   UNL     1       1.457  -6.819  12.510  0.00  0.00    +0.149 C 
ATOM     25  C   UNL     1      -1.521 -10.222  15.122  0.00  0.00    +0.001 A 
ATOM     26  C   UNL     1      -0.605  -9.310  15.645  0.00  0.00    +0.002 A 
ENDBRANCH  13  15
ENDBRANCH   4  13
BRANCH   5  14
ATOM     14  C   UNL     1      -9.022  -9.612  10.241  0.00  0.00    +0.144 C 
BRANCH  14  17
ATOM      1  F   UNL     1      -9.365  -4.404   8.127  0.00  0.00    -0.205 F 
ATOM     17  C   UNL     1      -9.113  -8.223   9.677  0.00  0.00    -0.030 A 
ATOM     21  C   UNL     1     -10.197  -7.407  10.003  0.00  0.00    +0.008 A 
ATOM     22  C   UNL     1      -8.114  -7.748   8.828  0.00  0.00    +0.008 A 
ATOM     27  C   UNL     1     -10.282  -6.117   9.479  0.00  0.00    +0.038 A 
ATOM     28  C   UNL     1      -8.198  -6.458   8.305  0.00  0.00    +0.038 A 
ATOM     29  C   UNL     1      -9.283  -5.643   8.630  0.00  0.00    +0.123 A 
ENDBRANCH  14  17
ENDBRANCH   5  14
TORSDOF 4
ENDMDL
