MODEL 1
REMARK VINA RESULT:      -5.2      0.000      0.000
REMARK  Name = 51137673
REMARK  6 active torsions:
REMARK  status: ('A' for Active; 'I' for Inactive)
REMARK    1  A    between atoms: O_6  and  C_20
REMARK    2  A    between atoms: O_6  and  C_29
REMARK    3  A    between atoms: N_7  and  C_14
REMARK    4  A    between atoms: C_10  and  C_15
REMARK    5  A    between atoms: C_14  and  C_16
REMARK    6  A    between atoms: C_19  and  C_22
REMARK                            x       y       z     vdW  Elec       q    Type
REMARK                         _______ _______ _______ _____ _____    ______ ____
ROOT
ATOM      7  N   UNL     1      -3.463  -0.990  24.950  0.00  0.00    -0.297 NA
ATOM     10  C   UNL     1      -1.211  -1.370  24.417  0.00  0.00    +0.092 C 
ATOM     11  C   UNL     1      -1.313  -0.778  25.834  0.00  0.00    +0.029 C 
ATOM     12  C   UNL     1      -2.583  -1.100  23.785  0.00  0.00    +0.097 C 
ATOM     13  C   UNL     1      -2.713  -0.184  25.913  0.00  0.00    +0.085 C 
ENDROOT
BRANCH  10  15
ATOM      5  O   UNL     1       1.185  -0.977  24.106  0.00  0.00    -0.420 OA
ATOM      8  N   UNL     1      -0.085  -0.251  22.414  0.00  0.00    -0.112 NA
ATOM      9  N   UNL     1       1.234   0.032  22.111  0.00  0.00    -0.107 NA
ATOM     15  C   UNL     1      -0.065  -0.839  23.587  0.00  0.00    +0.222 A 
ATOM     19  C   UNL     1       1.940  -0.409  23.125  0.00  0.00    +0.251 A 
BRANCH  19  22
ATOM      1  F   UNL     1       3.474   1.897  22.697  0.00  0.00    -0.205 F 
ATOM     22  C   UNL     1       3.355  -0.385  23.357  0.00  0.00    +0.074 A 
ATOM     24  C   UNL     1       4.082   0.784  23.131  0.00  0.00    +0.136 A 
ATOM     25  C   UNL     1       4.003  -1.535  23.808  0.00  0.00    +0.016 A 
ATOM     26  C   UNL     1       5.459   0.802  23.356  0.00  0.00    +0.039 A 
ATOM     27  C   UNL     1       5.380  -1.516  24.033  0.00  0.00    +0.001 A 
ATOM     28  C   UNL     1       6.107  -0.347  23.807  0.00  0.00    +0.003 A 
ENDBRANCH  19  22
ENDBRANCH  10  15
BRANCH   7  14
ATOM     14  C   UNL     1      -4.752  -0.400  24.618  0.00  0.00    +0.119 C 
BRANCH  14  16
ATOM     16  C   UNL     1      -4.777   1.081  24.888  0.00  0.00    -0.030 A 
ATOM     17  C   UNL     1      -3.719   1.885  24.461  0.00  0.00    +0.051 A 
ATOM     18  C   UNL     1      -5.857   1.649  25.562  0.00  0.00    +0.005 A 
ATOM     20  C   UNL     1      -3.743   3.257  24.710  0.00  0.00    +0.130 A 
ATOM     21  C   UNL     1      -5.880   3.021  25.811  0.00  0.00    +0.004 A 
ATOM     23  C   UNL     1      -4.823   3.825  25.385  0.00  0.00    +0.046 A 
BRANCH  20   6
ATOM      6  O   UNL     1      -2.710   4.041  24.294  0.00  0.00    -0.406 OA
BRANCH   6  29
ATOM      2  F   UNL     1      -1.797   3.570  26.337  0.00  0.00    -0.133 F 
ATOM      3  F   UNL     1      -1.450   5.528  25.431  0.00  0.00    -0.133 F 
ATOM      4  F   UNL     1      -0.459   3.772  24.589  0.00  0.00    -0.133 F 
ATOM     29  C   UNL     1      -1.598   4.210  25.166  0.00  0.00    +0.575 C 
ENDBRANCH   6  29
ENDBRANCH  20   6
ENDBRANCH  14  16
ENDBRANCH   7  14
TORSDOF 6
ENDMDL
MODEL 2
REMARK VINA RESULT:      -4.1     15.123     16.577
REMARK  Name = 51137673
REMARK  6 active torsions:
REMARK  status: ('A' for Active; 'I' for Inactive)
REMARK    1  A    between atoms: O_6  and  C_20
REMARK    2  A    between atoms: O_6  and  C_29
REMARK    3  A    between atoms: N_7  and  C_14
REMARK    4  A    between atoms: C_10  and  C_15
REMARK    5  A    between atoms: C_14  and  C_16
REMARK    6  A    between atoms: C_19  and  C_22
REMARK                            x       y       z     vdW  Elec       q    Type
REMARK                         _______ _______ _______ _____ _____    ______ ____
ROOT
ATOM      7  N   UNL     1      -8.697  -9.094  10.849  0.00  0.00    -0.297 NA
ATOM     10  C   UNL     1      -6.372  -8.858  10.650  0.00  0.00    +0.092 C 
ATOM     11  C   UNL     1      -6.967  -9.269   9.291  0.00  0.00    +0.029 C 
ATOM     12  C   UNL     1      -7.483  -9.157  11.666  0.00  0.00    +0.097 C 
ATOM     13  C   UNL     1      -8.358  -9.801   9.614  0.00  0.00    +0.085 C 
ENDROOT
BRANCH  10  15
ATOM      5  O   UNL     1      -4.708  -9.540  12.311  0.00  0.00    -0.420 OA
ATOM      8  N   UNL     1      -4.186 -10.106  10.211  0.00  0.00    -0.112 NA
ATOM      9  N   UNL     1      -3.170 -10.547  11.038  0.00  0.00    -0.107 NA
ATOM     15  C   UNL     1      -5.061  -9.524  10.996  0.00  0.00    +0.222 A 
ATOM     19  C   UNL     1      -3.516 -10.196  12.253  0.00  0.00    +0.251 A 
BRANCH  19  22
ATOM      1  F   UNL     1      -0.721 -10.221  12.453  0.00  0.00    -0.205 F 
ATOM     22  C   UNL     1      -2.847 -10.391  13.507  0.00  0.00    +0.074 A 
ATOM     24  C   UNL     1      -1.453 -10.397  13.563  0.00  0.00    +0.136 A 
ATOM     25  C   UNL     1      -3.593 -10.576  14.670  0.00  0.00    +0.016 A 
ATOM     26  C   UNL     1      -0.806 -10.589  14.784  0.00  0.00    +0.039 A 
ATOM     27  C   UNL     1      -2.945 -10.768  15.891  0.00  0.00    +0.001 A 
ATOM     28  C   UNL     1      -1.552 -10.775  15.947  0.00  0.00    +0.003 A 
ENDBRANCH  19  22
ENDBRANCH  10  15
BRANCH   7  14
ATOM     14  C   UNL     1      -9.849  -9.677  11.522  0.00  0.00    +0.119 C 
BRANCH  14  16
ATOM     16  C   UNL     1      -9.872  -9.338  12.989  0.00  0.00    -0.030 A 
ATOM     17  C   UNL     1      -9.067 -10.046  13.881  0.00  0.00    +0.051 A 
ATOM     18  C   UNL     1     -10.699  -8.316  13.455  0.00  0.00    +0.005 A 
ATOM     20  C   UNL     1      -9.088  -9.732  15.239  0.00  0.00    +0.130 A 
ATOM     21  C   UNL     1     -10.720  -8.002  14.814  0.00  0.00    +0.004 A 
ATOM     23  C   UNL     1      -9.915  -8.710  15.706  0.00  0.00    +0.046 A 
BRANCH  20   6
ATOM      6  O   UNL     1      -8.302 -10.423  16.110  0.00  0.00    -0.406 OA
BRANCH   6  29
ATOM      2  F   UNL     1      -6.379 -10.678  17.320  0.00  0.00    -0.133 F 
ATOM      3  F   UNL     1      -7.178  -8.672  16.983  0.00  0.00    -0.133 F 
ATOM      4  F   UNL     1      -6.266  -9.751  15.317  0.00  0.00    -0.133 F 
ATOM     29  C   UNL     1      -7.020  -9.895  16.427  0.00  0.00    +0.575 C 
ENDBRANCH   6  29
ENDBRANCH  20   6
ENDBRANCH  14  16
ENDBRANCH   7  14
TORSDOF 6
ENDMDL
MODEL 3
REMARK VINA RESULT:      -3.9      2.656      3.728
REMARK  Name = 51137673
REMARK  6 active torsions:
REMARK  status: ('A' for Active; 'I' for Inactive)
REMARK    1  A    between atoms: O_6  and  C_20
REMARK    2  A    between atoms: O_6  and  C_29
REMARK    3  A    between atoms: N_7  and  C_14
REMARK    4  A    between atoms: C_10  and  C_15
REMARK    5  A    between atoms: C_14  and  C_16
REMARK    6  A    between atoms: C_19  and  C_22
REMARK                            x       y       z     vdW  Elec       q    Type
REMARK                         _______ _______ _______ _____ _____    ______ ____
ROOT
ATOM      7  N   UNL     1      -2.217   4.125  25.771  0.00  0.00    -0.297 NA
ATOM     10  C   UNL     1      -0.264   3.190  24.870  0.00  0.00    +0.092 C 
ATOM     11  C   UNL     1      -0.808   4.268  23.916  0.00  0.00    +0.029 C 
ATOM     12  C   UNL     1      -1.430   2.890  25.821  0.00  0.00    +0.097 C 
ATOM     13  C   UNL     1      -2.248   4.495  24.357  0.00  0.00    +0.085 C 
ENDROOT
BRANCH  10  15
ATOM      5  O   UNL     1       1.616   1.740  24.272  0.00  0.00    -0.420 OA
ATOM      8  N   UNL     1      -0.364   1.025  23.515  0.00  0.00    -0.112 NA
ATOM      9  N   UNL     1       0.601   0.122  23.109  0.00  0.00    -0.107 NA
ATOM     15  C   UNL     1       0.274   1.953  24.190  0.00  0.00    +0.222 A 
ATOM     19  C   UNL     1       1.740   0.579  23.572  0.00  0.00    +0.251 A 
BRANCH  19  22
ATOM      1  F   UNL     1       3.854   2.109  22.550  0.00  0.00    -0.205 F 
ATOM     22  C   UNL     1       3.071   0.055  23.459  0.00  0.00    +0.074 A 
ATOM     24  C   UNL     1       4.095   0.850  22.943  0.00  0.00    +0.136 A 
ATOM     25  C   UNL     1       3.338  -1.253  23.863  0.00  0.00    +0.016 A 
ATOM     26  C   UNL     1       5.387   0.335  22.833  0.00  0.00    +0.039 A 
ATOM     27  C   UNL     1       4.630  -1.767  23.752  0.00  0.00    +0.001 A 
ATOM     28  C   UNL     1       5.654  -0.972  23.237  0.00  0.00    +0.003 A 
ENDBRANCH  19  22
ENDBRANCH  10  15
BRANCH   7  14
ATOM     14  C   UNL     1      -3.551   3.956  26.329  0.00  0.00    +0.119 C 
BRANCH  14  16
ATOM     16  C   UNL     1      -4.294   2.823  25.674  0.00  0.00    -0.030 A 
ATOM     17  C   UNL     1      -3.587   1.784  25.068  0.00  0.00    +0.051 A 
ATOM     18  C   UNL     1      -5.688   2.811  25.672  0.00  0.00    +0.005 A 
ATOM     20  C   UNL     1      -4.275   0.733  24.461  0.00  0.00    +0.130 A 
ATOM     21  C   UNL     1      -6.376   1.761  25.066  0.00  0.00    +0.004 A 
ATOM     23  C   UNL     1      -5.670   0.722  24.460  0.00  0.00    +0.046 A 
BRANCH  20   6
ATOM      6  O   UNL     1      -3.585  -0.280  23.870  0.00  0.00    -0.406 OA
BRANCH   6  29
ATOM      2  F   UNL     1      -3.839  -1.467  25.808  0.00  0.00    -0.133 F 
ATOM      3  F   UNL     1      -2.422  -2.166  24.297  0.00  0.00    -0.133 F 
ATOM      4  F   UNL     1      -4.566  -2.345  23.914  0.00  0.00    -0.133 F 
ATOM     29  C   UNL     1      -3.620  -1.566  24.479  0.00  0.00    +0.575 C 
ENDBRANCH   6  29
ENDBRANCH  20   6
ENDBRANCH  14  16
ENDBRANCH   7  14
TORSDOF 6
ENDMDL
MODEL 4
REMARK VINA RESULT:      -3.4      3.387      6.505
REMARK  Name = 51137673
REMARK  6 active torsions:
REMARK  status: ('A' for Active; 'I' for Inactive)
REMARK    1  A    between atoms: O_6  and  C_20
REMARK    2  A    between atoms: O_6  and  C_29
REMARK    3  A    between atoms: N_7  and  C_14
REMARK    4  A    between atoms: C_10  and  C_15
REMARK    5  A    between atoms: C_14  and  C_16
REMARK    6  A    between atoms: C_19  and  C_22
REMARK                            x       y       z     vdW  Elec       q    Type
REMARK                         _______ _______ _______ _____ _____    ______ ____
ROOT
ATOM      7  N   UNL     1      -2.799   5.083  24.933  0.00  0.00    -0.297 NA
ATOM     10  C   UNL     1      -4.660   3.685  24.642  0.00  0.00    +0.092 C 
ATOM     11  C   UNL     1      -4.746   4.380  26.013  0.00  0.00    +0.029 C 
ATOM     12  C   UNL     1      -3.205   3.883  24.198  0.00  0.00    +0.097 C 
ATOM     13  C   UNL     1      -3.340   4.901  26.280  0.00  0.00    +0.085 C 
ENDROOT
BRANCH  10  15
ATOM      5  O   UNL     1      -4.100   1.304  24.531  0.00  0.00    -0.420 OA
ATOM      8  N   UNL     1      -6.290   1.719  24.720  0.00  0.00    -0.112 NA
ATOM      9  N   UNL     1      -6.117   0.348  24.668  0.00  0.00    -0.107 NA
ATOM     15  C   UNL     1      -5.087   2.236  24.637  0.00  0.00    +0.222 A 
ATOM     19  C   UNL     1      -4.825   0.152  24.558  0.00  0.00    +0.251 A 
BRANCH  19  22
ATOM      1  F   UNL     1      -2.248  -0.085  25.636  0.00  0.00    -0.205 F 
ATOM     22  C   UNL     1      -4.071  -1.064  24.463  0.00  0.00    +0.074 A 
ATOM     24  C   UNL     1      -2.791  -1.141  25.012  0.00  0.00    +0.136 A 
ATOM     25  C   UNL     1      -4.621  -2.172  23.817  0.00  0.00    +0.016 A 
ATOM     26  C   UNL     1      -2.061  -2.325  24.916  0.00  0.00    +0.039 A 
ATOM     27  C   UNL     1      -3.890  -3.356  23.721  0.00  0.00    +0.001 A 
ATOM     28  C   UNL     1      -2.610  -3.433  24.270  0.00  0.00    +0.003 A 
ENDBRANCH  19  22
ENDBRANCH  10  15
BRANCH   7  14
ATOM     14  C   UNL     1      -1.356   5.271  24.936  0.00  0.00    +0.119 C 
BRANCH  14  16
ATOM     16  C   UNL     1      -0.623   3.984  25.209  0.00  0.00    -0.030 A 
ATOM     17  C   UNL     1      -0.074   3.257  24.152  0.00  0.00    +0.051 A 
ATOM     18  C   UNL     1      -0.492   3.520  26.517  0.00  0.00    +0.005 A 
ATOM     20  C   UNL     1       0.605   2.066  24.405  0.00  0.00    +0.130 A 
ATOM     21  C   UNL     1       0.187   2.329  26.769  0.00  0.00    +0.004 A 
ATOM     23  C   UNL     1       0.736   1.602  25.713  0.00  0.00    +0.046 A 
BRANCH  20   6
ATOM      6  O   UNL     1       1.141   1.356  23.373  0.00  0.00    -0.406 OA
BRANCH   6  29
ATOM      2  F   UNL     1       0.936  -0.278  21.787  0.00  0.00    -0.133 F 
ATOM      3  F   UNL     1      -0.816   0.315  22.950  0.00  0.00    -0.133 F 
ATOM      4  F   UNL     1       0.770  -0.832  23.921  0.00  0.00    -0.133 F 
ATOM     29  C   UNL     1       0.522   0.129  23.006  0.00  0.00    +0.575 C 
ENDBRANCH   6  29
ENDBRANCH  20   6
ENDBRANCH  14  16
ENDBRANCH   7  14
TORSDOF 6
ENDMDL
MODEL 5
REMARK VINA RESULT:      -2.9      2.009      6.812
REMARK  Name = 51137673
REMARK  6 active torsions:
REMARK  status: ('A' for Active; 'I' for Inactive)
REMARK    1  A    between atoms: O_6  and  C_20
REMARK    2  A    between atoms: O_6  and  C_29
REMARK    3  A    between atoms: N_7  and  C_14
REMARK    4  A    between atoms: C_10  and  C_15
REMARK    5  A    between atoms: C_14  and  C_16
REMARK    6  A    between atoms: C_19  and  C_22
REMARK                            x       y       z     vdW  Elec       q    Type
REMARK                         _______ _______ _______ _____ _____    ______ ____
ROOT
ATOM      7  N   UNL     1      -2.565  -2.136  24.954  0.00  0.00    -0.297 NA
ATOM     10  C   UNL     1      -4.331  -0.655  25.385  0.00  0.00    +0.092 C 
ATOM     11  C   UNL     1      -4.613  -1.427  24.084  0.00  0.00    +0.029 C 
ATOM     12  C   UNL     1      -2.838  -0.879  25.655  0.00  0.00    +0.097 C 
ATOM     13  C   UNL     1      -3.268  -2.016  23.677  0.00  0.00    +0.085 C 
ENDROOT
BRANCH  10  15
ATOM      5  O   UNL     1      -3.723   1.692  25.043  0.00  0.00    -0.420 OA
ATOM      8  N   UNL     1      -5.872   1.375  25.575  0.00  0.00    -0.112 NA
ATOM      9  N   UNL     1      -5.667   2.733  25.412  0.00  0.00    -0.107 NA
ATOM     15  C   UNL     1      -4.711   0.808  25.350  0.00  0.00    +0.222 A 
ATOM     19  C   UNL     1      -4.400   2.871  25.102  0.00  0.00    +0.251 A 
BRANCH  19  22
ATOM      1  F   UNL     1      -1.976   3.406  26.404  0.00  0.00    -0.205 F 
ATOM     22  C   UNL     1      -3.633   4.050  24.822  0.00  0.00    +0.074 A 
ATOM     24  C   UNL     1      -2.431   4.280  25.493  0.00  0.00    +0.136 A 
ATOM     25  C   UNL     1      -4.091   4.969  23.878  0.00  0.00    +0.016 A 
ATOM     26  C   UNL     1      -1.688   5.428  25.219  0.00  0.00    +0.039 A 
ATOM     27  C   UNL     1      -3.348   6.117  23.604  0.00  0.00    +0.001 A 
ATOM     28  C   UNL     1      -2.147   6.347  24.275  0.00  0.00    +0.003 A 
ENDBRANCH  19  22
ENDBRANCH  10  15
BRANCH   7  14
ATOM     14  C   UNL     1      -1.141  -2.379  24.782  0.00  0.00    +0.119 C 
BRANCH  14  16
ATOM     16  C   UNL     1      -0.392  -1.114  24.457  0.00  0.00    -0.030 A 
ATOM     17  C   UNL     1       0.564  -1.111  23.440  0.00  0.00    +0.051 A 
ATOM     18  C   UNL     1      -0.653   0.054  25.172  0.00  0.00    +0.005 A 
ATOM     20  C   UNL     1       1.257   0.061  23.139  0.00  0.00    +0.130 A 
ATOM     21  C   UNL     1       0.041   1.226  24.870  0.00  0.00    +0.004 A 
ATOM     23  C   UNL     1       0.995   1.229  23.853  0.00  0.00    +0.046 A 
BRANCH  20   6
ATOM      6  O   UNL     1       2.189   0.063  22.146  0.00  0.00    -0.406 OA
BRANCH   6  29
ATOM      2  F   UNL     1       3.600   1.603  23.078  0.00  0.00    -0.133 F 
ATOM      3  F   UNL     1       4.265   0.445  21.347  0.00  0.00    -0.133 F 
ATOM      4  F   UNL     1       4.076  -0.546  23.285  0.00  0.00    -0.133 F 
ATOM     29  C   UNL     1       3.532   0.393  22.483  0.00  0.00    +0.575 C 
ENDBRANCH   6  29
ENDBRANCH  20   6
ENDBRANCH  14  16
ENDBRANCH   7  14
TORSDOF 6
ENDMDL
MODEL 6
REMARK VINA RESULT:      -2.4      2.871      7.101
REMARK  Name = 51137673
REMARK  6 active torsions:
REMARK  status: ('A' for Active; 'I' for Inactive)
REMARK    1  A    between atoms: O_6  and  C_20
REMARK    2  A    between atoms: O_6  and  C_29
REMARK    3  A    between atoms: N_7  and  C_14
REMARK    4  A    between atoms: C_10  and  C_15
REMARK    5  A    between atoms: C_14  and  C_16
REMARK    6  A    between atoms: C_19  and  C_22
REMARK                            x       y       z     vdW  Elec       q    Type
REMARK                         _______ _______ _______ _____ _____    ______ ____
ROOT
ATOM      7  N   UNL     1      -1.203   4.357  24.680  0.00  0.00    -0.297 NA
ATOM     10  C   UNL     1      -3.427   3.612  24.700  0.00  0.00    +0.092 C 
ATOM     11  C   UNL     1      -3.071   4.208  26.073  0.00  0.00    +0.029 C 
ATOM     12  C   UNL     1      -2.074   3.387  24.012  0.00  0.00    +0.097 C 
ATOM     13  C   UNL     1      -1.549   4.259  26.098  0.00  0.00    +0.085 C 
ENDROOT
BRANCH  10  15
ATOM      5  O   UNL     1      -3.632   1.174  24.609  0.00  0.00    -0.420 OA
ATOM      8  N   UNL     1      -5.574   2.242  24.913  0.00  0.00    -0.112 NA
ATOM      9  N   UNL     1      -5.832   0.884  24.881  0.00  0.00    -0.107 NA
ATOM     15  C   UNL     1      -4.277   2.364  24.750  0.00  0.00    +0.222 A 
ATOM     19  C   UNL     1      -4.671   0.300  24.702  0.00  0.00    +0.251 A 
BRANCH  19  22
ATOM      1  F   UNL     1      -3.099  -1.003  26.621  0.00  0.00    -0.205 F 
ATOM     22  C   UNL     1      -4.334  -1.090  24.590  0.00  0.00    +0.074 A 
ATOM     24  C   UNL     1      -3.548  -1.701  25.568  0.00  0.00    +0.136 A 
ATOM     25  C   UNL     1      -4.794  -1.829  23.501  0.00  0.00    +0.016 A 
ATOM     26  C   UNL     1      -3.221  -3.052  25.454  0.00  0.00    +0.039 A 
ATOM     27  C   UNL     1      -4.466  -3.181  23.388  0.00  0.00    +0.001 A 
ATOM     28  C   UNL     1      -3.680  -3.791  24.365  0.00  0.00    +0.003 A 
ENDBRANCH  19  22
ENDBRANCH  10  15
BRANCH   7  14
ATOM     14  C   UNL     1       0.208   4.098  24.435  0.00  0.00    +0.119 C 
BRANCH  14  16
ATOM     16  C   UNL     1       0.478   2.635  24.205  0.00  0.00    -0.030 A 
ATOM     17  C   UNL     1       1.531   2.242  23.378  0.00  0.00    +0.051 A 
ATOM     18  C   UNL     1      -0.323   1.673  24.819  0.00  0.00    +0.005 A 
ATOM     20  C   UNL     1       1.781   0.887  23.165  0.00  0.00    +0.130 A 
ATOM     21  C   UNL     1      -0.072   0.318  24.606  0.00  0.00    +0.004 A 
ATOM     23  C   UNL     1       0.980  -0.075  23.779  0.00  0.00    +0.046 A 
BRANCH  20   6
ATOM      6  O   UNL     1       2.808   0.503  22.358  0.00  0.00    -0.406 OA
BRANCH   6  29
ATOM      2  F   UNL     1       4.374   1.004  23.946  0.00  0.00    -0.133 F 
ATOM      3  F   UNL     1       5.017   0.182  22.026  0.00  0.00    -0.133 F 
ATOM      4  F   UNL     1       3.992  -1.117  23.453  0.00  0.00    -0.133 F 
ATOM     29  C   UNL     1       4.043   0.140  22.963  0.00  0.00    +0.575 C 
ENDBRANCH   6  29
ENDBRANCH  20   6
ENDBRANCH  14  16
ENDBRANCH   7  14
TORSDOF 6
ENDMDL
MODEL 7
REMARK VINA RESULT:      -2.0      3.594      5.681
REMARK  Name = 51137673
REMARK  6 active torsions:
REMARK  status: ('A' for Active; 'I' for Inactive)
REMARK    1  A    between atoms: O_6  and  C_20
REMARK    2  A    between atoms: O_6  and  C_29
REMARK    3  A    between atoms: N_7  and  C_14
REMARK    4  A    between atoms: C_10  and  C_15
REMARK    5  A    between atoms: C_14  and  C_16
REMARK    6  A    between atoms: C_19  and  C_22
REMARK                            x       y       z     vdW  Elec       q    Type
REMARK                         _______ _______ _______ _____ _____    ______ ____
ROOT
ATOM      7  N   UNL     1      -0.581   4.660  25.101  0.00  0.00    -0.297 NA
ATOM     10  C   UNL     1       0.502   2.613  24.733  0.00  0.00    +0.092 C 
ATOM     11  C   UNL     1       0.774   3.559  23.550  0.00  0.00    +0.029 C 
ATOM     12  C   UNL     1      -0.682   3.248  25.474  0.00  0.00    +0.097 C 
ATOM     13  C   UNL     1      -0.282   4.651  23.669  0.00  0.00    +0.085 C 
ENDROOT
BRANCH  10  15
ATOM      5  O   UNL     1      -1.007   0.694  24.539  0.00  0.00    -0.420 OA
ATOM      8  N   UNL     1       1.082   0.285  23.851  0.00  0.00    -0.112 NA
ATOM      9  N   UNL     1       0.343  -0.872  23.688  0.00  0.00    -0.107 NA
ATOM     15  C   UNL     1       0.253   1.172  24.350  0.00  0.00    +0.222 A 
ATOM     19  C   UNL     1      -0.868  -0.588  24.101  0.00  0.00    +0.251 A 
BRANCH  19  22
ATOM      1  F   UNL     1      -0.826  -3.177  25.173  0.00  0.00    -0.205 F 
ATOM     22  C   UNL     1      -2.047  -1.402  24.164  0.00  0.00    +0.074 A 
ATOM     24  C   UNL     1      -1.984  -2.687  24.704  0.00  0.00    +0.136 A 
ATOM     25  C   UNL     1      -3.258  -0.907  23.681  0.00  0.00    +0.016 A 
ATOM     26  C   UNL     1      -3.132  -3.476  24.761  0.00  0.00    +0.039 A 
ATOM     27  C   UNL     1      -4.407  -1.698  23.738  0.00  0.00    +0.001 A 
ATOM     28  C   UNL     1      -4.343  -2.982  24.278  0.00  0.00    +0.003 A 
ENDBRANCH  19  22
ENDBRANCH  10  15
BRANCH   7  14
ATOM     14  C   UNL     1      -1.793   5.404  25.409  0.00  0.00    +0.119 C 
BRANCH  14  16
ATOM     16  C   UNL     1      -3.032   4.642  25.023  0.00  0.00    -0.030 A 
ATOM     17  C   UNL     1      -3.828   4.059  26.010  0.00  0.00    +0.051 A 
ATOM     18  C   UNL     1      -3.386   4.521  23.680  0.00  0.00    +0.005 A 
ATOM     20  C   UNL     1      -4.976   3.353  25.652  0.00  0.00    +0.130 A 
ATOM     21  C   UNL     1      -4.535   3.815  23.323  0.00  0.00    +0.004 A 
ATOM     23  C   UNL     1      -5.330   3.231  24.309  0.00  0.00    +0.046 A 
BRANCH  20   6
ATOM      6  O   UNL     1      -5.752   2.783  26.615  0.00  0.00    -0.406 OA
BRANCH   6  29
ATOM      2  F   UNL     1      -7.010   1.054  27.425  0.00  0.00    -0.133 F 
ATOM      3  F   UNL     1      -5.308   0.627  26.122  0.00  0.00    -0.133 F 
ATOM      4  F   UNL     1      -7.106   1.527  25.268  0.00  0.00    -0.133 F 
ATOM     29  C   UNL     1      -6.312   1.501  26.359  0.00  0.00    +0.575 C 
ENDBRANCH   6  29
ENDBRANCH  20   6
ENDBRANCH  14  16
ENDBRANCH   7  14
TORSDOF 6
ENDMDL
MODEL 8
REMARK VINA RESULT:      -1.7      2.564      6.338
REMARK  Name = 51137673
REMARK  6 active torsions:
REMARK  status: ('A' for Active; 'I' for Inactive)
REMARK    1  A    between atoms: O_6  and  C_20
REMARK    2  A    between atoms: O_6  and  C_29
REMARK    3  A    between atoms: N_7  and  C_14
REMARK    4  A    between atoms: C_10  and  C_15
REMARK    5  A    between atoms: C_14  and  C_16
REMARK    6  A    between atoms: C_19  and  C_22
REMARK                            x       y       z     vdW  Elec       q    Type
REMARK                         _______ _______ _______ _____ _____    ______ ____
ROOT
ATOM      7  N   UNL     1      -2.202  -2.411  25.038  0.00  0.00    -0.297 NA
ATOM     10  C   UNL     1      -4.137  -1.123  25.350  0.00  0.00    +0.092 C 
ATOM     11  C   UNL     1      -4.246  -1.905  24.028  0.00  0.00    +0.029 C 
ATOM     12  C   UNL     1      -2.651  -1.197  25.723  0.00  0.00    +0.097 C 
ATOM     13  C   UNL     1      -2.822  -2.348  23.715  0.00  0.00    +0.085 C 
ENDROOT
BRANCH  10  15
ATOM      5  O   UNL     1      -3.737   1.289  25.216  0.00  0.00    -0.420 OA
ATOM      8  N   UNL     1      -5.900   0.727  25.311  0.00  0.00    -0.112 NA
ATOM      9  N   UNL     1      -5.819   2.105  25.239  0.00  0.00    -0.107 NA
ATOM     15  C   UNL     1      -4.662   0.293  25.295  0.00  0.00    +0.222 A 
ATOM     19  C   UNL     1      -4.540   2.388  25.185  0.00  0.00    +0.251 A 
BRANCH  19  22
ATOM      1  F   UNL     1      -3.798   3.514  22.728  0.00  0.00    -0.205 F 
ATOM     22  C   UNL     1      -3.868   3.653  25.102  0.00  0.00    +0.074 A 
ATOM     24  C   UNL     1      -3.515   4.178  23.858  0.00  0.00    +0.136 A 
ATOM     25  C   UNL     1      -3.566   4.356  26.267  0.00  0.00    +0.016 A 
ATOM     26  C   UNL     1      -2.860   5.407  23.781  0.00  0.00    +0.039 A 
ATOM     27  C   UNL     1      -2.910   5.585  26.190  0.00  0.00    +0.001 A 
ATOM     28  C   UNL     1      -2.558   6.110  24.947  0.00  0.00    +0.003 A 
ENDBRANCH  19  22
ENDBRANCH  10  15
BRANCH   7  14
ATOM     14  C   UNL     1      -0.751  -2.504  24.967  0.00  0.00    +0.119 C 
BRANCH  14  16
ATOM     16  C   UNL     1      -0.139  -1.268  24.362  0.00  0.00    -0.030 A 
ATOM     17  C   UNL     1      -0.640  -0.009  24.694  0.00  0.00    +0.051 A 
ATOM     18  C   UNL     1       0.928  -1.383  23.472  0.00  0.00    +0.005 A 
ATOM     20  C   UNL     1      -0.072   1.136  24.134  0.00  0.00    +0.130 A 
ATOM     21  C   UNL     1       1.495  -0.238  22.913  0.00  0.00    +0.004 A 
ATOM     23  C   UNL     1       0.995   1.021  23.244  0.00  0.00    +0.046 A 
BRANCH  20   6
ATOM      6  O   UNL     1      -0.561   2.365  24.457  0.00  0.00    -0.406 OA
BRANCH   6  29
ATOM      2  F   UNL     1      -1.230   2.689  26.620  0.00  0.00    -0.133 F 
ATOM      3  F   UNL     1      -0.072   4.243  25.608  0.00  0.00    -0.133 F 
ATOM      4  F   UNL     1       0.919   2.387  26.200  0.00  0.00    -0.133 F 
ATOM     29  C   UNL     1      -0.236   2.906  25.732  0.00  0.00    +0.575 C 
ENDBRANCH   6  29
ENDBRANCH  20   6
ENDBRANCH  14  16
ENDBRANCH   7  14
TORSDOF 6
ENDMDL
MODEL 9
REMARK VINA RESULT:      -1.7     14.976     16.259
REMARK  Name = 51137673
REMARK  6 active torsions:
REMARK  status: ('A' for Active; 'I' for Inactive)
REMARK    1  A    between atoms: O_6  and  C_20
REMARK    2  A    between atoms: O_6  and  C_29
REMARK    3  A    between atoms: N_7  and  C_14
REMARK    4  A    between atoms: C_10  and  C_15
REMARK    5  A    between atoms: C_14  and  C_16
REMARK    6  A    between atoms: C_19  and  C_22
REMARK                            x       y       z     vdW  Elec       q    Type
REMARK                         _______ _______ _______ _____ _____    ______ ____
ROOT
ATOM      7  N   UNL     1      -7.017  -9.800  11.054  0.00  0.00    -0.297 NA
ATOM     10  C   UNL     1      -4.788  -9.083  10.919  0.00  0.00    +0.092 C 
ATOM     11  C   UNL     1      -5.296  -9.454   9.514  0.00  0.00    +0.029 C 
ATOM     12  C   UNL     1      -5.810  -9.707  11.878  0.00  0.00    +0.097 C 
ATOM     13  C   UNL     1      -6.549 -10.285   9.755  0.00  0.00    +0.085 C 
ENDROOT
BRANCH  10  15
ATOM      5  O   UNL     1      -2.429  -8.523  11.255  0.00  0.00    -0.420 OA
ATOM      8  N   UNL     1      -2.883 -10.705  11.442  0.00  0.00    -0.112 NA
ATOM      9  N   UNL     1      -1.528 -10.531  11.653  0.00  0.00    -0.107 NA
ATOM     15  C   UNL     1      -3.368  -9.507  11.214  0.00  0.00    +0.222 A 
ATOM     19  C   UNL     1      -1.308  -9.243  11.535  0.00  0.00    +0.251 A 
BRANCH  19  22
ATOM      1  F   UNL     1       0.991  -9.905  10.074  0.00  0.00    -0.205 F 
ATOM     22  C   UNL     1      -0.092  -8.491  11.651  0.00  0.00    +0.074 A 
ATOM     24  C   UNL     1       1.031  -8.854  10.906  0.00  0.00    +0.136 A 
ATOM     25  C   UNL     1      -0.034  -7.396  12.512  0.00  0.00    +0.016 A 
ATOM     26  C   UNL     1       2.212  -8.121  11.024  0.00  0.00    +0.039 A 
ATOM     27  C   UNL     1       1.148  -6.663  12.629  0.00  0.00    +0.001 A 
ATOM     28  C   UNL     1       2.270  -7.026  11.885  0.00  0.00    +0.003 A 
ENDBRANCH  19  22
ENDBRANCH  10  15
BRANCH   7  14
ATOM     14  C   UNL     1      -8.025 -10.672  11.641  0.00  0.00    +0.119 C 
BRANCH  14  16
ATOM     16  C   UNL     1      -8.413 -10.227  13.025  0.00  0.00    -0.030 A 
ATOM     17  C   UNL     1      -7.722 -10.716  14.134  0.00  0.00    +0.051 A 
ATOM     18  C   UNL     1      -9.463  -9.326  13.200  0.00  0.00    +0.005 A 
ATOM     20  C   UNL     1      -8.081 -10.304  15.417  0.00  0.00    +0.130 A 
ATOM     21  C   UNL     1      -9.822  -8.914  14.483  0.00  0.00    +0.004 A 
ATOM     23  C   UNL     1      -9.131  -9.402  15.591  0.00  0.00    +0.046 A 
BRANCH  20   6
ATOM      6  O   UNL     1      -7.407 -10.781  16.499  0.00  0.00    -0.406 OA
BRANCH   6  29
ATOM      2  F   UNL     1      -7.632  -8.966  17.870  0.00  0.00    -0.133 F 
ATOM      3  F   UNL     1      -5.846  -9.156  16.625  0.00  0.00    -0.133 F 
ATOM      4  F   UNL     1      -6.093 -10.480  18.346  0.00  0.00    -0.133 F 
ATOM     29  C   UNL     1      -6.752  -9.849  17.352  0.00  0.00    +0.575 C 
ENDBRANCH   6  29
ENDBRANCH  20   6
ENDBRANCH  14  16
ENDBRANCH   7  14
TORSDOF 6
ENDMDL
