MODEL 1
REMARK VINA RESULT:      -3.8      0.000      0.000
REMARK  Name = 75536755
REMARK  7 active torsions:
REMARK  status: ('A' for Active; 'I' for Inactive)
REMARK    1  A    between atoms: O_2  and  C_10
REMARK    2  A    between atoms: O_5  and  C_21
REMARK    3  A    between atoms: N_6  and  C_9
REMARK    4  A    between atoms: N_6  and  C_14
REMARK    5  A    between atoms: N_7  and  C_13
REMARK    6  A    between atoms: C_11  and  C_13
REMARK    7  A    between atoms: C_14  and  C_16
REMARK                            x       y       z     vdW  Elec       q    Type
REMARK                         _______ _______ _______ _____ _____    ______ ____
ROOT
ATOM      1  O   UNL     1       0.067   3.582  23.710  0.00  0.00    -0.371 OA
ATOM      9  C   UNL     1      -0.953   3.949  25.823  0.00  0.00    +0.111 C 
ATOM     10  C   UNL     1      -0.491   2.505  25.740  0.00  0.00    +0.164 C 
ATOM     11  C   UNL     1       0.553   2.595  24.635  0.00  0.00    +0.165 C 
ATOM     12  C   UNL     1      -0.967   4.344  24.356  0.00  0.00    +0.181 C 
ENDROOT
BRANCH  10   2
ATOM      2  O   UNL     1       0.066   2.040  26.954  0.00  0.00    -0.388 OA
ATOM     28  H   UNL     1      -0.122   1.089  27.033  0.00  0.00    +0.210 HD
ENDBRANCH  10   2
BRANCH   9   6
ATOM      6  N   UNL     1      -2.247   4.111  26.466  0.00  0.00    -0.305 NA
ATOM     26  H   UNL     1      -2.174   4.833  27.183  0.00  0.00    +0.123 HD
BRANCH   6  14
ATOM     14  C   UNL     1      -3.267   4.504  25.501  0.00  0.00    +0.120 C 
BRANCH  14  16
ATOM     16  C   UNL     1      -4.348   3.463  25.374  0.00  0.00    +0.008 A 
ATOM     21  C   UNL     1      -4.570   2.810  24.162  0.00  0.00    +0.121 A 
ATOM     22  C   UNL     1      -5.131   3.156  26.487  0.00  0.00    +0.008 A 
ATOM     23  C   UNL     1      -5.577   1.849  24.063  0.00  0.00    +0.046 A 
ATOM     24  C   UNL     1      -6.137   2.195  26.387  0.00  0.00    +0.001 A 
ATOM     25  C   UNL     1      -6.360   1.542  25.174  0.00  0.00    +0.004 A 
BRANCH  21   5
ATOM      5  O   UNL     1      -3.815   3.099  23.065  0.00  0.00    -0.506 OA
ATOM     29  H   UNL     1      -3.054   2.495  23.036  0.00  0.00    +0.292 HD
ENDBRANCH  21   5
ENDBRANCH  14  16
ENDBRANCH   6  14
ENDBRANCH   9   6
BRANCH  11  13
ATOM     13  C   UNL     1       0.774   1.279  23.910  0.00  0.00    +0.140 C 
BRANCH  13   7
ATOM      3  O   UNL     1      -3.875  -3.064  24.759  0.00  0.00    -0.377 OA
ATOM      4  O   UNL     1      -1.922   1.174  23.112  0.00  0.00    -0.253 OA
ATOM      7  N   UNL     1      -0.188   0.280  24.319  0.00  0.00    -0.297 N 
ATOM      8  N   UNL     1      -2.323  -0.734  24.369  0.00  0.00    -0.281 N 
ATOM     15  C   UNL     1      -1.506   0.300  23.879  0.00  0.00    +0.302 C 
ATOM     17  C   UNL     1      -3.728  -0.787  23.961  0.00  0.00    +0.137 C 
ATOM     18  C   UNL     1      -1.952  -1.720  25.394  0.00  0.00    +0.137 C 
ATOM     19  C   UNL     1      -4.150  -2.213  23.644  0.00  0.00    +0.179 C 
ATOM     20  C   UNL     1      -2.473  -3.104  25.030  0.00  0.00    +0.179 C 
ATOM     27  H   UNL     1       0.150  -0.423  24.960  0.00  0.00    +0.150 HD
ENDBRANCH  13   7
ENDBRANCH  11  13
TORSDOF 7
ENDMDL
MODEL 2
REMARK VINA RESULT:      -3.6      1.720      4.977
REMARK  Name = 75536755
REMARK  7 active torsions:
REMARK  status: ('A' for Active; 'I' for Inactive)
REMARK    1  A    between atoms: O_2  and  C_10
REMARK    2  A    between atoms: O_5  and  C_21
REMARK    3  A    between atoms: N_6  and  C_9
REMARK    4  A    between atoms: N_6  and  C_14
REMARK    5  A    between atoms: N_7  and  C_13
REMARK    6  A    between atoms: C_11  and  C_13
REMARK    7  A    between atoms: C_14  and  C_16
REMARK                            x       y       z     vdW  Elec       q    Type
REMARK                         _______ _______ _______ _____ _____    ______ ____
ROOT
ATOM      1  O   UNL     1      -2.217  -2.844  25.325  0.00  0.00    -0.371 OA
ATOM      9  C   UNL     1      -3.813  -1.628  24.053  0.00  0.00    +0.111 C 
ATOM     10  C   UNL     1      -2.509  -0.850  24.086  0.00  0.00    +0.164 C 
ATOM     11  C   UNL     1      -1.519  -1.952  24.439  0.00  0.00    +0.165 C 
ATOM     12  C   UNL     1      -3.626  -2.575  25.226  0.00  0.00    +0.181 C 
ENDROOT
BRANCH  10   2
ATOM      2  O   UNL     1      -2.202  -0.245  22.845  0.00  0.00    -0.388 OA
ATOM     28  H   UNL     1      -3.011  -0.225  22.306  0.00  0.00    +0.210 HD
ENDBRANCH  10   2
BRANCH   9   6
ATOM      6  N   UNL     1      -4.994  -0.791  24.182  0.00  0.00    -0.305 NA
ATOM     26  H   UNL     1      -5.821  -1.387  24.226  0.00  0.00    +0.123 HD
BRANCH   6  14
ATOM     14  C   UNL     1      -4.932   0.022  25.390  0.00  0.00    +0.120 C 
BRANCH  14  16
ATOM     16  C   UNL     1      -4.841   1.492  25.072  0.00  0.00    +0.008 A 
ATOM     21  C   UNL     1      -5.595   2.423  25.785  0.00  0.00    +0.121 A 
ATOM     22  C   UNL     1      -3.990   1.916  24.052  0.00  0.00    +0.008 A 
ATOM     23  C   UNL     1      -5.500   3.780  25.476  0.00  0.00    +0.046 A 
ATOM     24  C   UNL     1      -3.894   3.274  23.744  0.00  0.00    +0.001 A 
ATOM     25  C   UNL     1      -4.649   4.205  24.457  0.00  0.00    +0.004 A 
BRANCH  21   5
ATOM      5  O   UNL     1      -6.432   2.025  26.784  0.00  0.00    -0.506 OA
ATOM     29  H   UNL     1      -7.061   1.373  26.431  0.00  0.00    +0.292 HD
ENDBRANCH  21   5
ENDBRANCH  14  16
ENDBRANCH   6  14
ENDBRANCH   9   6
BRANCH  11  13
ATOM     13  C   UNL     1      -0.263  -1.436  25.116  0.00  0.00    +0.140 C 
BRANCH  13   7
ATOM      3  O   UNL     1      -0.878   4.950  25.324  0.00  0.00    -0.377 OA
ATOM      4  O   UNL     1       0.545   0.627  23.381  0.00  0.00    -0.253 OA
ATOM      7  N   UNL     1      -0.352  -0.019  25.391  0.00  0.00    -0.297 N 
ATOM      8  N   UNL     1      -0.074   2.275  24.892  0.00  0.00    -0.281 N 
ATOM     15  C   UNL     1       0.071   0.939  24.478  0.00  0.00    +0.302 C 
ATOM     17  C   UNL     1       0.353   3.350  23.994  0.00  0.00    +0.137 C 
ATOM     18  C   UNL     1      -0.483   2.728  26.229  0.00  0.00    +0.137 C 
ATOM     19  C   UNL     1      -0.656   4.488  23.990  0.00  0.00    +0.179 C 
ATOM     20  C   UNL     1      -1.437   3.912  26.131  0.00  0.00    +0.179 C 
ATOM     27  H   UNL     1      -0.723   0.234  26.296  0.00  0.00    +0.150 HD
ENDBRANCH  13   7
ENDBRANCH  11  13
TORSDOF 7
ENDMDL
MODEL 3
REMARK VINA RESULT:      -3.3     14.675     17.277
REMARK  Name = 75536755
REMARK  7 active torsions:
REMARK  status: ('A' for Active; 'I' for Inactive)
REMARK    1  A    between atoms: O_2  and  C_10
REMARK    2  A    between atoms: O_5  and  C_21
REMARK    3  A    between atoms: N_6  and  C_9
REMARK    4  A    between atoms: N_6  and  C_14
REMARK    5  A    between atoms: N_7  and  C_13
REMARK    6  A    between atoms: C_11  and  C_13
REMARK    7  A    between atoms: C_14  and  C_16
REMARK                            x       y       z     vdW  Elec       q    Type
REMARK                         _______ _______ _______ _____ _____    ______ ____
ROOT
ATOM      1  O   UNL     1      -7.084 -10.470  10.424  0.00  0.00    -0.371 OA
ATOM      9  C   UNL     1      -4.753 -10.735  10.797  0.00  0.00    +0.111 C 
ATOM     10  C   UNL     1      -5.399 -10.197  12.061  0.00  0.00    +0.164 C 
ATOM     11  C   UNL     1      -6.853 -10.590  11.838  0.00  0.00    +0.165 C 
ATOM     12  C   UNL     1      -5.811 -10.408   9.757  0.00  0.00    +0.181 C 
ENDROOT
BRANCH  10   2
ATOM      2  O   UNL     1      -4.870 -10.781  13.236  0.00  0.00    -0.388 OA
ATOM     28  H   UNL     1      -5.562 -10.776  13.919  0.00  0.00    +0.210 HD
ENDBRANCH  10   2
BRANCH   9   6
ATOM      6  N   UNL     1      -3.462 -10.136  10.500  0.00  0.00    -0.305 NA
ATOM     26  H   UNL     1      -3.495  -9.144  10.736  0.00  0.00    +0.123 HD
BRANCH   6  14
ATOM     14  C   UNL     1      -2.400 -10.771  11.270  0.00  0.00    +0.120 C 
BRANCH  14  16
ATOM     16  C   UNL     1      -1.463  -9.757  11.874  0.00  0.00    +0.008 A 
ATOM     21  C   UNL     1      -1.440  -9.540  13.251  0.00  0.00    +0.121 A 
ATOM     22  C   UNL     1      -0.614  -9.032  11.038  0.00  0.00    +0.008 A 
ATOM     23  C   UNL     1      -0.567  -8.596  13.794  0.00  0.00    +0.046 A 
ATOM     24  C   UNL     1       0.259  -8.089  11.581  0.00  0.00    +0.001 A 
ATOM     25  C   UNL     1       0.282  -7.871  12.959  0.00  0.00    +0.004 A 
BRANCH  21   5
ATOM      5  O   UNL     1      -2.264 -10.239  14.082  0.00  0.00    -0.506 OA
ATOM     29  H   UNL     1      -1.725 -10.724  14.729  0.00  0.00    +0.292 HD
ENDBRANCH  21   5
ENDBRANCH  14  16
ENDBRANCH   6  14
ENDBRANCH   9   6
BRANCH  11  13
ATOM     13  C   UNL     1      -7.835  -9.713  12.594  0.00  0.00    +0.140 C 
BRANCH  13   7
ATOM      3  O   UNL     1      -7.589 -10.294  18.981  0.00  0.00    -0.377 OA
ATOM      4  O   UNL     1      -9.772  -9.460  14.620  0.00  0.00    -0.253 OA
ATOM      7  N   UNL     1      -7.575  -9.731  14.016  0.00  0.00    -0.297 N 
ATOM      8  N   UNL     1      -8.180  -9.628  16.299  0.00  0.00    -0.281 N 
ATOM     15  C   UNL     1      -8.591  -9.598  14.955  0.00  0.00    +0.302 C 
ATOM     17  C   UNL     1      -9.185  -9.488  17.355  0.00  0.00    +0.137 C 
ATOM     18  C   UNL     1      -6.791  -9.636  16.781  0.00  0.00    +0.137 C 
ATOM     19  C   UNL     1      -8.920 -10.464  18.491  0.00  0.00    +0.179 C 
ATOM     20  C   UNL     1      -6.633 -10.588  17.961  0.00  0.00    +0.179 C 
ATOM     27  H   UNL     1      -6.607  -9.826  14.288  0.00  0.00    +0.150 HD
ENDBRANCH  13   7
ENDBRANCH  11  13
TORSDOF 7
ENDMDL
MODEL 4
REMARK VINA RESULT:      -3.1      1.436      4.578
REMARK  Name = 75536755
REMARK  7 active torsions:
REMARK  status: ('A' for Active; 'I' for Inactive)
REMARK    1  A    between atoms: O_2  and  C_10
REMARK    2  A    between atoms: O_5  and  C_21
REMARK    3  A    between atoms: N_6  and  C_9
REMARK    4  A    between atoms: N_6  and  C_14
REMARK    5  A    between atoms: N_7  and  C_13
REMARK    6  A    between atoms: C_11  and  C_13
REMARK    7  A    between atoms: C_14  and  C_16
REMARK                            x       y       z     vdW  Elec       q    Type
REMARK                         _______ _______ _______ _____ _____    ______ ____
ROOT
ATOM      1  O   UNL     1      -0.504   3.086  26.526  0.00  0.00    -0.371 OA
ATOM      9  C   UNL     1       0.233   1.616  24.812  0.00  0.00    +0.111 C 
ATOM     10  C   UNL     1      -0.495   2.789  24.180  0.00  0.00    +0.164 C 
ATOM     11  C   UNL     1      -0.411   3.822  25.294  0.00  0.00    +0.165 C 
ATOM     12  C   UNL     1      -0.259   1.697  26.248  0.00  0.00    +0.181 C 
ENDROOT
BRANCH  10   2
ATOM      2  O   UNL     1       0.127   3.242  22.993  0.00  0.00    -0.388 OA
ATOM     28  H   UNL     1       0.823   3.877  23.235  0.00  0.00    +0.210 HD
ENDBRANCH  10   2
BRANCH   9   6
ATOM      6  N   UNL     1      -0.061   0.339  24.184  0.00  0.00    -0.305 NA
ATOM     26  H   UNL     1       0.791  -0.028  23.761  0.00  0.00    +0.123 HD
BRANCH   6  14
ATOM     14  C   UNL     1      -0.557  -0.624  25.160  0.00  0.00    +0.120 C 
BRANCH  14  16
ATOM     16  C   UNL     1      -1.853  -1.253  24.717  0.00  0.00    +0.008 A 
ATOM     21  C   UNL     1      -2.924  -0.462  24.302  0.00  0.00    +0.121 A 
ATOM     22  C   UNL     1      -1.974  -2.642  24.727  0.00  0.00    +0.008 A 
ATOM     23  C   UNL     1      -4.117  -1.060  23.897  0.00  0.00    +0.046 A 
ATOM     24  C   UNL     1      -3.167  -3.241  24.321  0.00  0.00    +0.001 A 
ATOM     25  C   UNL     1      -4.238  -2.449  23.906  0.00  0.00    +0.004 A 
BRANCH  21   5
ATOM      5  O   UNL     1      -2.822   0.897  24.287  0.00  0.00    -0.506 OA
ATOM     29  H   UNL     1      -2.022   1.161  24.772  0.00  0.00    +0.292 HD
ENDBRANCH  21   5
ENDBRANCH  14  16
ENDBRANCH   6  14
ENDBRANCH   9   6
BRANCH  11  13
ATOM     13  C   UNL     1      -1.514   4.862  25.234  0.00  0.00    +0.140 C 
BRANCH  13   7
ATOM      3  O   UNL     1      -7.007   1.651  26.079  0.00  0.00    -0.377 OA
ATOM      4  O   UNL     1      -3.351   3.698  23.447  0.00  0.00    -0.253 OA
ATOM      7  N   UNL     1      -2.796   4.297  25.591  0.00  0.00    -0.297 N 
ATOM      8  N   UNL     1      -4.862   3.237  25.146  0.00  0.00    -0.281 N 
ATOM     15  C   UNL     1      -3.649   3.740  24.645  0.00  0.00    +0.302 C 
ATOM     17  C   UNL     1      -5.823   2.638  24.218  0.00  0.00    +0.137 C 
ATOM     18  C   UNL     1      -5.358   3.381  26.522  0.00  0.00    +0.137 C 
ATOM     19  C   UNL     1      -6.428   1.372  24.803  0.00  0.00    +0.179 C 
ATOM     20  C   UNL     1      -6.009   2.089  27.002  0.00  0.00    +0.179 C 
ATOM     27  H   UNL     1      -3.045   4.348  26.569  0.00  0.00    +0.150 HD
ENDBRANCH  13   7
ENDBRANCH  11  13
TORSDOF 7
ENDMDL
MODEL 5
REMARK VINA RESULT:      -2.5      1.884      5.633
REMARK  Name = 75536755
REMARK  7 active torsions:
REMARK  status: ('A' for Active; 'I' for Inactive)
REMARK    1  A    between atoms: O_2  and  C_10
REMARK    2  A    between atoms: O_5  and  C_21
REMARK    3  A    between atoms: N_6  and  C_9
REMARK    4  A    between atoms: N_6  and  C_14
REMARK    5  A    between atoms: N_7  and  C_13
REMARK    6  A    between atoms: C_11  and  C_13
REMARK    7  A    between atoms: C_14  and  C_16
REMARK                            x       y       z     vdW  Elec       q    Type
REMARK                         _______ _______ _______ _____ _____    ______ ____
ROOT
ATOM      1  O   UNL     1      -2.708  -3.047  23.561  0.00  0.00    -0.371 OA
ATOM      9  C   UNL     1      -1.305  -2.333  25.340  0.00  0.00    +0.111 C 
ATOM     10  C   UNL     1      -2.621  -1.580  25.414  0.00  0.00    +0.164 C 
ATOM     11  C   UNL     1      -3.529  -2.495  24.605  0.00  0.00    +0.165 C 
ATOM     12  C   UNL     1      -1.328  -2.836  23.906  0.00  0.00    +0.181 C 
ENDROOT
BRANCH  10   2
ATOM      2  O   UNL     1      -3.083  -1.418  26.741  0.00  0.00    -0.388 OA
ATOM     28  H   UNL     1      -3.878  -1.966  26.857  0.00  0.00    +0.210 HD
ENDBRANCH  10   2
BRANCH   9   6
ATOM      6  N   UNL     1      -0.144  -1.509  25.632  0.00  0.00    -0.305 NA
ATOM     26  H   UNL     1       0.650  -2.114  25.840  0.00  0.00    +0.123 HD
BRANCH   6  14
ATOM     14  C   UNL     1       0.195  -0.658  24.497  0.00  0.00    +0.120 C 
BRANCH  14  16
ATOM     16  C   UNL     1      -0.026   0.800  24.804  0.00  0.00    +0.008 A 
ATOM     21  C   UNL     1       0.680   1.788  24.119  0.00  0.00    +0.121 A 
ATOM     22  C   UNL     1      -0.949   1.156  25.788  0.00  0.00    +0.008 A 
ATOM     23  C   UNL     1       0.464   3.133  24.417  0.00  0.00    +0.046 A 
ATOM     24  C   UNL     1      -1.165   2.502  26.086  0.00  0.00    +0.001 A 
ATOM     25  C   UNL     1      -0.458   3.490  25.400  0.00  0.00    +0.004 A 
BRANCH  21   5
ATOM      5  O   UNL     1       1.585   1.457  23.155  0.00  0.00    -0.506 OA
ATOM     29  H   UNL     1       1.357   0.584  22.792  0.00  0.00    +0.292 HD
ENDBRANCH  21   5
ENDBRANCH  14  16
ENDBRANCH   6  14
ENDBRANCH   9   6
BRANCH  11  13
ATOM     13  C   UNL     1      -4.718  -1.776  23.995  0.00  0.00    +0.140 C 
BRANCH  13   7
ATOM      3  O   UNL     1      -5.085   4.518  25.202  0.00  0.00    -0.377 OA
ATOM      4  O   UNL     1      -3.298   0.451  23.022  0.00  0.00    -0.253 OA
ATOM      7  N   UNL     1      -4.830  -0.422  24.490  0.00  0.00    -0.297 N 
ATOM      8  N   UNL     1      -4.303   1.882  24.546  0.00  0.00    -0.281 N 
ATOM     15  C   UNL     1      -4.090   0.625  23.954  0.00  0.00    +0.302 C 
ATOM     17  C   UNL     1      -3.559   3.041  24.047  0.00  0.00    +0.137 C 
ATOM     18  C   UNL     1      -5.106   2.149  25.748  0.00  0.00    +0.137 C 
ATOM     19  C   UNL     1      -4.460   4.262  23.942  0.00  0.00    +0.179 C 
ATOM     20  C   UNL     1      -5.923   3.425  25.582  0.00  0.00    +0.179 C 
ATOM     27  H   UNL     1      -5.464  -0.284  25.264  0.00  0.00    +0.150 HD
ENDBRANCH  13   7
ENDBRANCH  11  13
TORSDOF 7
ENDMDL
MODEL 6
REMARK VINA RESULT:      -2.2     14.277     16.993
REMARK  Name = 75536755
REMARK  7 active torsions:
REMARK  status: ('A' for Active; 'I' for Inactive)
REMARK    1  A    between atoms: O_2  and  C_10
REMARK    2  A    between atoms: O_5  and  C_21
REMARK    3  A    between atoms: N_6  and  C_9
REMARK    4  A    between atoms: N_6  and  C_14
REMARK    5  A    between atoms: N_7  and  C_13
REMARK    6  A    between atoms: C_11  and  C_13
REMARK    7  A    between atoms: C_14  and  C_16
REMARK                            x       y       z     vdW  Elec       q    Type
REMARK                         _______ _______ _______ _____ _____    ______ ____
ROOT
ATOM      1  O   UNL     1      -5.904 -10.079  10.436  0.00  0.00    -0.371 OA
ATOM      9  C   UNL     1      -3.557  -9.966  10.784  0.00  0.00    +0.111 C 
ATOM     10  C   UNL     1      -4.264  -9.794  12.116  0.00  0.00    +0.164 C 
ATOM     11  C   UNL     1      -5.624 -10.405  11.807  0.00  0.00    +0.165 C 
ATOM     12  C   UNL     1      -4.680  -9.662   9.807  0.00  0.00    +0.181 C 
ENDROOT
BRANCH  10   2
ATOM      2  O   UNL     1      -3.610 -10.470  13.173  0.00  0.00    -0.388 OA
ATOM     28  H   UNL     1      -4.138 -11.252  13.409  0.00  0.00    +0.210 HD
ENDBRANCH  10   2
BRANCH   9   6
ATOM      6  N   UNL     1      -2.407  -9.093  10.616  0.00  0.00    -0.305 NA
ATOM     26  H   UNL     1      -2.590  -8.208  11.091  0.00  0.00    +0.123 HD
BRANCH   6  14
ATOM     14  C   UNL     1      -1.205  -9.694  11.181  0.00  0.00    +0.120 C 
BRANCH  14  16
ATOM     16  C   UNL     1      -0.182  -8.653  11.557  0.00  0.00    +0.008 A 
ATOM     21  C   UNL     1       1.102  -8.687  11.014  0.00  0.00    +0.121 A 
ATOM     22  C   UNL     1      -0.533  -7.649  12.459  0.00  0.00    +0.008 A 
ATOM     23  C   UNL     1       2.037  -7.716  11.374  0.00  0.00    +0.046 A 
ATOM     24  C   UNL     1       0.402  -6.678  12.818  0.00  0.00    +0.001 A 
ATOM     25  C   UNL     1       1.687  -6.712  12.275  0.00  0.00    +0.004 A 
BRANCH  21   5
ATOM      5  O   UNL     1       1.461  -9.662  10.132  0.00  0.00    -0.506 OA
ATOM     29  H   UNL     1       2.107 -10.252  10.556  0.00  0.00    +0.292 HD
ENDBRANCH  21   5
ENDBRANCH  14  16
ENDBRANCH   6  14
ENDBRANCH   9   6
BRANCH  11  13
ATOM     13  C   UNL     1      -6.735  -9.878  12.697  0.00  0.00    +0.140 C 
BRANCH  13   7
ATOM      3  O   UNL     1      -5.874 -10.413  19.035  0.00  0.00    -0.377 OA
ATOM      4  O   UNL     1      -8.486  -9.699  14.893  0.00  0.00    -0.253 OA
ATOM      7  N   UNL     1      -6.345  -9.876  14.089  0.00  0.00    -0.297 N 
ATOM      8  N   UNL     1      -6.740  -9.788  16.418  0.00  0.00    -0.281 N 
ATOM     15  C   UNL     1      -7.274  -9.783  15.118  0.00  0.00    +0.302 C 
ATOM     17  C   UNL     1      -7.648  -9.687  17.562  0.00  0.00    +0.137 C 
ATOM     18  C   UNL     1      -5.314  -9.733  16.769  0.00  0.00    +0.137 C 
ATOM     19  C   UNL     1      -7.237 -10.644  18.670  0.00  0.00    +0.179 C 
ATOM     20  C   UNL     1      -5.005 -10.670  17.931  0.00  0.00    +0.179 C 
ATOM     27  H   UNL     1      -5.352  -9.927  14.270  0.00  0.00    +0.150 HD
ENDBRANCH  13   7
ENDBRANCH  11  13
TORSDOF 7
ENDMDL
MODEL 7
REMARK VINA RESULT:      -1.9      1.761      4.692
REMARK  Name = 75536755
REMARK  7 active torsions:
REMARK  status: ('A' for Active; 'I' for Inactive)
REMARK    1  A    between atoms: O_2  and  C_10
REMARK    2  A    between atoms: O_5  and  C_21
REMARK    3  A    between atoms: N_6  and  C_9
REMARK    4  A    between atoms: N_6  and  C_14
REMARK    5  A    between atoms: N_7  and  C_13
REMARK    6  A    between atoms: C_11  and  C_13
REMARK    7  A    between atoms: C_14  and  C_16
REMARK                            x       y       z     vdW  Elec       q    Type
REMARK                         _______ _______ _______ _____ _____    ______ ____
ROOT
ATOM      1  O   UNL     1      -0.577  -1.424  23.011  0.00  0.00    -0.371 OA
ATOM      9  C   UNL     1       0.567  -0.059  24.582  0.00  0.00    +0.111 C 
ATOM     10  C   UNL     1      -0.837  -0.330  25.091  0.00  0.00    +0.164 C 
ATOM     11  C   UNL     1      -1.202  -1.577  24.296  0.00  0.00    +0.165 C 
ATOM     12  C   UNL     1       0.420  -0.393  23.107  0.00  0.00    +0.181 C 
ENDROOT
BRANCH  10   2
ATOM      2  O   UNL     1      -0.877  -0.564  26.485  0.00  0.00    -0.388 OA
ATOM     28  H   UNL     1      -0.681   0.272  26.942  0.00  0.00    +0.210 HD
ENDBRANCH  10   2
BRANCH   9   6
ATOM      6  N   UNL     1       1.017   1.304  24.812  0.00  0.00    -0.305 NA
ATOM     26  H   UNL     1       2.031   1.343  24.698  0.00  0.00    +0.123 HD
BRANCH   6  14
ATOM     14  C   UNL     1       0.399   2.228  23.868  0.00  0.00    +0.120 C 
BRANCH  14  16
ATOM     16  C   UNL     1      -0.486   3.229  24.563  0.00  0.00    +0.008 A 
ATOM     21  C   UNL     1      -0.514   4.561  24.152  0.00  0.00    +0.121 A 
ATOM     22  C   UNL     1      -1.283   2.809  25.628  0.00  0.00    +0.008 A 
ATOM     23  C   UNL     1      -1.339   5.475  24.808  0.00  0.00    +0.046 A 
ATOM     24  C   UNL     1      -2.109   3.724  26.283  0.00  0.00    +0.001 A 
ATOM     25  C   UNL     1      -2.136   5.057  25.872  0.00  0.00    +0.004 A 
BRANCH  21   5
ATOM      5  O   UNL     1       0.259   4.987  23.114  0.00  0.00    -0.506 OA
ATOM     29  H   UNL     1       0.491   5.921  23.253  0.00  0.00    +0.292 HD
ENDBRANCH  21   5
ENDBRANCH  14  16
ENDBRANCH   6  14
ENDBRANCH   9   6
BRANCH  11  13
ATOM     13  C   UNL     1      -2.698  -1.761  24.121  0.00  0.00    +0.140 C 
BRANCH  13   7
ATOM      3  O   UNL     1      -5.570   3.905  25.047  0.00  0.00    -0.377 OA
ATOM      4  O   UNL     1      -4.362  -0.763  26.160  0.00  0.00    -0.253 OA
ATOM      7  N   UNL     1      -3.390  -0.491  24.100  0.00  0.00    -0.297 N 
ATOM      8  N   UNL     1      -4.807   1.184  24.980  0.00  0.00    -0.281 N 
ATOM     15  C   UNL     1      -4.196  -0.071  25.151  0.00  0.00    +0.302 C 
ATOM     17  C   UNL     1      -5.679   1.702  26.036  0.00  0.00    +0.137 C 
ATOM     18  C   UNL     1      -4.786   1.999  23.757  0.00  0.00    +0.137 C 
ATOM     19  C   UNL     1      -5.428   3.183  26.272  0.00  0.00    +0.179 C 
ATOM     20  C   UNL     1      -4.599   3.474  24.092  0.00  0.00    +0.179 C 
ATOM     27  H   UNL     1      -3.268   0.066  23.266  0.00  0.00    +0.150 HD
ENDBRANCH  13   7
ENDBRANCH  11  13
TORSDOF 7
ENDMDL
MODEL 8
REMARK VINA RESULT:      -1.7      1.449      1.741
REMARK  Name = 75536755
REMARK  7 active torsions:
REMARK  status: ('A' for Active; 'I' for Inactive)
REMARK    1  A    between atoms: O_2  and  C_10
REMARK    2  A    between atoms: O_5  and  C_21
REMARK    3  A    between atoms: N_6  and  C_9
REMARK    4  A    between atoms: N_6  and  C_14
REMARK    5  A    between atoms: N_7  and  C_13
REMARK    6  A    between atoms: C_11  and  C_13
REMARK    7  A    between atoms: C_14  and  C_16
REMARK                            x       y       z     vdW  Elec       q    Type
REMARK                         _______ _______ _______ _____ _____    ______ ____
ROOT
ATOM      1  O   UNL     1       0.317   4.021  24.225  0.00  0.00    -0.371 OA
ATOM      9  C   UNL     1      -1.666   4.772  25.296  0.00  0.00    +0.111 C 
ATOM     10  C   UNL     1      -1.338   3.373  25.786  0.00  0.00    +0.164 C 
ATOM     11  C   UNL     1       0.144   3.283  25.447  0.00  0.00    +0.165 C 
ATOM     12  C   UNL     1      -0.845   4.842  24.019  0.00  0.00    +0.181 C 
ENDROOT
BRANCH  10   2
ATOM      2  O   UNL     1      -1.572   3.211  27.171  0.00  0.00    -0.388 OA
ATOM     28  H   UNL     1      -2.322   3.776  27.423  0.00  0.00    +0.210 HD
ENDBRANCH  10   2
BRANCH   9   6
ATOM      6  N   UNL     1      -3.085   4.993  25.070  0.00  0.00    -0.305 NA
ATOM     26  H   UNL     1      -3.236   5.975  24.836  0.00  0.00    +0.123 HD
BRANCH   6  14
ATOM     14  C   UNL     1      -3.578   4.165  23.976  0.00  0.00    +0.120 C 
BRANCH  14  16
ATOM     16  C   UNL     1      -4.421   3.021  24.476  0.00  0.00    +0.008 A 
ATOM     21  C   UNL     1      -5.475   3.246  25.362  0.00  0.00    +0.121 A 
ATOM     22  C   UNL     1      -4.138   1.726  24.042  0.00  0.00    +0.008 A 
ATOM     23  C   UNL     1      -6.245   2.176  25.815  0.00  0.00    +0.046 A 
ATOM     24  C   UNL     1      -4.909   0.655  24.496  0.00  0.00    +0.001 A 
ATOM     25  C   UNL     1      -5.963   0.881  25.382  0.00  0.00    +0.004 A 
BRANCH  21   5
ATOM      5  O   UNL     1      -5.764   4.505  25.796  0.00  0.00    -0.506 OA
ATOM     29  H   UNL     1      -6.660   4.514  26.171  0.00  0.00    +0.292 HD
ENDBRANCH  21   5
ENDBRANCH  14  16
ENDBRANCH   6  14
ENDBRANCH   9   6
BRANCH  11  13
ATOM     13  C   UNL     1       0.632   1.859  25.259  0.00  0.00    +0.140 C 
BRANCH  13   7
ATOM      3  O   UNL     1      -3.528  -3.028  25.377  0.00  0.00    -0.377 OA
ATOM      4  O   UNL     1      -0.101  -0.084  23.359  0.00  0.00    -0.253 OA
ATOM      7  N   UNL     1      -0.447   0.906  25.400  0.00  0.00    -0.297 N 
ATOM      8  N   UNL     1      -1.826  -0.878  24.691  0.00  0.00    -0.281 N 
ATOM     15  C   UNL     1      -0.745  -0.024  24.411  0.00  0.00    +0.302 C 
ATOM     17  C   UNL     1      -2.215  -1.885  23.700  0.00  0.00    +0.137 C 
ATOM     18  C   UNL     1      -2.736  -0.777  25.841  0.00  0.00    +0.137 C 
ATOM     19  C   UNL     1      -2.531  -3.213  24.370  0.00  0.00    +0.179 C 
ATOM     20  C   UNL     1      -3.053  -2.157  26.404  0.00  0.00    +0.179 C 
ATOM     27  H   UNL     1      -0.984   0.968  26.253  0.00  0.00    +0.150 HD
ENDBRANCH  13   7
ENDBRANCH  11  13
TORSDOF 7
ENDMDL
MODEL 9
REMARK VINA RESULT:      -1.6      1.901      4.780
REMARK  Name = 75536755
REMARK  7 active torsions:
REMARK  status: ('A' for Active; 'I' for Inactive)
REMARK    1  A    between atoms: O_2  and  C_10
REMARK    2  A    between atoms: O_5  and  C_21
REMARK    3  A    between atoms: N_6  and  C_9
REMARK    4  A    between atoms: N_6  and  C_14
REMARK    5  A    between atoms: N_7  and  C_13
REMARK    6  A    between atoms: C_11  and  C_13
REMARK    7  A    between atoms: C_14  and  C_16
REMARK                            x       y       z     vdW  Elec       q    Type
REMARK                         _______ _______ _______ _____ _____    ______ ____
ROOT
ATOM      1  O   UNL     1      -1.481  -2.633  23.717  0.00  0.00    -0.371 OA
ATOM      9  C   UNL     1       0.025  -0.956  24.465  0.00  0.00    +0.111 C 
ATOM     10  C   UNL     1      -1.182  -0.983  25.385  0.00  0.00    +0.164 C 
ATOM     11  C   UNL     1      -1.729  -2.377  25.110  0.00  0.00    +0.165 C 
ATOM     12  C   UNL     1      -0.512  -1.683  23.243  0.00  0.00    +0.181 C 
ENDROOT
BRANCH  10   2
ATOM      2  O   UNL     1      -0.836  -0.812  26.745  0.00  0.00    -0.388 OA
ATOM     28  H   UNL     1      -0.095  -1.408  26.950  0.00  0.00    +0.210 HD
ENDBRANCH  10   2
BRANCH   9   6
ATOM      6  N   UNL     1       0.500   0.385  24.164  0.00  0.00    -0.305 NA
ATOM     26  H   UNL     1       1.358   0.319  23.616  0.00  0.00    +0.123 HD
BRANCH   6  14
ATOM     14  C   UNL     1      -0.493   1.133  23.402  0.00  0.00    +0.120 C 
BRANCH  14  16
ATOM     16  C   UNL     1      -1.127   2.222  24.226  0.00  0.00    +0.008 A 
ATOM     21  C   UNL     1      -0.567   2.615  25.441  0.00  0.00    +0.121 A 
ATOM     22  C   UNL     1      -2.289   2.838  23.762  0.00  0.00    +0.008 A 
ATOM     23  C   UNL     1      -1.168   3.624  26.193  0.00  0.00    +0.046 A 
ATOM     24  C   UNL     1      -2.890   3.849  24.513  0.00  0.00    +0.001 A 
ATOM     25  C   UNL     1      -2.329   4.241  25.729  0.00  0.00    +0.004 A 
BRANCH  21   5
ATOM      5  O   UNL     1       0.568   2.022  25.910  0.00  0.00    -0.506 OA
ATOM     29  H   UNL     1       0.343   1.468  26.676  0.00  0.00    +0.292 HD
ENDBRANCH  21   5
ENDBRANCH  14  16
ENDBRANCH   6  14
ENDBRANCH   9   6
BRANCH  11  13
ATOM     13  C   UNL     1      -3.214  -2.508  25.399  0.00  0.00    +0.140 C 
BRANCH  13   7
ATOM      3  O   UNL     1      -6.525   2.976  25.810  0.00  0.00    -0.377 OA
ATOM      4  O   UNL     1      -4.240  -0.736  23.467  0.00  0.00    -0.253 OA
ATOM      7  N   UNL     1      -3.816  -1.221  25.669  0.00  0.00    -0.297 N 
ATOM      8  N   UNL     1      -4.851   0.820  25.076  0.00  0.00    -0.281 N 
ATOM     15  C   UNL     1      -4.300  -0.403  24.655  0.00  0.00    +0.302 C 
ATOM     17  C   UNL     1      -5.378   1.747  24.073  0.00  0.00    +0.137 C 
ATOM     18  C   UNL     1      -4.825   1.357  26.444  0.00  0.00    +0.137 C 
ATOM     19  C   UNL     1      -6.693   2.357  24.533  0.00  0.00    +0.179 C 
ATOM     20  C   UNL     1      -6.157   2.009  26.796  0.00  0.00    +0.179 C 
ATOM     27  H   UNL     1      -3.847  -0.943  26.640  0.00  0.00    +0.150 HD
ENDBRANCH  13   7
ENDBRANCH  11  13
TORSDOF 7
ENDMDL
MODEL 10
REMARK VINA RESULT:      -0.6     15.536     18.184
REMARK  Name = 75536755
REMARK  7 active torsions:
REMARK  status: ('A' for Active; 'I' for Inactive)
REMARK    1  A    between atoms: O_2  and  C_10
REMARK    2  A    between atoms: O_5  and  C_21
REMARK    3  A    between atoms: N_6  and  C_9
REMARK    4  A    between atoms: N_6  and  C_14
REMARK    5  A    between atoms: N_7  and  C_13
REMARK    6  A    between atoms: C_11  and  C_13
REMARK    7  A    between atoms: C_14  and  C_16
REMARK                            x       y       z     vdW  Elec       q    Type
REMARK                         _______ _______ _______ _____ _____    ______ ____
ROOT
ATOM      1  O   UNL     1      -4.462 -10.753  11.441  0.00  0.00    -0.371 OA
ATOM      9  C   UNL     1      -2.390 -10.781  12.602  0.00  0.00    +0.111 C 
ATOM     10  C   UNL     1      -3.412 -10.022  13.429  0.00  0.00    +0.164 C 
ATOM     11  C   UNL     1      -4.714 -10.546  12.841  0.00  0.00    +0.165 C 
ATOM     12  C   UNL     1      -3.040 -10.757  11.228  0.00  0.00    +0.181 C 
ENDROOT
BRANCH  10   2
ATOM      2  O   UNL     1      -3.309 -10.300  14.812  0.00  0.00    -0.388 OA
ATOM     28  H   UNL     1      -3.226  -9.457  15.289  0.00  0.00    +0.210 HD
ENDBRANCH  10   2
BRANCH   9   6
ATOM      6  N   UNL     1      -1.067 -10.180  12.613  0.00  0.00    -0.305 NA
ATOM     26  H   UNL     1      -0.365 -10.920  12.590  0.00  0.00    +0.123 HD
BRANCH   6  14
ATOM     14  C   UNL     1      -0.876  -9.310  11.459  0.00  0.00    +0.120 C 
BRANCH  14  16
ATOM     16  C   UNL     1       0.199  -8.284  11.703  0.00  0.00    +0.008 A 
ATOM     21  C   UNL     1       1.409  -8.340  11.011  0.00  0.00    +0.121 A 
ATOM     22  C   UNL     1      -0.026  -7.269  12.633  0.00  0.00    +0.008 A 
ATOM     23  C   UNL     1       2.394  -7.382  11.250  0.00  0.00    +0.046 A 
ATOM     24  C   UNL     1       0.959  -6.310  12.871  0.00  0.00    +0.001 A 
ATOM     25  C   UNL     1       2.169  -6.368  12.180  0.00  0.00    +0.004 A 
BRANCH  21   5
ATOM      5  O   UNL     1       1.646  -9.325  10.100  0.00  0.00    -0.506 OA
ATOM     29  H   UNL     1       0.800  -9.617   9.720  0.00  0.00    +0.292 HD
ENDBRANCH  21   5
ENDBRANCH  14  16
ENDBRANCH   6  14
ENDBRANCH   9   6
BRANCH  11  13
ATOM     13  C   UNL     1      -5.880  -9.590  13.016  0.00  0.00    +0.140 C 
BRANCH  13   7
ATOM      3  O   UNL     1     -10.089  -8.645   8.263  0.00  0.00    -0.377 OA
ATOM      4  O   UNL     1      -8.692  -9.584  12.916  0.00  0.00    -0.253 OA
ATOM      7  N   UNL     1      -6.681  -9.505  11.815  0.00  0.00    -0.297 N 
ATOM      8  N   UNL     1      -8.709  -9.428  10.602  0.00  0.00    -0.281 N 
ATOM     15  C   UNL     1      -8.071  -9.510  11.852  0.00  0.00    +0.302 C 
ATOM     17  C   UNL     1     -10.172  -9.433  10.546  0.00  0.00    +0.137 C 
ATOM     18  C   UNL     1      -8.052  -9.488   9.288  0.00  0.00    +0.137 C 
ATOM     19  C   UNL     1     -10.682  -8.411   9.542  0.00  0.00    +0.179 C 
ATOM     20  C   UNL     1      -8.671  -8.481   8.326  0.00  0.00    +0.179 C 
ATOM     27  H   UNL     1      -6.171  -9.463  10.945  0.00  0.00    +0.150 HD
ENDBRANCH  13   7
ENDBRANCH  11  13
TORSDOF 7
ENDMDL
