MODEL 1
REMARK VINA RESULT:      -4.1      0.000      0.000
REMARK  Name = 71693214
REMARK  9 active torsions:
REMARK  status: ('A' for Active; 'I' for Inactive)
REMARK    1  A    between atoms: N_3  and  C_12
REMARK    2  A    between atoms: N_3  and  C_17
REMARK    3  A    between atoms: C_6  and  C_10
REMARK    4  A    between atoms: C_7  and  C_12
REMARK    5  A    between atoms: C_9  and  C_14
REMARK    6  A    between atoms: C_10  and  C_15
REMARK    7  A    between atoms: C_10  and  C_16
REMARK    8  A    between atoms: C_11  and  C_18
REMARK    9  A    between atoms: C_14  and  C_21
REMARK                            x       y       z     vdW  Elec       q    Type
REMARK                         _______ _______ _______ _____ _____    ______ ____
ROOT
ATOM      6  C   UNL     1      16.697  -8.173  26.114  0.00  0.00    +0.000 C 
ATOM      7  C   UNL     1      16.125  -6.745  25.969  0.00  0.00    +0.029 C 
ATOM      8  C   UNL     1      17.178  -8.417  27.551  0.00  0.00    +0.012 C 
ATOM      9  C   UNL     1      16.077  -8.196  28.611  0.00  0.00    +0.022 C 
ATOM     11  C   UNL     1      15.187  -7.001  28.303  0.00  0.00    -0.073 C 
ATOM     13  C   UNL     1      15.232  -6.359  27.121  0.00  0.00    -0.023 C 
ATOM     18  C   UNL     1      14.195  -6.585  29.354  0.00  0.00    +0.039 C 
ENDROOT
BRANCH   6  10
ATOM     10  C   UNL     1      15.673  -9.233  25.685  0.00  0.00    -0.013 C 
ATOM     15  C   UNL     1      15.573 -10.334  26.736  0.00  0.00    +0.007 C 
ATOM     16  C   UNL     1      16.049  -9.816  24.326  0.00  0.00    +0.007 C 
ENDBRANCH   6  10
BRANCH   7  12
ATOM     12  C   UNL     1      17.237  -5.701  25.822  0.00  0.00    +0.089 C 
BRANCH  12   3
ATOM      3  N   UNL     1      16.731  -4.370  26.107  0.00  0.00    -0.313 NA
ATOM     30  H   UNL     1      17.000  -4.110  27.056  0.00  0.00    +0.122 HD
BRANCH   3  17
ATOM      2  O   UNL     1      16.785  -1.499  23.044  0.00  0.00    -0.380 OA
ATOM     17  C   UNL     1      17.262  -3.392  25.159  0.00  0.00    +0.058 C 
ATOM     19  C   UNL     1      16.679  -1.999  25.420  0.00  0.00    +0.047 C 
ATOM     20  C   UNL     1      16.961  -3.826  23.722  0.00  0.00    +0.047 C 
ATOM     22  C   UNL     1      17.139  -1.023  24.342  0.00  0.00    +0.161 C 
ATOM     23  C   UNL     1      17.405  -2.748  22.739  0.00  0.00    +0.161 C 
ENDBRANCH   3  17
ENDBRANCH  12   3
ENDBRANCH   7  12
BRANCH   9  14
ATOM     14  C   UNL     1      16.738  -8.106  29.992  0.00  0.00    +0.082 C 
BRANCH  14  21
ATOM      1 CL   UNL     1      17.402  -0.589  31.039  0.00  0.00    -0.083 Cl
ATOM      4  N   UNL     1      17.196  -5.657  29.789  0.00  0.00    -0.342 N 
ATOM      5  N   UNL     1      16.253  -6.312  31.691  0.00  0.00    -0.232 NA
ATOM     21  C   UNL     1      16.713  -6.702  30.524  0.00  0.00    +0.109 A 
ATOM     24  C   UNL     1      17.038  -4.514  30.531  0.00  0.00    +0.068 A 
ATOM     25  C   UNL     1      16.447  -4.950  31.714  0.00  0.00    +0.089 A 
ATOM     26  C   UNL     1      17.351  -3.178  30.278  0.00  0.00    +0.047 A 
ATOM     27  C   UNL     1      16.143  -4.012  32.715  0.00  0.00    +0.031 A 
ATOM     28  C   UNL     1      17.042  -2.257  31.285  0.00  0.00    +0.043 A 
ATOM     29  C   UNL     1      16.450  -2.664  32.482  0.00  0.00    +0.022 A 
ATOM     31  H   UNL     1      17.599  -5.710  28.862  0.00  0.00    +0.167 HD
ENDBRANCH  14  21
ENDBRANCH   9  14
TORSDOF 6
ENDMDL
MODEL 2
REMARK VINA RESULT:      -3.4     17.886     19.753
REMARK  Name = 71693214
REMARK  9 active torsions:
REMARK  status: ('A' for Active; 'I' for Inactive)
REMARK    1  A    between atoms: N_3  and  C_12
REMARK    2  A    between atoms: N_3  and  C_17
REMARK    3  A    between atoms: C_6  and  C_10
REMARK    4  A    between atoms: C_7  and  C_12
REMARK    5  A    between atoms: C_9  and  C_14
REMARK    6  A    between atoms: C_10  and  C_15
REMARK    7  A    between atoms: C_10  and  C_16
REMARK    8  A    between atoms: C_11  and  C_18
REMARK    9  A    between atoms: C_14  and  C_21
REMARK                            x       y       z     vdW  Elec       q    Type
REMARK                         _______ _______ _______ _____ _____    ______ ____
ROOT
ATOM      6  C   UNL     1      -1.936   2.855  25.600  0.00  0.00    +0.000 C 
ATOM      7  C   UNL     1      -3.366   3.020  25.036  0.00  0.00    +0.029 C 
ATOM      8  C   UNL     1      -1.241   1.646  24.958  0.00  0.00    +0.012 C 
ATOM      9  C   UNL     1      -1.178   1.724  23.417  0.00  0.00    +0.022 C 
ATOM     11  C   UNL     1      -2.450   2.282  22.798  0.00  0.00    -0.073 C 
ATOM     13  C   UNL     1      -3.421   2.847  23.539  0.00  0.00    -0.023 C 
ATOM     18  C   UNL     1      -2.570   2.238  21.299  0.00  0.00    +0.039 C 
ENDROOT
BRANCH   6  10
ATOM     10  C   UNL     1      -1.109   4.134  25.414  0.00  0.00    -0.013 C 
ATOM     15  C   UNL     1      -2.017   5.311  25.073  0.00  0.00    +0.007 C 
ATOM     16  C   UNL     1      -0.055   3.933  24.329  0.00  0.00    +0.007 C 
ENDBRANCH   6  10
BRANCH   7  12
ATOM     12  C   UNL     1      -4.350   2.048  25.692  0.00  0.00    +0.089 C 
BRANCH  12   3
ATOM      3  N   UNL     1      -4.975   1.198  24.693  0.00  0.00    -0.313 NA
ATOM     30  H   UNL     1      -4.631   1.465  23.771  0.00  0.00    +0.122 HD
BRANCH   3  17
ATOM      2  O   UNL     1      -2.807  -2.394  24.828  0.00  0.00    -0.380 OA
ATOM     17  C   UNL     1      -4.679  -0.211  24.942  0.00  0.00    +0.058 C 
ATOM     19  C   UNL     1      -3.534  -0.364  25.949  0.00  0.00    +0.047 C 
ATOM     20  C   UNL     1      -4.324  -0.920  23.632  0.00  0.00    +0.047 C 
ATOM     22  C   UNL     1      -3.150  -1.833  26.094  0.00  0.00    +0.161 C 
ATOM     23  C   UNL     1      -3.896  -2.357  23.907  0.00  0.00    +0.161 C 
ENDBRANCH   3  17
ENDBRANCH  12   3
ENDBRANCH   7  12
BRANCH   9  14
ATOM     14  C   UNL     1      -0.808   0.339  22.872  0.00  0.00    +0.082 C 
BRANCH  14  21
ATOM      1 CL   UNL     1       6.797   0.566  23.286  0.00  0.00    -0.083 Cl
ATOM      4  N   UNL     1       1.611   0.968  22.800  0.00  0.00    -0.342 N 
ATOM      5  N   UNL     1       1.165  -1.085  23.522  0.00  0.00    -0.232 NA
ATOM     21  C   UNL     1       0.649   0.038  23.077  0.00  0.00    +0.109 A 
ATOM     24  C   UNL     1       2.830   0.408  23.085  0.00  0.00    +0.068 A 
ATOM     25  C   UNL     1       2.525  -0.874  23.534  0.00  0.00    +0.089 A 
ATOM     26  C   UNL     1       4.134   0.896  22.991  0.00  0.00    +0.047 A 
ATOM     27  C   UNL     1       3.568  -1.733  23.917  0.00  0.00    +0.031 A 
ATOM     28  C   UNL     1       5.161   0.028  23.376  0.00  0.00    +0.043 A 
ATOM     29  C   UNL     1       4.886  -1.264  23.830  0.00  0.00    +0.022 A 
ATOM     31  H   UNL     1       1.457   1.904  22.448  0.00  0.00    +0.167 HD
ENDBRANCH  14  21
ENDBRANCH   9  14
TORSDOF 6
ENDMDL
MODEL 3
REMARK VINA RESULT:      -2.0     17.966     19.485
REMARK  Name = 71693214
REMARK  9 active torsions:
REMARK  status: ('A' for Active; 'I' for Inactive)
REMARK    1  A    between atoms: N_3  and  C_12
REMARK    2  A    between atoms: N_3  and  C_17
REMARK    3  A    between atoms: C_6  and  C_10
REMARK    4  A    between atoms: C_7  and  C_12
REMARK    5  A    between atoms: C_9  and  C_14
REMARK    6  A    between atoms: C_10  and  C_15
REMARK    7  A    between atoms: C_10  and  C_16
REMARK    8  A    between atoms: C_11  and  C_18
REMARK    9  A    between atoms: C_14  and  C_21
REMARK                            x       y       z     vdW  Elec       q    Type
REMARK                         _______ _______ _______ _____ _____    ______ ____
ROOT
ATOM      6  C   UNL     1      -3.891  -0.743  23.996  0.00  0.00    +0.000 C 
ATOM      7  C   UNL     1      -4.281   0.262  25.104  0.00  0.00    +0.029 C 
ATOM      8  C   UNL     1      -2.719  -0.200  23.166  0.00  0.00    +0.012 C 
ATOM      9  C   UNL     1      -1.473   0.136  24.014  0.00  0.00    +0.022 C 
ATOM     11  C   UNL     1      -1.819   0.781  25.348  0.00  0.00    -0.073 C 
ATOM     13  C   UNL     1      -3.081   0.837  25.812  0.00  0.00    -0.023 C 
ATOM     18  C   UNL     1      -0.681   1.312  26.177  0.00  0.00    +0.039 C 
ENDROOT
BRANCH   6  10
ATOM     10  C   UNL     1      -3.564  -2.124  24.581  0.00  0.00    -0.013 C 
ATOM     15  C   UNL     1      -2.066  -2.397  24.496  0.00  0.00    +0.007 C 
ATOM     16  C   UNL     1      -4.354  -3.209  23.855  0.00  0.00    +0.007 C 
ENDBRANCH   6  10
BRANCH   7  12
ATOM     12  C   UNL     1      -5.139   1.406  24.556  0.00  0.00    +0.089 C 
BRANCH  12   3
ATOM      3  N   UNL     1      -5.337   2.429  25.568  0.00  0.00    -0.313 NA
ATOM     30  H   UNL     1      -5.100   2.040  26.481  0.00  0.00    +0.122 HD
BRANCH   3  17
ATOM      2  O   UNL     1      -1.895   4.717  24.834  0.00  0.00    -0.380 OA
ATOM     17  C   UNL     1      -4.507   3.601  25.300  0.00  0.00    +0.058 C 
ATOM     19  C   UNL     1      -3.786   3.469  23.954  0.00  0.00    +0.047 C 
ATOM     20  C   UNL     1      -3.488   3.800  26.425  0.00  0.00    +0.047 C 
ATOM     22  C   UNL     1      -2.823   4.635  23.754  0.00  0.00    +0.161 C 
ATOM     23  C   UNL     1      -2.542   4.947  26.086  0.00  0.00    +0.161 C 
ENDBRANCH   3  17
ENDBRANCH  12   3
ENDBRANCH   7  12
BRANCH   9  14
ATOM     14  C   UNL     1      -0.522   0.991  23.168  0.00  0.00    +0.082 C 
BRANCH  14  21
ATOM      1 CL   UNL     1       7.062   0.258  23.221  0.00  0.00    -0.083 Cl
ATOM      4  N   UNL     1       1.952   1.331  23.048  0.00  0.00    -0.342 N 
ATOM      5  N   UNL     1       1.280  -0.728  23.544  0.00  0.00    -0.232 NA
ATOM     21  C   UNL     1       0.893   0.496  23.262  0.00  0.00    +0.109 A 
ATOM     24  C   UNL     1       3.102   0.599  23.203  0.00  0.00    +0.068 A 
ATOM     25  C   UNL     1       2.656  -0.683  23.512  0.00  0.00    +0.089 A 
ATOM     26  C   UNL     1       4.452   0.937  23.102  0.00  0.00    +0.047 A 
ATOM     27  C   UNL     1       3.597  -1.701  23.737  0.00  0.00    +0.031 A 
ATOM     28  C   UNL     1       5.376  -0.089  23.329  0.00  0.00    +0.043 A 
ATOM     29  C   UNL     1       4.959  -1.385  23.640  0.00  0.00    +0.022 A 
ATOM     31  H   UNL     1       1.904   2.316  22.818  0.00  0.00    +0.167 HD
ENDBRANCH  14  21
ENDBRANCH   9  14
TORSDOF 6
ENDMDL
MODEL 4
REMARK VINA RESULT:      -1.2     19.045     20.826
REMARK  Name = 71693214
REMARK  9 active torsions:
REMARK  status: ('A' for Active; 'I' for Inactive)
REMARK    1  A    between atoms: N_3  and  C_12
REMARK    2  A    between atoms: N_3  and  C_17
REMARK    3  A    between atoms: C_6  and  C_10
REMARK    4  A    between atoms: C_7  and  C_12
REMARK    5  A    between atoms: C_9  and  C_14
REMARK    6  A    between atoms: C_10  and  C_15
REMARK    7  A    between atoms: C_10  and  C_16
REMARK    8  A    between atoms: C_11  and  C_18
REMARK    9  A    between atoms: C_14  and  C_21
REMARK                            x       y       z     vdW  Elec       q    Type
REMARK                         _______ _______ _______ _____ _____    ______ ____
ROOT
ATOM      6  C   UNL     1      -4.413   2.230  25.344  0.00  0.00    +0.000 C 
ATOM      7  C   UNL     1      -4.176   2.831  23.939  0.00  0.00    +0.029 C 
ATOM      8  C   UNL     1      -3.080   2.050  26.083  0.00  0.00    +0.012 C 
ATOM      9  C   UNL     1      -2.272   3.359  26.216  0.00  0.00    +0.022 C 
ATOM     11  C   UNL     1      -2.333   4.224  24.966  0.00  0.00    -0.073 C 
ATOM     13  C   UNL     1      -3.182   3.965  23.955  0.00  0.00    -0.023 C 
ATOM     18  C   UNL     1      -1.441   5.435  24.916  0.00  0.00    +0.039 C 
ENDROOT
BRANCH   6  10
ATOM     10  C   UNL     1      -5.390   3.086  26.161  0.00  0.00    -0.013 C 
ATOM     15  C   UNL     1      -6.546   2.232  26.672  0.00  0.00    +0.007 C 
ATOM     16  C   UNL     1      -5.907   4.250  25.323  0.00  0.00    +0.007 C 
ENDBRANCH   6  10
BRANCH   7  12
ATOM     12  C   UNL     1      -3.712   1.768  22.939  0.00  0.00    +0.089 C 
BRANCH  12   3
ATOM      3  N   UNL     1      -2.800   0.831  23.572  0.00  0.00    -0.313 NA
ATOM     30  H   UNL     1      -2.284   1.317  24.306  0.00  0.00    +0.122 HD
BRANCH   3  17
ATOM      2  O   UNL     1      -3.704  -3.139  24.594  0.00  0.00    -0.380 OA
ATOM     17  C   UNL     1      -3.523  -0.301  24.145  0.00  0.00    +0.058 C 
ATOM     19  C   UNL     1      -2.674  -1.022  25.198  0.00  0.00    +0.047 C 
ATOM     20  C   UNL     1      -3.937  -1.282  23.044  0.00  0.00    +0.047 C 
ATOM     22  C   UNL     1      -3.390  -2.276  25.687  0.00  0.00    +0.161 C 
ATOM     23  C   UNL     1      -4.582  -2.522  23.653  0.00  0.00    +0.161 C 
ENDBRANCH   3  17
ENDBRANCH  12   3
ENDBRANCH   7  12
BRANCH   9  14
ATOM     14  C   UNL     1      -0.837   3.008  26.629  0.00  0.00    +0.082 C 
BRANCH  14  21
ATOM      1 CL   UNL     1       3.823   0.201  21.294  0.00  0.00    -0.083 Cl
ATOM      4  N   UNL     1       0.984   2.601  24.965  0.00  0.00    -0.342 N 
ATOM      5  N   UNL     1      -0.531   0.987  25.158  0.00  0.00    -0.232 NA
ATOM     21  C   UNL     1      -0.154   2.171  25.586  0.00  0.00    +0.109 A 
ATOM     24  C   UNL     1       1.368   1.631  24.075  0.00  0.00    +0.068 A 
ATOM     25  C   UNL     1       0.406   0.634  24.214  0.00  0.00    +0.089 A 
ATOM     26  C   UNL     1       2.440   1.542  23.186  0.00  0.00    +0.047 A 
ATOM     27  C   UNL     1       0.504  -0.528  23.430  0.00  0.00    +0.031 A 
ATOM     28  C   UNL     1       2.523   0.379  22.413  0.00  0.00    +0.043 A 
ATOM     29  C   UNL     1       1.572  -0.638  22.530  0.00  0.00    +0.022 A 
ATOM     31  H   UNL     1       1.463   3.477  25.129  0.00  0.00    +0.167 HD
ENDBRANCH  14  21
ENDBRANCH   9  14
TORSDOF 6
ENDMDL
MODEL 5
REMARK VINA RESULT:      -0.6     18.228     19.810
REMARK  Name = 71693214
REMARK  9 active torsions:
REMARK  status: ('A' for Active; 'I' for Inactive)
REMARK    1  A    between atoms: N_3  and  C_12
REMARK    2  A    between atoms: N_3  and  C_17
REMARK    3  A    between atoms: C_6  and  C_10
REMARK    4  A    between atoms: C_7  and  C_12
REMARK    5  A    between atoms: C_9  and  C_14
REMARK    6  A    between atoms: C_10  and  C_15
REMARK    7  A    between atoms: C_10  and  C_16
REMARK    8  A    between atoms: C_11  and  C_18
REMARK    9  A    between atoms: C_14  and  C_21
REMARK                            x       y       z     vdW  Elec       q    Type
REMARK                         _______ _______ _______ _____ _____    ______ ____
ROOT
ATOM      6  C   UNL     1      -3.193   2.269  23.662  0.00  0.00    +0.000 C 
ATOM      7  C   UNL     1      -4.424   1.898  24.520  0.00  0.00    +0.029 C 
ATOM      8  C   UNL     1      -2.043   1.285  23.916  0.00  0.00    +0.012 C 
ATOM      9  C   UNL     1      -2.428  -0.187  23.650  0.00  0.00    +0.022 C 
ATOM     11  C   UNL     1      -3.834  -0.528  24.120  0.00  0.00    -0.073 C 
ATOM     13  C   UNL     1      -4.707   0.417  24.516  0.00  0.00    -0.023 C 
ATOM     18  C   UNL     1      -4.250  -1.973  24.074  0.00  0.00    +0.039 C 
ENDROOT
BRANCH   6  10
ATOM     10  C   UNL     1      -3.549   2.334  22.171  0.00  0.00    -0.013 C 
ATOM     15  C   UNL     1      -2.321   2.034  21.317  0.00  0.00    +0.007 C 
ATOM     16  C   UNL     1      -4.130   3.700  21.821  0.00  0.00    +0.007 C 
ENDBRANCH   6  10
BRANCH   7  12
ATOM     12  C   UNL     1      -4.272   2.377  25.967  0.00  0.00    +0.089 C 
BRANCH  12   3
ATOM      3  N   UNL     1      -4.052   3.813  26.011  0.00  0.00    -0.313 NA
ATOM     30  H   UNL     1      -4.542   4.197  26.818  0.00  0.00    +0.122 HD
BRANCH   3  17
ATOM      2  O   UNL     1       0.037   3.813  25.060  0.00  0.00    -0.380 OA
ATOM     17  C   UNL     1      -2.627   4.123  26.105  0.00  0.00    +0.058 C 
ATOM     19  C   UNL     1      -2.142   4.869  24.857  0.00  0.00    +0.047 C 
ATOM     20  C   UNL     1      -1.814   2.840  26.298  0.00  0.00    +0.047 C 
ATOM     22  C   UNL     1      -0.631   5.065  24.912  0.00  0.00    +0.161 C 
ATOM     23  C   UNL     1      -0.321   3.149  26.272  0.00  0.00    +0.161 C 
ENDBRANCH   3  17
ENDBRANCH  12   3
ENDBRANCH   7  12
BRANCH   9  14
ATOM     14  C   UNL     1      -1.357  -1.092  24.270  0.00  0.00    +0.082 C 
BRANCH  14  21
ATOM      1 CL   UNL     1       6.142  -0.434  23.095  0.00  0.00    -0.083 Cl
ATOM      4  N   UNL     1       1.114  -1.434  24.098  0.00  0.00    -0.342 N 
ATOM      5  N   UNL     1       0.361   0.546  23.428  0.00  0.00    -0.232 NA
ATOM     21  C   UNL     1       0.027  -0.626  23.920  0.00  0.00    +0.109 A 
ATOM     24  C   UNL     1       2.225  -0.738  23.693  0.00  0.00    +0.068 A 
ATOM     25  C   UNL     1       1.728   0.494  23.280  0.00  0.00    +0.089 A 
ATOM     26  C   UNL     1       3.579  -1.071  23.655  0.00  0.00    +0.047 A 
ATOM     27  C   UNL     1       2.620   1.466  22.796  0.00  0.00    +0.031 A 
ATOM     28  C   UNL     1       4.454  -0.092  23.170  0.00  0.00    +0.043 A 
ATOM     29  C   UNL     1       3.986   1.154  22.749  0.00  0.00    +0.022 A 
ATOM     31  H   UNL     1       1.107  -2.379  24.462  0.00  0.00    +0.167 HD
ENDBRANCH  14  21
ENDBRANCH   9  14
TORSDOF 6
ENDMDL
MODEL 6
REMARK VINA RESULT:      -0.3     19.305     20.968
REMARK  Name = 71693214
REMARK  9 active torsions:
REMARK  status: ('A' for Active; 'I' for Inactive)
REMARK    1  A    between atoms: N_3  and  C_12
REMARK    2  A    between atoms: N_3  and  C_17
REMARK    3  A    between atoms: C_6  and  C_10
REMARK    4  A    between atoms: C_7  and  C_12
REMARK    5  A    between atoms: C_9  and  C_14
REMARK    6  A    between atoms: C_10  and  C_15
REMARK    7  A    between atoms: C_10  and  C_16
REMARK    8  A    between atoms: C_11  and  C_18
REMARK    9  A    between atoms: C_14  and  C_21
REMARK                            x       y       z     vdW  Elec       q    Type
REMARK                         _______ _______ _______ _____ _____    ______ ____
ROOT
ATOM      6  C   UNL     1       0.232   0.054  23.500  0.00  0.00    +0.000 C 
ATOM      7  C   UNL     1       0.286   0.733  24.887  0.00  0.00    +0.029 C 
ATOM      8  C   UNL     1      -0.974   0.563  22.698  0.00  0.00    +0.012 C 
ATOM      9  C   UNL     1      -0.985   2.097  22.518  0.00  0.00    +0.022 C 
ATOM     11  C   UNL     1      -0.534   2.845  23.764  0.00  0.00    -0.073 C 
ATOM     13  C   UNL     1       0.021   2.216  24.816  0.00  0.00    -0.023 C 
ATOM     18  C   UNL     1      -0.674   4.342  23.763  0.00  0.00    +0.039 C 
ENDROOT
BRANCH   6  10
ATOM     10  C   UNL     1       1.541   0.258  22.724  0.00  0.00    -0.013 C 
ATOM     15  C   UNL     1       1.461  -0.416  21.359  0.00  0.00    +0.007 C 
ATOM     16  C   UNL     1       2.723  -0.279  23.525  0.00  0.00    +0.007 C 
ENDBRANCH   6  10
BRANCH   7  12
ATOM     12  C   UNL     1      -0.697   0.092  25.871  0.00  0.00    +0.089 C 
BRANCH  12   3
ATOM      3  N   UNL     1      -0.482  -1.342  25.950  0.00  0.00    -0.313 NA
ATOM     30  H   UNL     1      -0.204  -1.583  26.901  0.00  0.00    +0.122 HD
BRANCH   3  17
ATOM      2  O   UNL     1      -3.934  -2.414  23.814  0.00  0.00    -0.380 OA
ATOM     17  C   UNL     1      -1.693  -2.076  25.589  0.00  0.00    +0.058 C 
ATOM     19  C   UNL     1      -1.556  -2.721  24.206  0.00  0.00    +0.047 C 
ATOM     20  C   UNL     1      -2.908  -1.144  25.614  0.00  0.00    +0.047 C 
ATOM     22  C   UNL     1      -2.873  -3.367  23.790  0.00  0.00    +0.161 C 
ATOM     23  C   UNL     1      -4.150  -1.878  25.119  0.00  0.00    +0.161 C 
ENDBRANCH   3  17
ENDBRANCH  12   3
ENDBRANCH   7  12
BRANCH   9  14
ATOM     14  C   UNL     1      -2.378   2.523  22.039  0.00  0.00    +0.082 C 
BRANCH  14  21
ATOM      1 CL   UNL     1      -7.217   1.031  27.732  0.00  0.00    -0.083 Cl
ATOM      4  N   UNL     1      -3.840   1.466  23.770  0.00  0.00    -0.342 N 
ATOM      5  N   UNL     1      -3.839   3.687  23.728  0.00  0.00    -0.232 NA
ATOM     21  C   UNL     1      -3.353   2.597  23.179  0.00  0.00    +0.109 A 
ATOM     24  C   UNL     1      -4.698   1.851  24.768  0.00  0.00    +0.068 A 
ATOM     25  C   UNL     1      -4.681   3.242  24.722  0.00  0.00    +0.089 A 
ATOM     26  C   UNL     1      -5.465   1.124  25.680  0.00  0.00    +0.047 A 
ATOM     27  C   UNL     1      -5.468   3.968  25.630  0.00  0.00    +0.031 A 
ATOM     28  C   UNL     1      -6.244   1.863  26.577  0.00  0.00    +0.043 A 
ATOM     29  C   UNL     1      -6.247   3.259  26.554  0.00  0.00    +0.022 A 
ATOM     31  H   UNL     1      -3.611   0.512  23.521  0.00  0.00    +0.167 HD
ENDBRANCH  14  21
ENDBRANCH   9  14
TORSDOF 6
ENDMDL
