MODEL 1
REMARK VINA RESULT:      -6.7      0.000      0.000
REMARK  Name = 51137566
REMARK  6 active torsions:
REMARK  status: ('A' for Active; 'I' for Inactive)
REMARK    1  A    between atoms: N_2  and  C_10
REMARK    2  A    between atoms: C_6  and  C_11
REMARK    3  A    between atoms: C_10  and  C_12
REMARK    4  A    between atoms: C_16  and  C_18
REMARK    5  A    between atoms: C_18  and  C_20
REMARK    6  A    between atoms: C_20  and  C_23
REMARK                            x       y       z     vdW  Elec       q    Type
REMARK                         _______ _______ _______ _____ _____    ______ ____
ROOT
ATOM      2  N   UNL     1      -3.674  -0.780  24.518  0.00  0.00    -0.297 NA
ATOM      6  C   UNL     1      -1.342  -0.916  24.297  0.00  0.00    +0.092 C 
ATOM      7  C   UNL     1      -2.599  -0.362  23.614  0.00  0.00    +0.097 C 
ATOM      8  C   UNL     1      -1.727  -1.033  25.783  0.00  0.00    +0.029 C 
ATOM      9  C   UNL     1      -3.159  -0.517  25.861  0.00  0.00    +0.085 C 
ENDROOT
BRANCH   6  11
ATOM      1  O   UNL     1       0.806  -0.609  23.163  0.00  0.00    -0.424 OA
ATOM      3  N   UNL     1       0.228   1.091  24.498  0.00  0.00    -0.112 NA
ATOM      5  N   UNL     1       1.450   1.393  23.925  0.00  0.00    -0.112 NA
ATOM     11  C   UNL     1      -0.110  -0.086  24.025  0.00  0.00    +0.222 A 
ATOM     16  C   UNL     1       1.747   0.373  23.154  0.00  0.00    +0.217 A 
BRANCH  16  18
ATOM     18  C   UNL     1       2.925   0.155  22.305  0.00  0.00    +0.097 C 
BRANCH  18  20
ATOM     20  C   UNL     1       4.160   0.956  22.769  0.00  0.00    +0.006 C 
ATOM     23  C   UNL     1       5.199   0.087  23.460  0.00  0.00    +0.004 C 
ENDBRANCH  18  20
ENDBRANCH  16  18
ENDBRANCH   6  11
BRANCH   2  10
ATOM     10  C   UNL     1      -4.923  -0.080  24.257  0.00  0.00    +0.121 C 
BRANCH  10  12
ATOM      4  N   UNL     1      -5.729   2.854  26.326  0.00  0.00    -0.360 N 
ATOM     12  C   UNL     1      -5.002   1.222  25.007  0.00  0.00    -0.008 A 
ATOM     13  C   UNL     1      -4.041   2.272  24.989  0.00  0.00    +0.004 A 
ATOM     14  C   UNL     1      -6.029   1.610  25.839  0.00  0.00    +0.088 A 
ATOM     15  C   UNL     1      -4.521   3.282  25.825  0.00  0.00    +0.047 A 
ATOM     17  C   UNL     1      -2.804   2.459  24.340  0.00  0.00    +0.010 A 
ATOM     19  C   UNL     1      -3.824   4.476  26.044  0.00  0.00    +0.026 A 
ATOM     21  C   UNL     1      -2.096   3.648  24.550  0.00  0.00    +0.001 A 
ATOM     22  C   UNL     1      -2.600   4.639  25.389  0.00  0.00    +0.002 A 
ATOM     24  H   UNL     1      -6.311   3.381  26.963  0.00  0.00    +0.165 HD
ENDBRANCH  10  12
ENDBRANCH   2  10
TORSDOF 5
ENDMDL
MODEL 2
REMARK VINA RESULT:      -6.3      1.608      3.441
REMARK  Name = 51137566
REMARK  6 active torsions:
REMARK  status: ('A' for Active; 'I' for Inactive)
REMARK    1  A    between atoms: N_2  and  C_10
REMARK    2  A    between atoms: C_6  and  C_11
REMARK    3  A    between atoms: C_10  and  C_12
REMARK    4  A    between atoms: C_16  and  C_18
REMARK    5  A    between atoms: C_18  and  C_20
REMARK    6  A    between atoms: C_20  and  C_23
REMARK                            x       y       z     vdW  Elec       q    Type
REMARK                         _______ _______ _______ _____ _____    ______ ____
ROOT
ATOM      2  N   UNL     1      -1.706   3.572  25.850  0.00  0.00    -0.297 NA
ATOM      6  C   UNL     1       0.205   2.726  24.785  0.00  0.00    +0.092 C 
ATOM      7  C   UNL     1      -0.910   2.344  25.767  0.00  0.00    +0.097 C 
ATOM      8  C   UNL     1      -0.391   3.868  23.943  0.00  0.00    +0.029 C 
ATOM      9  C   UNL     1      -1.809   4.048  24.471  0.00  0.00    +0.085 C 
ENDROOT
BRANCH   6  11
ATOM      1  O   UNL     1       2.020   1.590  23.596  0.00  0.00    -0.424 OA
ATOM      3  N   UNL     1       0.087   0.464  23.601  0.00  0.00    -0.112 NA
ATOM      5  N   UNL     1       1.017  -0.284  22.903  0.00  0.00    -0.112 NA
ATOM     11  C   UNL     1       0.716   1.549  23.987  0.00  0.00    +0.222 A 
ATOM     16  C   UNL     1       2.129   0.412  22.927  0.00  0.00    +0.217 A 
BRANCH  16  18
ATOM     18  C   UNL     1       3.441   0.099  22.345  0.00  0.00    +0.097 C 
BRANCH  18  20
ATOM     20  C   UNL     1       4.612   0.746  23.114  0.00  0.00    +0.006 C 
ATOM     23  C   UNL     1       5.477  -0.273  23.837  0.00  0.00    +0.004 C 
ENDBRANCH  18  20
ENDBRANCH  16  18
ENDBRANCH   6  11
BRANCH   2  10
ATOM     10  C   UNL     1      -3.009   3.348  26.458  0.00  0.00    +0.121 C 
BRANCH  10  12
ATOM      4  N   UNL     1      -5.502   1.652  24.348  0.00  0.00    -0.360 N 
ATOM     12  C   UNL     1      -3.862   2.424  25.630  0.00  0.00    -0.008 A 
ATOM     13  C   UNL     1      -3.613   1.047  25.369  0.00  0.00    +0.004 A 
ATOM     14  C   UNL     1      -5.030   2.767  24.988  0.00  0.00    +0.088 A 
ATOM     15  C   UNL     1      -4.657   0.587  24.563  0.00  0.00    +0.047 A 
ATOM     17  C   UNL     1      -2.597   0.145  25.744  0.00  0.00    +0.010 A 
ATOM     19  C   UNL     1      -4.735  -0.735  24.110  0.00  0.00    +0.026 A 
ATOM     21  C   UNL     1      -2.663  -1.180  25.298  0.00  0.00    +0.001 A 
ATOM     22  C   UNL     1      -3.716  -1.611  24.494  0.00  0.00    +0.002 A 
ATOM     24  H   UNL     1      -6.348   1.617  23.796  0.00  0.00    +0.165 HD
ENDBRANCH  10  12
ENDBRANCH   2  10
TORSDOF 5
ENDMDL
MODEL 3
REMARK VINA RESULT:      -6.1      2.217      4.700
REMARK  Name = 51137566
REMARK  6 active torsions:
REMARK  status: ('A' for Active; 'I' for Inactive)
REMARK    1  A    between atoms: N_2  and  C_10
REMARK    2  A    between atoms: C_6  and  C_11
REMARK    3  A    between atoms: C_10  and  C_12
REMARK    4  A    between atoms: C_16  and  C_18
REMARK    5  A    between atoms: C_18  and  C_20
REMARK    6  A    between atoms: C_20  and  C_23
REMARK                            x       y       z     vdW  Elec       q    Type
REMARK                         _______ _______ _______ _____ _____    ______ ____
ROOT
ATOM      2  N   UNL     1      -0.514   3.809  25.155  0.00  0.00    -0.297 NA
ATOM      6  C   UNL     1       0.060   1.538  25.278  0.00  0.00    +0.092 C 
ATOM      7  C   UNL     1      -0.969   2.562  25.774  0.00  0.00    +0.097 C 
ATOM      8  C   UNL     1       0.606   2.138  23.970  0.00  0.00    +0.029 C 
ATOM      9  C   UNL     1      -0.159   3.442  23.785  0.00  0.00    +0.085 C 
ENDROOT
BRANCH   6  11
ATOM      1  O   UNL     1      -1.756  -0.060  25.657  0.00  0.00    -0.424 OA
ATOM      3  N   UNL     1       0.018  -0.928  24.608  0.00  0.00    -0.112 NA
ATOM      5  N   UNL     1      -0.924  -1.929  24.755  0.00  0.00    -0.112 NA
ATOM     11  C   UNL     1      -0.510   0.145  25.148  0.00  0.00    +0.222 A 
ATOM     16  C   UNL     1      -1.942  -1.377  25.372  0.00  0.00    +0.217 A 
BRANCH  16  18
ATOM     18  C   UNL     1      -3.220  -1.971  25.784  0.00  0.00    +0.097 C 
BRANCH  18  20
ATOM     20  C   UNL     1      -3.810  -2.927  24.726  0.00  0.00    +0.006 C 
ATOM     23  C   UNL     1      -4.347  -2.196  23.506  0.00  0.00    +0.004 C 
ENDBRANCH  18  20
ENDBRANCH  16  18
ENDBRANCH   6  11
BRANCH   2  10
ATOM     10  C   UNL     1      -1.524   4.855  25.205  0.00  0.00    +0.121 C 
BRANCH  10  12
ATOM      4  N   UNL     1      -4.733   4.066  26.824  0.00  0.00    -0.360 N 
ATOM     12  C   UNL     1      -2.855   4.327  25.668  0.00  0.00    -0.008 A 
ATOM     13  C   UNL     1      -3.581   3.242  25.100  0.00  0.00    +0.004 A 
ATOM     14  C   UNL     1      -3.589   4.813  26.726  0.00  0.00    +0.088 A 
ATOM     15  C   UNL     1      -4.755   3.101  25.843  0.00  0.00    +0.047 A 
ATOM     17  C   UNL     1      -3.352   2.365  24.021  0.00  0.00    +0.010 A 
ATOM     19  C   UNL     1      -5.714   2.121  25.561  0.00  0.00    +0.026 A 
ATOM     21  C   UNL     1      -4.303   1.381  23.727  0.00  0.00    +0.001 A 
ATOM     22  C   UNL     1      -5.465   1.263  24.486  0.00  0.00    +0.002 A 
ATOM     24  H   UNL     1      -5.457   4.205  27.516  0.00  0.00    +0.165 HD
ENDBRANCH  10  12
ENDBRANCH   2  10
TORSDOF 5
ENDMDL
MODEL 4
REMARK VINA RESULT:      -6.1      2.229      5.672
REMARK  Name = 51137566
REMARK  6 active torsions:
REMARK  status: ('A' for Active; 'I' for Inactive)
REMARK    1  A    between atoms: N_2  and  C_10
REMARK    2  A    between atoms: C_6  and  C_11
REMARK    3  A    between atoms: C_10  and  C_12
REMARK    4  A    between atoms: C_16  and  C_18
REMARK    5  A    between atoms: C_18  and  C_20
REMARK    6  A    between atoms: C_20  and  C_23
REMARK                            x       y       z     vdW  Elec       q    Type
REMARK                         _______ _______ _______ _____ _____    ______ ____
ROOT
ATOM      2  N   UNL     1      -1.891  -1.833  25.246  0.00  0.00    -0.297 NA
ATOM      6  C   UNL     1      -4.045  -0.918  25.411  0.00  0.00    +0.092 C 
ATOM      7  C   UNL     1      -2.586  -0.679  25.821  0.00  0.00    +0.097 C 
ATOM      8  C   UNL     1      -3.955  -1.802  24.154  0.00  0.00    +0.029 C 
ATOM      9  C   UNL     1      -2.463  -1.988  23.909  0.00  0.00    +0.085 C 
ENDROOT
BRANCH   6  11
ATOM      1  O   UNL     1      -4.148   1.528  25.432  0.00  0.00    -0.424 OA
ATOM      3  N   UNL     1      -6.083   0.538  24.902  0.00  0.00    -0.112 NA
ATOM      5  N   UNL     1      -6.281   1.906  24.876  0.00  0.00    -0.112 NA
ATOM     11  C   UNL     1      -4.824   0.363  25.231  0.00  0.00    +0.222 A 
ATOM     16  C   UNL     1      -5.126   2.442  25.192  0.00  0.00    +0.217 A 
BRANCH  16  18
ATOM     18  C   UNL     1      -4.754   3.858  25.315  0.00  0.00    +0.097 C 
BRANCH  18  20
ATOM     20  C   UNL     1      -3.751   4.315  24.234  0.00  0.00    +0.006 C 
ATOM     23  C   UNL     1      -3.547   3.275  23.143  0.00  0.00    +0.004 C 
ENDBRANCH  18  20
ENDBRANCH  16  18
ENDBRANCH   6  11
BRANCH   2  10
ATOM     10  C   UNL     1      -0.447  -1.652  25.213  0.00  0.00    +0.121 C 
BRANCH  10  12
ATOM      4  N   UNL     1       0.761   0.948  22.906  0.00  0.00    -0.360 N 
ATOM     12  C   UNL     1      -0.056  -0.405  24.465  0.00  0.00    -0.008 A 
ATOM     13  C   UNL     1      -0.273   0.938  24.883  0.00  0.00    +0.004 A 
ATOM     14  C   UNL     1       0.582  -0.366  23.246  0.00  0.00    +0.088 A 
ATOM     15  C   UNL     1       0.249   1.767  23.887  0.00  0.00    +0.047 A 
ATOM     17  C   UNL     1      -0.865   1.530  26.017  0.00  0.00    +0.010 A 
ATOM     19  C   UNL     1       0.208   3.163  23.969  0.00  0.00    +0.026 A 
ATOM     21  C   UNL     1      -0.913   2.925  26.112  0.00  0.00    +0.001 A 
ATOM     22  C   UNL     1      -0.385   3.727  25.103  0.00  0.00    +0.002 A 
ATOM     24  H   UNL     1       1.205   1.271  22.058  0.00  0.00    +0.165 HD
ENDBRANCH  10  12
ENDBRANCH   2  10
TORSDOF 5
ENDMDL
MODEL 5
REMARK VINA RESULT:      -5.9      2.308      6.496
REMARK  Name = 51137566
REMARK  6 active torsions:
REMARK  status: ('A' for Active; 'I' for Inactive)
REMARK    1  A    between atoms: N_2  and  C_10
REMARK    2  A    between atoms: C_6  and  C_11
REMARK    3  A    between atoms: C_10  and  C_12
REMARK    4  A    between atoms: C_16  and  C_18
REMARK    5  A    between atoms: C_18  and  C_20
REMARK    6  A    between atoms: C_20  and  C_23
REMARK                            x       y       z     vdW  Elec       q    Type
REMARK                         _______ _______ _______ _____ _____    ______ ____
ROOT
ATOM      2  N   UNL     1       0.231   1.838  24.270  0.00  0.00    -0.297 NA
ATOM      6  C   UNL     1      -1.162   3.502  25.160  0.00  0.00    +0.092 C 
ATOM      7  C   UNL     1      -1.042   2.507  23.997  0.00  0.00    +0.097 C 
ATOM      8  C   UNL     1      -0.306   2.891  26.283  0.00  0.00    +0.029 C 
ATOM      9  C   UNL     1       0.222   1.582  25.710  0.00  0.00    +0.085 C 
ENDROOT
BRANCH   6  11
ATOM      1  O   UNL     1      -3.562   3.143  24.839  0.00  0.00    -0.424 OA
ATOM      3  N   UNL     1      -3.067   4.598  26.464  0.00  0.00    -0.112 NA
ATOM      5  N   UNL     1      -4.443   4.489  26.392  0.00  0.00    -0.112 NA
ATOM     11  C   UNL     1      -2.594   3.794  25.540  0.00  0.00    +0.222 A 
ATOM     16  C   UNL     1      -4.686   3.630  25.430  0.00  0.00    +0.217 A 
BRANCH  16  18
ATOM     18  C   UNL     1      -5.972   3.134  24.920  0.00  0.00    +0.097 C 
BRANCH  18  20
ATOM     20  C   UNL     1      -6.231   1.655  25.275  0.00  0.00    +0.006 C 
ATOM     23  C   UNL     1      -6.464   1.438  26.762  0.00  0.00    +0.004 C 
ENDBRANCH  18  20
ENDBRANCH  16  18
ENDBRANCH   6  11
BRANCH   2  10
ATOM     10  C   UNL     1       0.396   0.619  23.492  0.00  0.00    +0.121 C 
BRANCH  10  12
ATOM      4  N   UNL     1      -0.788  -2.438  25.164  0.00  0.00    -0.360 N 
ATOM     12  C   UNL     1      -0.350  -0.539  24.101  0.00  0.00    -0.008 A 
ATOM     13  C   UNL     1      -1.759  -0.736  24.097  0.00  0.00    +0.004 A 
ATOM     14  C   UNL     1       0.220  -1.602  24.765  0.00  0.00    +0.088 A 
ATOM     15  C   UNL     1      -2.007  -1.934  24.771  0.00  0.00    +0.047 A 
ATOM     17  C   UNL     1      -2.851  -0.008  23.584  0.00  0.00    +0.010 A 
ATOM     19  C   UNL     1      -3.298  -2.443  24.956  0.00  0.00    +0.026 A 
ATOM     21  C   UNL     1      -4.147  -0.504  23.763  0.00  0.00    +0.001 A 
ATOM     22  C   UNL     1      -4.365  -1.703  24.439  0.00  0.00    +0.002 A 
ATOM     24  H   UNL     1      -0.656  -3.300  25.675  0.00  0.00    +0.165 HD
ENDBRANCH  10  12
ENDBRANCH   2  10
TORSDOF 5
ENDMDL
MODEL 6
REMARK VINA RESULT:      -5.3      2.092      4.111
REMARK  Name = 51137566
REMARK  6 active torsions:
REMARK  status: ('A' for Active; 'I' for Inactive)
REMARK    1  A    between atoms: N_2  and  C_10
REMARK    2  A    between atoms: C_6  and  C_11
REMARK    3  A    between atoms: C_10  and  C_12
REMARK    4  A    between atoms: C_16  and  C_18
REMARK    5  A    between atoms: C_18  and  C_20
REMARK    6  A    between atoms: C_20  and  C_23
REMARK                            x       y       z     vdW  Elec       q    Type
REMARK                         _______ _______ _______ _____ _____    ______ ____
ROOT
ATOM      2  N   UNL     1      -2.486   4.522  25.751  0.00  0.00    -0.297 NA
ATOM      6  C   UNL     1      -0.539   3.227  25.565  0.00  0.00    +0.092 C 
ATOM      7  C   UNL     1      -2.057   3.122  25.768  0.00  0.00    +0.097 C 
ATOM      8  C   UNL     1      -0.335   4.570  24.843  0.00  0.00    +0.029 C 
ATOM      9  C   UNL     1      -1.738   5.133  24.652  0.00  0.00    +0.085 C 
ENDROOT
BRANCH   6  11
ATOM      1  O   UNL     1      -0.541   0.823  25.098  0.00  0.00    -0.424 OA
ATOM      3  N   UNL     1       1.053   1.962  24.017  0.00  0.00    -0.112 NA
ATOM      5  N   UNL     1       1.165   0.630  23.665  0.00  0.00    -0.112 NA
ATOM     11  C   UNL     1       0.045   2.028  24.855  0.00  0.00    +0.222 A 
ATOM     16  C   UNL     1       0.215   0.004  24.318  0.00  0.00    +0.217 A 
BRANCH  16  18
ATOM     18  C   UNL     1      -0.135  -1.423  24.322  0.00  0.00    +0.097 C 
BRANCH  18  20
ATOM     20  C   UNL     1      -1.373  -1.738  25.189  0.00  0.00    +0.006 C 
ATOM     23  C   UNL     1      -2.288  -2.772  24.553  0.00  0.00    +0.004 C 
ENDBRANCH  18  20
ENDBRANCH  16  18
ENDBRANCH   6  11
BRANCH   2  10
ATOM     10  C   UNL     1      -3.925   4.660  25.585  0.00  0.00    +0.121 C 
BRANCH  10  12
ATOM      4  N   UNL     1      -6.027   1.675  26.049  0.00  0.00    -0.360 N 
ATOM     12  C   UNL     1      -4.618   3.323  25.572  0.00  0.00    -0.008 A 
ATOM     13  C   UNL     1      -4.288   2.205  24.757  0.00  0.00    +0.004 A 
ATOM     14  C   UNL     1      -5.692   2.967  26.356  0.00  0.00    +0.088 A 
ATOM     15  C   UNL     1      -5.187   1.185  25.075  0.00  0.00    +0.047 A 
ATOM     17  C   UNL     1      -3.307   1.962  23.775  0.00  0.00    +0.010 A 
ATOM     19  C   UNL     1      -5.154  -0.071  24.459  0.00  0.00    +0.026 A 
ATOM     21  C   UNL     1      -3.261   0.710  23.150  0.00  0.00    +0.001 A 
ATOM     22  C   UNL     1      -4.172  -0.289  23.488  0.00  0.00    +0.002 A 
ATOM     24  H   UNL     1      -6.783   1.157  26.475  0.00  0.00    +0.165 HD
ENDBRANCH  10  12
ENDBRANCH   2  10
TORSDOF 5
ENDMDL
MODEL 7
REMARK VINA RESULT:      -5.2      1.472      2.121
REMARK  Name = 51137566
REMARK  6 active torsions:
REMARK  status: ('A' for Active; 'I' for Inactive)
REMARK    1  A    between atoms: N_2  and  C_10
REMARK    2  A    between atoms: C_6  and  C_11
REMARK    3  A    between atoms: C_10  and  C_12
REMARK    4  A    between atoms: C_16  and  C_18
REMARK    5  A    between atoms: C_18  and  C_20
REMARK    6  A    between atoms: C_20  and  C_23
REMARK                            x       y       z     vdW  Elec       q    Type
REMARK                         _______ _______ _______ _____ _____    ______ ____
ROOT
ATOM      2  N   UNL     1      -2.487  -1.366  24.302  0.00  0.00    -0.297 NA
ATOM      6  C   UNL     1      -0.177  -1.145  23.963  0.00  0.00    +0.092 C 
ATOM      7  C   UNL     1      -1.537  -0.753  23.370  0.00  0.00    +0.097 C 
ATOM      8  C   UNL     1      -0.457  -1.385  25.457  0.00  0.00    +0.029 C 
ATOM      9  C   UNL     1      -1.942  -1.091  25.631  0.00  0.00    +0.085 C 
ENDROOT
BRANCH   6  11
ATOM      1  O   UNL     1       2.051  -0.598  23.107  0.00  0.00    -0.424 OA
ATOM      3  N   UNL     1       0.917   1.164  23.891  0.00  0.00    -0.112 NA
ATOM      5  N   UNL     1       2.146   1.611  23.442  0.00  0.00    -0.112 NA
ATOM     11  C   UNL     1       0.906  -0.131  23.675  0.00  0.00    +0.222 A 
ATOM     16  C   UNL     1       2.773   0.550  22.994  0.00  0.00    +0.217 A 
BRANCH  16  18
ATOM     18  C   UNL     1       4.112   0.435  22.400  0.00  0.00    +0.097 C 
BRANCH  18  20
ATOM     20  C   UNL     1       5.244   0.519  23.446  0.00  0.00    +0.006 C 
ATOM     23  C   UNL     1       5.435  -0.780  24.213  0.00  0.00    +0.004 C 
ENDBRANCH  18  20
ENDBRANCH  16  18
ENDBRANCH   6  11
BRANCH   2  10
ATOM     10  C   UNL     1      -3.837  -0.847  24.139  0.00  0.00    +0.121 C 
BRANCH  10  12
ATOM      4  N   UNL     1      -3.387   2.687  23.219  0.00  0.00    -0.360 N 
ATOM     12  C   UNL     1      -3.846   0.649  23.969  0.00  0.00    -0.008 A 
ATOM     13  C   UNL     1      -4.621   1.582  24.714  0.00  0.00    +0.004 A 
ATOM     14  C   UNL     1      -3.098   1.359  23.058  0.00  0.00    +0.088 A 
ATOM     15  C   UNL     1      -4.314   2.853  24.223  0.00  0.00    +0.047 A 
ATOM     17  C   UNL     1      -5.556   1.467  25.761  0.00  0.00    +0.010 A 
ATOM     19  C   UNL     1      -4.899   4.019  24.730  0.00  0.00    +0.026 A 
ATOM     21  C   UNL     1      -6.149   2.624  26.278  0.00  0.00    +0.001 A 
ATOM     22  C   UNL     1      -5.824   3.880  25.768  0.00  0.00    +0.002 A 
ATOM     24  H   UNL     1      -2.980   3.438  22.679  0.00  0.00    +0.165 HD
ENDBRANCH  10  12
ENDBRANCH   2  10
TORSDOF 5
ENDMDL
MODEL 8
REMARK VINA RESULT:      -5.1      2.073      6.380
REMARK  Name = 51137566
REMARK  6 active torsions:
REMARK  status: ('A' for Active; 'I' for Inactive)
REMARK    1  A    between atoms: N_2  and  C_10
REMARK    2  A    between atoms: C_6  and  C_11
REMARK    3  A    between atoms: C_10  and  C_12
REMARK    4  A    between atoms: C_16  and  C_18
REMARK    5  A    between atoms: C_18  and  C_20
REMARK    6  A    between atoms: C_20  and  C_23
REMARK                            x       y       z     vdW  Elec       q    Type
REMARK                         _______ _______ _______ _____ _____    ______ ____
ROOT
ATOM      2  N   UNL     1      -0.729   3.731  24.435  0.00  0.00    -0.297 NA
ATOM      6  C   UNL     1      -3.062   3.528  24.303  0.00  0.00    +0.092 C 
ATOM      7  C   UNL     1      -1.755   2.813  23.936  0.00  0.00    +0.097 C 
ATOM      8  C   UNL     1      -2.689   4.434  25.490  0.00  0.00    +0.029 C 
ATOM      9  C   UNL     1      -1.212   4.162  25.746  0.00  0.00    +0.085 C 
ENDROOT
BRANCH   6  11
ATOM      1  O   UNL     1      -3.964   1.252  24.341  0.00  0.00    -0.424 OA
ATOM      3  N   UNL     1      -5.421   2.822  24.989  0.00  0.00    -0.112 NA
ATOM      5  N   UNL     1      -6.054   1.595  25.058  0.00  0.00    -0.112 NA
ATOM     11  C   UNL     1      -4.203   2.574  24.566  0.00  0.00    +0.222 A 
ATOM     16  C   UNL     1      -5.166   0.709  24.672  0.00  0.00    +0.217 A 
BRANCH  16  18
ATOM     18  C   UNL     1      -5.290  -0.750  24.552  0.00  0.00    +0.097 C 
BRANCH  18  20
ATOM     20  C   UNL     1      -4.151  -1.386  23.728  0.00  0.00    +0.006 C 
ATOM     23  C   UNL     1      -4.007  -2.879  23.978  0.00  0.00    +0.004 C 
ENDBRANCH  18  20
ENDBRANCH  16  18
ENDBRANCH   6  11
BRANCH   2  10
ATOM     10  C   UNL     1       0.585   3.110  24.505  0.00  0.00    +0.121 C 
BRANCH  10  12
ATOM      4  N   UNL     1       0.908  -0.250  23.039  0.00  0.00    -0.360 N 
ATOM     12  C   UNL     1       0.539   1.657  24.116  0.00  0.00    -0.008 A 
ATOM     13  C   UNL     1      -0.196   0.627  24.769  0.00  0.00    +0.004 A 
ATOM     14  C   UNL     1       1.208   1.086  23.057  0.00  0.00    +0.088 A 
ATOM     15  C   UNL     1       0.053  -0.558  24.073  0.00  0.00    +0.047 A 
ATOM     17  C   UNL     1      -1.052   0.590  25.887  0.00  0.00    +0.010 A 
ATOM     19  C   UNL     1      -0.514  -1.783  24.441  0.00  0.00    +0.026 A 
ATOM     21  C   UNL     1      -1.627  -0.628  26.267  0.00  0.00    +0.001 A 
ATOM     22  C   UNL     1      -1.360  -1.795  25.554  0.00  0.00    +0.002 A 
ATOM     24  H   UNL     1       1.263  -0.913  22.365  0.00  0.00    +0.165 HD
ENDBRANCH  10  12
ENDBRANCH   2  10
TORSDOF 5
ENDMDL
MODEL 9
REMARK VINA RESULT:      -5.0     16.173     17.991
REMARK  Name = 51137566
REMARK  6 active torsions:
REMARK  status: ('A' for Active; 'I' for Inactive)
REMARK    1  A    between atoms: N_2  and  C_10
REMARK    2  A    between atoms: C_6  and  C_11
REMARK    3  A    between atoms: C_10  and  C_12
REMARK    4  A    between atoms: C_16  and  C_18
REMARK    5  A    between atoms: C_18  and  C_20
REMARK    6  A    between atoms: C_20  and  C_23
REMARK                            x       y       z     vdW  Elec       q    Type
REMARK                         _______ _______ _______ _____ _____    ______ ____
ROOT
ATOM      2  N   UNL     1      -5.681  -8.475   8.915  0.00  0.00    -0.297 NA
ATOM      6  C   UNL     1      -3.681  -9.354   9.768  0.00  0.00    +0.092 C 
ATOM      7  C   UNL     1      -4.748  -8.283  10.028  0.00  0.00    +0.097 C 
ATOM      8  C   UNL     1      -4.402 -10.429   8.936  0.00  0.00    +0.029 C 
ATOM      9  C   UNL     1      -5.833  -9.925   8.796  0.00  0.00    +0.085 C 
ENDROOT
BRANCH   6  11
ATOM      1  O   UNL     1      -3.845 -10.027  12.116  0.00  0.00    -0.424 OA
ATOM      3  N   UNL     1      -1.780 -10.175  11.267  0.00  0.00    -0.112 NA
ATOM      5  N   UNL     1      -1.730 -10.582  12.587  0.00  0.00    -0.112 NA
ATOM     11  C   UNL     1      -3.034  -9.860  11.036  0.00  0.00    +0.222 A 
ATOM     16  C   UNL     1      -2.957 -10.480  13.042  0.00  0.00    +0.217 A 
BRANCH  16  18
ATOM     18  C   UNL     1      -3.488 -10.781  14.378  0.00  0.00    +0.097 C 
BRANCH  18  20
ATOM     20  C   UNL     1      -2.477 -10.491  15.508  0.00  0.00    +0.006 C 
ATOM     23  C   UNL     1      -3.079 -10.661  16.894  0.00  0.00    +0.004 C 
ENDBRANCH  18  20
ENDBRANCH  16  18
ENDBRANCH   6  11
BRANCH   2  10
ATOM     10  C   UNL     1      -6.952  -7.801   9.133  0.00  0.00    +0.121 C 
BRANCH  10  12
ATOM      4  N   UNL     1      -9.780 -10.103   9.632  0.00  0.00    -0.360 N 
ATOM     12  C   UNL     1      -8.017  -8.753   9.608  0.00  0.00    -0.008 A 
ATOM     13  C   UNL     1      -8.172  -9.261  10.929  0.00  0.00    +0.004 A 
ATOM     14  C   UNL     1      -9.020  -9.290   8.834  0.00  0.00    +0.088 A 
ATOM     15  C   UNL     1      -9.284 -10.105  10.916  0.00  0.00    +0.047 A 
ATOM     17  C   UNL     1      -7.470  -9.082  12.138  0.00  0.00    +0.010 A 
ATOM     19  C   UNL     1      -9.733 -10.781  12.057  0.00  0.00    +0.026 A 
ATOM     21  C   UNL     1      -7.906  -9.752  13.287  0.00  0.00    +0.001 A 
ATOM     22  C   UNL     1      -9.020 -10.588  13.244  0.00  0.00    +0.002 A 
ATOM     24  H   UNL     1     -10.586 -10.627   9.323  0.00  0.00    +0.165 HD
ENDBRANCH  10  12
ENDBRANCH   2  10
TORSDOF 5
ENDMDL
MODEL 10
REMARK VINA RESULT:      -4.9      1.926      2.578
REMARK  Name = 51137566
REMARK  6 active torsions:
REMARK  status: ('A' for Active; 'I' for Inactive)
REMARK    1  A    between atoms: N_2  and  C_10
REMARK    2  A    between atoms: C_6  and  C_11
REMARK    3  A    between atoms: C_10  and  C_12
REMARK    4  A    between atoms: C_16  and  C_18
REMARK    5  A    between atoms: C_18  and  C_20
REMARK    6  A    between atoms: C_20  and  C_23
REMARK                            x       y       z     vdW  Elec       q    Type
REMARK                         _______ _______ _______ _____ _____    ______ ____
ROOT
ATOM      2  N   UNL     1      -4.083  -1.183  24.699  0.00  0.00    -0.297 NA
ATOM      6  C   UNL     1      -1.760  -1.072  24.398  0.00  0.00    +0.092 C 
ATOM      7  C   UNL     1      -3.090  -0.618  23.783  0.00  0.00    +0.097 C 
ATOM      8  C   UNL     1      -2.076  -1.296  25.887  0.00  0.00    +0.029 C 
ATOM      9  C   UNL     1      -3.548  -0.931  26.037  0.00  0.00    +0.085 C 
ENDROOT
BRANCH   6  11
ATOM      1  O   UNL     1      -0.811   1.182  24.514  0.00  0.00    -0.424 OA
ATOM      3  N   UNL     1       0.540  -0.329  23.565  0.00  0.00    -0.112 NA
ATOM      5  N   UNL     1       1.194   0.889  23.566  0.00  0.00    -0.112 NA
ATOM     11  C   UNL     1      -0.626  -0.111  24.127  0.00  0.00    +0.222 A 
ATOM     16  C   UNL     1       0.369   1.740  24.129  0.00  0.00    +0.217 A 
BRANCH  16  18
ATOM     18  C   UNL     1       0.541   3.174  24.395  0.00  0.00    +0.097 C 
BRANCH  18  20
ATOM     20  C   UNL     1      -0.577   3.762  25.282  0.00  0.00    +0.006 C 
ATOM     23  C   UNL     1      -0.876   5.218  24.965  0.00  0.00    +0.004 C 
ENDBRANCH  18  20
ENDBRANCH  16  18
ENDBRANCH   6  11
BRANCH   2  10
ATOM     10  C   UNL     1      -5.404  -0.601  24.513  0.00  0.00    +0.121 C 
BRANCH  10  12
ATOM      4  N   UNL     1      -6.044   2.469  26.439  0.00  0.00    -0.360 N 
ATOM     12  C   UNL     1      -5.497   0.780  25.106  0.00  0.00    -0.008 A 
ATOM     13  C   UNL     1      -4.867   1.958  24.613  0.00  0.00    +0.004 A 
ATOM     14  C   UNL     1      -6.213   1.126  26.229  0.00  0.00    +0.088 A 
ATOM     15  C   UNL     1      -5.227   3.002  25.468  0.00  0.00    +0.047 A 
ATOM     17  C   UNL     1      -4.024   2.236  23.520  0.00  0.00    +0.010 A 
ATOM     19  C   UNL     1      -4.784   4.317  25.282  0.00  0.00    +0.026 A 
ATOM     21  C   UNL     1      -3.572   3.546  23.321  0.00  0.00    +0.001 A 
ATOM     22  C   UNL     1      -3.947   4.568  24.190  0.00  0.00    +0.002 A 
ATOM     24  H   UNL     1      -6.459   2.992  27.197  0.00  0.00    +0.165 HD
ENDBRANCH  10  12
ENDBRANCH   2  10
TORSDOF 5
ENDMDL
