MODEL 1
REMARK VINA RESULT:       6.0      0.000      0.000
REMARK  Name = 11867521
REMARK  8 active torsions:
REMARK  status: ('A' for Active; 'I' for Inactive)
REMARK    1  A    between atoms: N_7  and  C_16
REMARK    2  A    between atoms: N_8  and  C_17
REMARK    3  A    between atoms: N_12  and  C_25
REMARK    4  A    between atoms: N_13  and  C_28
REMARK    5  A    between atoms: N_13  and  C_34
REMARK    6  A    between atoms: N_13  and  C_35
REMARK    7  A    between atoms: C_20  and  C_22
REMARK    8  A    between atoms: C_31  and  C_36
REMARK                            x       y       z     vdW  Elec       q    Type
REMARK                         _______ _______ _______ _____ _____    ______ ____
ROOT
ATOM      4  O   UNL     1      -4.308  -0.584  23.774  0.00  0.00    -0.370 OA
ATOM      5  O   UNL     1      -2.651  -0.594  26.448  0.00  0.00    -0.370 OA
ATOM     14  C   UNL     1      -2.730   0.304  25.325  0.00  0.00    +0.176 C 
ATOM     15  C   UNL     1      -2.906  -0.546  24.082  0.00  0.00    +0.171 C 
ATOM     16  C   UNL     1      -4.002   1.127  25.412  0.00  0.00    +0.168 C 
ATOM     17  C   UNL     1      -2.424  -1.918  24.496  0.00  0.00    +0.131 C 
ATOM     18  C   UNL     1      -5.024   0.255  24.691  0.00  0.00    +0.190 C 
ATOM     19  C   UNL     1      -2.757  -1.945  25.976  0.00  0.00    +0.185 C 
ENDROOT
BRANCH  17   8
ATOM      6  O   UNL     1      -0.661   0.032  23.359  0.00  0.00    -0.252 OA
ATOM      8  N   UNL     1      -1.005  -2.062  24.278  0.00  0.00    -0.292 N 
ATOM     12  N   UNL     1       1.119  -1.475  23.627  0.00  0.00    -0.269 N 
ATOM     21  C   UNL     1      -0.211  -1.054  23.715  0.00  0.00    +0.304 C 
ATOM     37  H   UNL     1      -0.548  -2.906  24.609  0.00  0.00    +0.151 HD
ATOM     38  H   UNL     1       1.323  -2.412  23.967  0.00  0.00    +0.156 HD
BRANCH  12  25
ATOM     25  C   UNL     1       2.225  -0.756  23.119  0.00  0.00    +0.035 A 
ATOM     29  C   UNL     1       3.418  -0.760  23.823  0.00  0.00    +0.035 A 
ATOM     30  C   UNL     1       2.093  -0.061  21.928  0.00  0.00    +0.023 A 
ATOM     31  C   UNL     1       4.509  -0.050  23.322  0.00  0.00    +0.057 A 
ATOM     32  C   UNL     1       3.184   0.648  21.427  0.00  0.00    +0.002 A 
ATOM     33  C   UNL     1       4.392   0.654  22.124  0.00  0.00    +0.012 A 
BRANCH  31  36
ATOM      1  F   UNL     1       6.886  -0.315  23.280  0.00  0.00    -0.166 F 
ATOM      2  F   UNL     1       5.855  -0.963  25.076  0.00  0.00    -0.166 F 
ATOM      3  F   UNL     1       6.066   1.160  24.652  0.00  0.00    -0.166 F 
ATOM     36  C   UNL     1       5.802  -0.044  24.066  0.00  0.00    +0.417 C 
ENDBRANCH  31  36
ENDBRANCH  12  25
ENDBRANCH  17   8
BRANCH  16   7
ATOM      7  N   UNL     1      -3.838   2.474  24.862  0.00  0.00    -0.217 N 
ATOM      9  N   UNL     1      -4.723   2.962  23.987  0.00  0.00    -0.043 NA
ATOM     10  N   UNL     1      -3.120   4.459  24.390  0.00  0.00    -0.108 NA
ATOM     11  N   UNL     1      -4.278   4.180  23.700  0.00  0.00    -0.023 NA
ATOM     20  C   UNL     1      -2.867   3.386  25.104  0.00  0.00    +0.182 A 
BRANCH  20  22
ATOM     22  C   UNL     1      -1.755   3.184  25.998  0.00  0.00    +0.021 A 
ATOM     23  C   UNL     1      -0.503   2.835  25.491  0.00  0.00    +0.013 A 
ATOM     24  C   UNL     1      -1.930   3.339  27.375  0.00  0.00    +0.013 A 
ATOM     26  C   UNL     1       0.573   2.640  26.358  0.00  0.00    +0.024 A 
ATOM     27  C   UNL     1      -0.854   3.145  28.242  0.00  0.00    +0.024 A 
ATOM     28  C   UNL     1       0.397   2.795  27.733  0.00  0.00    +0.029 A 
BRANCH  28  13
ATOM     13  N   UNL     1       1.485   2.600  28.609  0.00  0.00    -0.336 N 
ATOM     34  C   UNL     1       2.827   2.966  28.206  0.00  0.00    +0.129 C 
ATOM     35  C   UNL     1       1.272   2.042  29.930  0.00  0.00    +0.129 C 
ENDBRANCH  28  13
ENDBRANCH  20  22
ENDBRANCH  16   7
TORSDOF 6
ENDMDL
MODEL 2
REMARK VINA RESULT:       7.2      2.400      4.457
REMARK  Name = 11867521
REMARK  8 active torsions:
REMARK  status: ('A' for Active; 'I' for Inactive)
REMARK    1  A    between atoms: N_7  and  C_16
REMARK    2  A    between atoms: N_8  and  C_17
REMARK    3  A    between atoms: N_12  and  C_25
REMARK    4  A    between atoms: N_13  and  C_28
REMARK    5  A    between atoms: N_13  and  C_34
REMARK    6  A    between atoms: N_13  and  C_35
REMARK    7  A    between atoms: C_20  and  C_22
REMARK    8  A    between atoms: C_31  and  C_36
REMARK                            x       y       z     vdW  Elec       q    Type
REMARK                         _______ _______ _______ _____ _____    ______ ____
ROOT
ATOM      4  O   UNL     1      -3.500   4.714  26.479  0.00  0.00    -0.370 OA
ATOM      5  O   UNL     1      -3.163   3.325  23.677  0.00  0.00    -0.370 OA
ATOM     14  C   UNL     1      -3.647   2.883  24.959  0.00  0.00    +0.176 C 
ATOM     15  C   UNL     1      -2.792   3.554  26.017  0.00  0.00    +0.171 C 
ATOM     16  C   UNL     1      -5.045   3.422  25.196  0.00  0.00    +0.168 C 
ATOM     17  C   UNL     1      -1.538   3.965  25.277  0.00  0.00    +0.131 C 
ATOM     18  C   UNL     1      -4.784   4.778  25.845  0.00  0.00    +0.190 C 
ATOM     19  C   UNL     1      -2.058   4.218  23.875  0.00  0.00    +0.185 C 
ENDROOT
BRANCH  17   8
ATOM      6  O   UNL     1       0.119   3.148  23.088  0.00  0.00    -0.252 OA
ATOM      8  N   UNL     1      -0.555   2.909  25.287  0.00  0.00    -0.292 N 
ATOM     12  N   UNL     1       1.080   1.514  24.474  0.00  0.00    -0.269 N 
ATOM     21  C   UNL     1       0.218   2.571  24.169  0.00  0.00    +0.304 C 
ATOM     37  H   UNL     1      -0.368   2.431  26.164  0.00  0.00    +0.151 HD
ATOM     38  H   UNL     1       1.033   1.148  25.422  0.00  0.00    +0.156 HD
BRANCH  12  25
ATOM     25  C   UNL     1       2.017   0.885  23.623  0.00  0.00    +0.035 A 
ATOM     29  C   UNL     1       3.341   0.793  24.020  0.00  0.00    +0.035 A 
ATOM     30  C   UNL     1       1.591   0.372  22.409  0.00  0.00    +0.023 A 
ATOM     31  C   UNL     1       4.265   0.172  23.180  0.00  0.00    +0.057 A 
ATOM     32  C   UNL     1       2.515  -0.250  21.569  0.00  0.00    +0.002 A 
ATOM     33  C   UNL     1       3.852  -0.350  21.954  0.00  0.00    +0.012 A 
BRANCH  31  36
ATOM      1  F   UNL     1       6.221   1.239  24.049  0.00  0.00    -0.166 F 
ATOM      2  F   UNL     1       6.526  -0.331  22.584  0.00  0.00    -0.166 F 
ATOM      3  F   UNL     1       5.884  -0.837  24.599  0.00  0.00    -0.166 F 
ATOM     36  C   UNL     1       5.694   0.064  23.592  0.00  0.00    +0.417 C 
ENDBRANCH  31  36
ENDBRANCH  12  25
ENDBRANCH  17   8
BRANCH  16   7
ATOM      7  N   UNL     1      -5.875   2.507  25.983  0.00  0.00    -0.217 N 
ATOM      9  N   UNL     1      -6.950   2.958  26.637  0.00  0.00    -0.043 NA
ATOM     10  N   UNL     1      -6.705   0.765  26.959  0.00  0.00    -0.108 NA
ATOM     11  N   UNL     1      -7.457   1.886  27.234  0.00  0.00    -0.023 NA
ATOM     20  C   UNL     1      -5.729   1.176  26.182  0.00  0.00    +0.182 A 
BRANCH  20  22
ATOM     22  C   UNL     1      -4.673   0.372  25.621  0.00  0.00    +0.021 A 
ATOM     23  C   UNL     1      -3.763  -0.272  26.461  0.00  0.00    +0.013 A 
ATOM     24  C   UNL     1      -4.559   0.236  24.237  0.00  0.00    +0.013 A 
ATOM     26  C   UNL     1      -2.741  -1.050  25.918  0.00  0.00    +0.024 A 
ATOM     27  C   UNL     1      -3.537  -0.543  23.693  0.00  0.00    +0.024 A 
ATOM     28  C   UNL     1      -2.627  -1.186  24.535  0.00  0.00    +0.029 A 
BRANCH  28  13
ATOM     13  N   UNL     1      -1.594  -1.974  23.985  0.00  0.00    -0.336 N 
ATOM     34  C   UNL     1      -0.240  -1.463  23.915  0.00  0.00    +0.129 C 
ATOM     35  C   UNL     1      -1.871  -3.310  23.497  0.00  0.00    +0.129 C 
ENDBRANCH  28  13
ENDBRANCH  20  22
ENDBRANCH  16   7
TORSDOF 6
ENDMDL
