MODEL 1
REMARK VINA RESULT:      -4.7      0.000      0.000
REMARK  Name = 56774927
REMARK  10 active torsions:
REMARK  status: ('A' for Active; 'I' for Inactive)
REMARK    1  A    between atoms: O_2  and  C_14
REMARK    2  A    between atoms: O_4  and  C_23
REMARK    3  A    between atoms: O_4  and  C_26
REMARK    4  A    between atoms: N_6  and  C_17
REMARK    5  A    between atoms: N_7  and  C_20
REMARK    6  A    between atoms: C_8  and  C_13
REMARK    7  A    between atoms: C_12  and  C_14
REMARK    8  A    between atoms: C_14  and  C_16
REMARK    9  A    between atoms: C_17  and  C_23
REMARK   10  A    between atoms: C_26  and  C_27
REMARK                            x       y       z     vdW  Elec       q    Type
REMARK                         _______ _______ _______ _____ _____    ______ ____
ROOT
ATOM     14  C   UNL     1      -2.936   2.787  24.080  0.00  0.00    +0.167 C 
ENDROOT
BRANCH  14  12
ATOM      1  O   UNL     1      -4.964   4.304  25.562  0.00  0.00    -0.369 OA
ATOM      5  O   UNL     1      -7.055   1.516  24.612  0.00  0.00    -0.273 OA
ATOM      6  N   UNL     1      -4.786   1.538  25.130  0.00  0.00    -0.289 N 
ATOM     12  C   UNL     1      -3.593   2.353  25.394  0.00  0.00    +0.135 C 
ATOM     15  C   UNL     1      -3.963   3.560  26.247  0.00  0.00    +0.185 C 
ATOM     18  C   UNL     1      -6.049   2.113  24.999  0.00  0.00    +0.242 C 
ATOM     19  C   UNL     1      -6.160   3.563  25.456  0.00  0.00    +0.255 C 
BRANCH   6  17
ATOM     17  C   UNL     1      -4.586   0.128  24.828  0.00  0.00    +0.136 C 
BRANCH  17  23
ATOM     23  C   UNL     1      -3.538  -0.493  25.735  0.00  0.00    +0.178 C 
BRANCH  23   4
ATOM      4  O   UNL     1      -3.679  -1.907  25.723  0.00  0.00    -0.378 OA
BRANCH   4  26
ATOM     26  C   UNL     1      -3.344  -2.454  24.456  0.00  0.00    +0.156 C 
ATOM     27  C   UNL     1      -1.842  -2.632  24.379  0.00  0.00    +0.034 C 
ENDBRANCH   4  26
ENDBRANCH  23   4
ENDBRANCH  17  23
ENDBRANCH   6  17
ENDBRANCH  14  12
BRANCH  14  16
ATOM     16  C   UNL     1      -1.532   2.254  23.953  0.00  0.00    -0.017 A 
ATOM     20  C   UNL     1       1.067   1.269  23.716  0.00  0.00    +0.033 A 
ATOM     21  C   UNL     1      -0.447   3.061  24.293  0.00  0.00    +0.008 A 
ATOM     22  C   UNL     1      -1.318   0.953  23.494  0.00  0.00    +0.008 A 
ATOM     24  C   UNL     1       0.853   2.568  24.175  0.00  0.00    +0.023 A 
ATOM     25  C   UNL     1      -0.019   0.462  23.376  0.00  0.00    +0.023 A 
BRANCH  20   7
ATOM      3  O   UNL     1       2.432  -0.036  21.400  0.00  0.00    -0.275 OA
ATOM      7  N   UNL     1       2.367   0.776  23.598  0.00  0.00    -0.285 N 
ATOM     13  C   UNL     1       2.975   0.170  22.490  0.00  0.00    +0.220 C 
ATOM     28  H   UNL     1       2.945   0.874  24.430  0.00  0.00    +0.155 HD
BRANCH  13   8
ATOM      8  C   UNL     1       4.438  -0.244  22.753  0.00  0.00    +0.075 C 
ATOM      9  C   UNL     1       4.689  -1.314  23.836  0.00  0.00    +0.013 C 
ATOM     10  C   UNL     1       5.303   0.710  23.603  0.00  0.00    +0.013 C 
ATOM     11  C   UNL     1       5.983  -0.549  24.182  0.00  0.00    +0.001 C 
ENDBRANCH  13   8
ENDBRANCH  20   7
ENDBRANCH  14  16
BRANCH  14   2
ATOM      2  O   UNL     1      -3.721   2.324  22.986  0.00  0.00    -0.385 OA
ATOM     29  H   UNL     1      -4.408   1.729  23.334  0.00  0.00    +0.210 HD
ENDBRANCH  14   2
TORSDOF 9
ENDMDL
MODEL 2
REMARK VINA RESULT:      -3.6      1.509      2.148
REMARK  Name = 56774927
REMARK  10 active torsions:
REMARK  status: ('A' for Active; 'I' for Inactive)
REMARK    1  A    between atoms: O_2  and  C_14
REMARK    2  A    between atoms: O_4  and  C_23
REMARK    3  A    between atoms: O_4  and  C_26
REMARK    4  A    between atoms: N_6  and  C_17
REMARK    5  A    between atoms: N_7  and  C_20
REMARK    6  A    between atoms: C_8  and  C_13
REMARK    7  A    between atoms: C_12  and  C_14
REMARK    8  A    between atoms: C_14  and  C_16
REMARK    9  A    between atoms: C_17  and  C_23
REMARK   10  A    between atoms: C_26  and  C_27
REMARK                            x       y       z     vdW  Elec       q    Type
REMARK                         _______ _______ _______ _____ _____    ______ ____
ROOT
ATOM     14  C   UNL     1      -3.070   3.247  26.289  0.00  0.00    +0.167 C 
ENDROOT
BRANCH  14  12
ATOM      1  O   UNL     1      -3.983   4.369  23.736  0.00  0.00    -0.369 OA
ATOM      5  O   UNL     1      -3.136   1.071  22.531  0.00  0.00    -0.273 OA
ATOM      6  N   UNL     1      -3.991   1.701  24.602  0.00  0.00    -0.289 N 
ATOM     12  C   UNL     1      -4.315   2.806  25.514  0.00  0.00    +0.135 C 
ATOM     15  C   UNL     1      -4.915   3.969  24.733  0.00  0.00    +0.185 C 
ATOM     18  C   UNL     1      -3.583   1.933  23.289  0.00  0.00    +0.242 C 
ATOM     19  C   UNL     1      -3.801   3.351  22.775  0.00  0.00    +0.255 C 
BRANCH   6  17
ATOM     17  C   UNL     1      -3.933   0.359  25.164  0.00  0.00    +0.136 C 
BRANCH  17  23
ATOM     23  C   UNL     1      -4.749  -0.624  24.344  0.00  0.00    +0.178 C 
BRANCH  23   4
ATOM      4  O   UNL     1      -3.980  -1.796  24.107  0.00  0.00    -0.378 OA
BRANCH   4  26
ATOM     26  C   UNL     1      -2.992  -1.982  25.111  0.00  0.00    +0.156 C 
ATOM     27  C   UNL     1      -1.702  -2.428  24.454  0.00  0.00    +0.034 C 
ENDBRANCH   4  26
ENDBRANCH  23   4
ENDBRANCH  17  23
ENDBRANCH   6  17
ENDBRANCH  14  12
BRANCH  14  16
ATOM     16  C   UNL     1      -1.804   2.725  25.659  0.00  0.00    -0.017 A 
ATOM     20  C   UNL     1       0.540   1.758  24.495  0.00  0.00    +0.033 A 
ATOM     21  C   UNL     1      -1.430   1.394  25.846  0.00  0.00    +0.008 A 
ATOM     22  C   UNL     1      -1.005   3.573  24.890  0.00  0.00    +0.008 A 
ATOM     24  C   UNL     1      -0.258   0.911  25.264  0.00  0.00    +0.023 A 
ATOM     25  C   UNL     1       0.166   3.089  24.309  0.00  0.00    +0.023 A 
BRANCH  20   7
ATOM      3  O   UNL     1       0.933  -0.346  22.410  0.00  0.00    -0.275 OA
ATOM      7  N   UNL     1       1.712   1.275  23.913  0.00  0.00    -0.285 N 
ATOM     13  C   UNL     1       1.857   0.284  22.932  0.00  0.00    +0.220 C 
ATOM     28  H   UNL     1       2.572   1.703  24.249  0.00  0.00    +0.155 HD
BRANCH  13   8
ATOM      8  C   UNL     1       3.328   0.026  22.544  0.00  0.00    +0.075 C 
ATOM      9  C   UNL     1       4.177  -0.828  23.507  0.00  0.00    +0.013 C 
ATOM     10  C   UNL     1       4.337   1.168  22.790  0.00  0.00    +0.013 C 
ATOM     11  C   UNL     1       5.371   0.076  23.135  0.00  0.00    +0.001 C 
ENDBRANCH  13   8
ENDBRANCH  20   7
ENDBRANCH  14  16
BRANCH  14   2
ATOM      2  O   UNL     1      -3.025   4.669  26.337  0.00  0.00    -0.385 OA
ATOM     29  H   UNL     1      -3.850   5.013  25.953  0.00  0.00    +0.210 HD
ENDBRANCH  14   2
TORSDOF 9
ENDMDL
