MODEL 1
REMARK VINA RESULT:       5.0      0.000      0.000
REMARK  Name = 71693437
REMARK  9 active torsions:
REMARK  status: ('A' for Active; 'I' for Inactive)
REMARK    1  A    between atoms: O_2  and  C_11
REMARK    2  A    between atoms: N_6  and  C_13
REMARK    3  A    between atoms: N_7  and  C_21
REMARK    4  A    between atoms: C_9  and  C_11
REMARK    5  A    between atoms: C_10  and  C_12
REMARK    6  A    between atoms: C_13  and  C_18
REMARK    7  A    between atoms: C_25  and  C_27
REMARK    8  A    between atoms: C_28  and  C_31
REMARK    9  A    between atoms: C_30  and  C_32
REMARK                            x       y       z     vdW  Elec       q    Type
REMARK                         _______ _______ _______ _____ _____    ______ ____
ROOT
ATOM      1  O   UNL     1      -4.460   0.053  24.680  0.00  0.00    -0.361 OA
ATOM      3  O   UNL     1      -5.902   1.957  27.130  0.00  0.00    -0.273 OA
ATOM      6  N   UNL     1      -4.516   2.665  25.390  0.00  0.00    -0.287 N 
ATOM      9  C   UNL     1      -4.100   2.432  24.003  0.00  0.00    +0.135 C 
ATOM     10  C   UNL     1      -3.860   0.926  23.717  0.00  0.00    +0.171 C 
ATOM     14  C   UNL     1      -5.385   1.783  26.028  0.00  0.00    +0.242 C 
ATOM     15  C   UNL     1      -5.671   0.542  25.217  0.00  0.00    +0.256 C 
ENDROOT
BRANCH  10  12
ATOM     12  C   UNL     1      -2.379   0.603  23.683  0.00  0.00    -0.017 A 
ATOM     16  C   UNL     1      -1.911  -0.591  24.233  0.00  0.00    +0.008 A 
ATOM     17  C   UNL     1      -1.483   1.499  23.100  0.00  0.00    +0.008 A 
ATOM     19  C   UNL     1      -0.548  -0.887  24.200  0.00  0.00    +0.023 A 
ATOM     20  C   UNL     1      -0.121   1.203  23.067  0.00  0.00    +0.023 A 
ATOM     21  C   UNL     1       0.347   0.010  23.618  0.00  0.00    +0.034 A 
BRANCH  21   7
ATOM      5  O   UNL     1       2.700   1.772  23.030  0.00  0.00    -0.270 OA
ATOM      7  N   UNL     1       1.710  -0.288  23.585  0.00  0.00    -0.281 N 
ATOM     25  C   UNL     1       2.774   0.578  23.304  0.00  0.00    +0.252 C 
ATOM     34  H   UNL     1       1.932  -1.256  23.799  0.00  0.00    +0.155 HD
BRANCH  25  27
ATOM      4  O   UNL     1       5.740  -1.559  23.730  0.00  0.00    -0.464 OA
ATOM     27  C   UNL     1       4.128  -0.033  23.375  0.00  0.00    +0.078 A 
ATOM     28  C   UNL     1       4.404  -1.318  23.782  0.00  0.00    +0.114 A 
ATOM     29  C   UNL     1       5.375   0.553  23.051  0.00  0.00    +0.057 A 
ATOM     30  C   UNL     1       6.324  -0.415  23.285  0.00  0.00    +0.103 A 
ATOM     31  C   UNL     1       3.565  -2.435  24.244  0.00  0.00    +0.087 C 
ATOM     32  C   UNL     1       7.787  -0.445  23.146  0.00  0.00    +0.086 C 
ENDBRANCH  25  27
ENDBRANCH  21   7
ENDBRANCH  10  12
BRANCH   9  11
ATOM     11  C   UNL     1      -5.121   3.025  23.024  0.00  0.00    +0.181 C 
BRANCH  11   2
ATOM      2  O   UNL     1      -4.420   3.783  22.060  0.00  0.00    -0.393 OA
ATOM     33  H   UNL     1      -5.070   4.093  21.407  0.00  0.00    +0.209 HD
ENDBRANCH  11   2
ENDBRANCH   9  11
BRANCH   6  13
ATOM     13  C   UNL     1      -4.106   3.905  26.029  0.00  0.00    +0.145 C 
BRANCH  13  18
ATOM      8  N   UNL     1      -0.348   3.671  25.677  0.00  0.00    -0.263 NA
ATOM     18  C   UNL     1      -2.690   4.272  25.689  0.00  0.00    -0.012 A 
ATOM     22  C   UNL     1      -2.388   5.492  25.097  0.00  0.00    +0.008 A 
ATOM     23  C   UNL     1      -1.643   3.403  25.957  0.00  0.00    +0.115 A 
ATOM     24  C   UNL     1      -1.067   5.804  24.794  0.00  0.00    +0.020 A 
ATOM     26  C   UNL     1      -0.093   4.868  25.101  0.00  0.00    +0.111 A 
ENDBRANCH  13  18
ENDBRANCH   6  13
TORSDOF 7
ENDMDL
MODEL 2
REMARK VINA RESULT:       5.3      1.824      3.711
REMARK  Name = 71693437
REMARK  9 active torsions:
REMARK  status: ('A' for Active; 'I' for Inactive)
REMARK    1  A    between atoms: O_2  and  C_11
REMARK    2  A    between atoms: N_6  and  C_13
REMARK    3  A    between atoms: N_7  and  C_21
REMARK    4  A    between atoms: C_9  and  C_11
REMARK    5  A    between atoms: C_10  and  C_12
REMARK    6  A    between atoms: C_13  and  C_18
REMARK    7  A    between atoms: C_25  and  C_27
REMARK    8  A    between atoms: C_28  and  C_31
REMARK    9  A    between atoms: C_30  and  C_32
REMARK                            x       y       z     vdW  Elec       q    Type
REMARK                         _______ _______ _______ _____ _____    ______ ____
ROOT
ATOM      1  O   UNL     1      -3.590   3.425  23.338  0.00  0.00    -0.361 OA
ATOM      3  O   UNL     1      -6.474   1.597  23.557  0.00  0.00    -0.273 OA
ATOM      6  N   UNL     1      -4.808   1.848  25.172  0.00  0.00    -0.287 N 
ATOM      9  C   UNL     1      -3.794   2.746  25.735  0.00  0.00    +0.135 C 
ATOM     10  C   UNL     1      -2.969   3.453  24.627  0.00  0.00    +0.171 C 
ATOM     14  C   UNL     1      -5.516   2.206  24.027  0.00  0.00    +0.242 C 
ATOM     15  C   UNL     1      -5.002   3.472  23.383  0.00  0.00    +0.256 C 
ENDROOT
BRANCH  10  12
ATOM     12  C   UNL     1      -1.598   2.823  24.477  0.00  0.00    -0.017 A 
ATOM     16  C   UNL     1      -0.464   3.630  24.383  0.00  0.00    +0.008 A 
ATOM     17  C   UNL     1      -1.470   1.434  24.432  0.00  0.00    +0.008 A 
ATOM     19  C   UNL     1       0.796   3.049  24.245  0.00  0.00    +0.023 A 
ATOM     20  C   UNL     1      -0.210   0.854  24.295  0.00  0.00    +0.023 A 
ATOM     21  C   UNL     1       0.924   1.660  24.201  0.00  0.00    +0.034 A 
BRANCH  21   7
ATOM      5  O   UNL     1       2.101   0.104  21.925  0.00  0.00    -0.270 OA
ATOM      7  N   UNL     1       2.185   1.080  24.063  0.00  0.00    -0.281 N 
ATOM     25  C   UNL     1       2.687   0.359  22.972  0.00  0.00    +0.252 C 
ATOM     34  H   UNL     1       2.796   1.213  24.864  0.00  0.00    +0.155 HD
BRANCH  25  27
ATOM      4  O   UNL     1       5.830  -1.441  23.626  0.00  0.00    -0.464 OA
ATOM     27  C   UNL     1       4.090  -0.113  23.112  0.00  0.00    +0.078 A 
ATOM     28  C   UNL     1       4.476  -1.322  23.645  0.00  0.00    +0.114 A 
ATOM     29  C   UNL     1       5.283   0.552  22.741  0.00  0.00    +0.057 A 
ATOM     30  C   UNL     1       6.313  -0.296  23.075  0.00  0.00    +0.103 A 
ATOM     31  C   UNL     1       3.737  -2.461  24.209  0.00  0.00    +0.087 C 
ATOM     32  C   UNL     1       7.775  -0.202  22.950  0.00  0.00    +0.086 C 
ENDBRANCH  25  27
ENDBRANCH  21   7
ENDBRANCH  10  12
BRANCH   9  11
ATOM     11  C   UNL     1      -4.440   3.766  26.681  0.00  0.00    +0.181 C 
BRANCH  11   2
ATOM      2  O   UNL     1      -3.526   4.826  26.877  0.00  0.00    -0.393 OA
ATOM     33  H   UNL     1      -3.390   4.917  27.836  0.00  0.00    +0.209 HD
ENDBRANCH  11   2
ENDBRANCH   9  11
BRANCH   6  13
ATOM     13  C   UNL     1      -5.145   0.644  25.914  0.00  0.00    +0.145 C 
BRANCH  13  18
ATOM      8  N   UNL     1      -2.489  -2.045  25.813  0.00  0.00    -0.263 NA
ATOM     18  C   UNL     1      -4.348  -0.542  25.454  0.00  0.00    -0.012 A 
ATOM     22  C   UNL     1      -4.687  -1.227  24.294  0.00  0.00    +0.008 A 
ATOM     23  C   UNL     1      -3.249  -0.987  26.172  0.00  0.00    +0.115 A 
ATOM     24  C   UNL     1      -3.929  -2.322  23.891  0.00  0.00    +0.020 A 
ATOM     26  C   UNL     1      -2.850  -2.688  24.679  0.00  0.00    +0.111 A 
ENDBRANCH  13  18
ENDBRANCH   6  13
TORSDOF 7
ENDMDL
MODEL 3
REMARK VINA RESULT:       6.4      1.535      1.992
REMARK  Name = 71693437
REMARK  9 active torsions:
REMARK  status: ('A' for Active; 'I' for Inactive)
REMARK    1  A    between atoms: O_2  and  C_11
REMARK    2  A    between atoms: N_6  and  C_13
REMARK    3  A    between atoms: N_7  and  C_21
REMARK    4  A    between atoms: C_9  and  C_11
REMARK    5  A    between atoms: C_10  and  C_12
REMARK    6  A    between atoms: C_13  and  C_18
REMARK    7  A    between atoms: C_25  and  C_27
REMARK    8  A    between atoms: C_28  and  C_31
REMARK    9  A    between atoms: C_30  and  C_32
REMARK                            x       y       z     vdW  Elec       q    Type
REMARK                         _______ _______ _______ _____ _____    ______ ____
ROOT
ATOM      1  O   UNL     1      -4.906  -0.163  26.139  0.00  0.00    -0.361 OA
ATOM      3  O   UNL     1      -6.452   2.393  27.806  0.00  0.00    -0.273 OA
ATOM      6  N   UNL     1      -5.435   2.456  25.707  0.00  0.00    -0.287 N 
ATOM      9  C   UNL     1      -5.125   1.701  24.488  0.00  0.00    +0.135 C 
ATOM     10  C   UNL     1      -4.606   0.274  24.809  0.00  0.00    +0.171 C 
ATOM     14  C   UNL     1      -6.028   1.830  26.800  0.00  0.00    +0.242 C 
ATOM     15  C   UNL     1      -6.130   0.331  26.640  0.00  0.00    +0.256 C 
ENDROOT
BRANCH  10  12
ATOM     12  C   UNL     1      -3.102   0.186  24.639  0.00  0.00    -0.017 A 
ATOM     16  C   UNL     1      -2.406  -0.919  25.131  0.00  0.00    +0.008 A 
ATOM     17  C   UNL     1      -2.412   1.211  23.989  0.00  0.00    +0.008 A 
ATOM     19  C   UNL     1      -1.022  -0.998  24.973  0.00  0.00    +0.023 A 
ATOM     20  C   UNL     1      -1.029   1.130  23.831  0.00  0.00    +0.023 A 
ATOM     21  C   UNL     1      -0.333   0.026  24.323  0.00  0.00    +0.034 A 
BRANCH  21   7
ATOM      5  O   UNL     1       1.315  -0.341  21.847  0.00  0.00    -0.270 OA
ATOM      7  N   UNL     1       1.051  -0.055  24.165  0.00  0.00    -0.281 N 
ATOM     25  C   UNL     1       1.774  -0.228  22.978  0.00  0.00    +0.252 C 
ATOM     34  H   UNL     1       1.575   0.028  25.032  0.00  0.00    +0.155 HD
BRANCH  25  27
ATOM      4  O   UNL     1       5.395   0.428  23.031  0.00  0.00    -0.464 OA
ATOM     27  C   UNL     1       3.253  -0.246  23.131  0.00  0.00    +0.078 A 
ATOM     28  C   UNL     1       4.108   0.762  22.751  0.00  0.00    +0.114 A 
ATOM     29  C   UNL     1       4.067  -1.265  23.682  0.00  0.00    +0.057 A 
ATOM     30  C   UNL     1       5.362  -0.808  23.597  0.00  0.00    +0.103 A 
ATOM     31  C   UNL     1       3.906   2.077  22.124  0.00  0.00    +0.087 C 
ATOM     32  C   UNL     1       6.658  -1.378  23.989  0.00  0.00    +0.086 C 
ENDBRANCH  25  27
ENDBRANCH  21   7
ENDBRANCH  10  12
BRANCH   9  11
ATOM     11  C   UNL     1      -6.344   1.649  23.559  0.00  0.00    +0.181 C 
BRANCH  11   2
ATOM      2  O   UNL     1      -7.503   1.853  24.340  0.00  0.00    -0.393 OA
ATOM     33  H   UNL     1      -8.193   1.261  23.995  0.00  0.00    +0.209 HD
ENDBRANCH  11   2
ENDBRANCH   9  11
BRANCH   6  13
ATOM     13  C   UNL     1      -5.229   3.896  25.690  0.00  0.00    +0.145 C 
BRANCH  13  18
ATOM      8  N   UNL     1      -2.150   5.402  24.094  0.00  0.00    -0.263 NA
ATOM     18  C   UNL     1      -3.792   4.256  25.449  0.00  0.00    -0.012 A 
ATOM     22  C   UNL     1      -2.788   3.811  26.301  0.00  0.00    +0.008 A 
ATOM     23  C   UNL     1      -3.424   5.043  24.368  0.00  0.00    +0.115 A 
ATOM     24  C   UNL     1      -1.465   4.160  26.051  0.00  0.00    +0.020 A 
ATOM     26  C   UNL     1      -1.201   4.951  24.945  0.00  0.00    +0.111 A 
ENDBRANCH  13  18
ENDBRANCH   6  13
TORSDOF 7
ENDMDL
