MODEL 1
REMARK VINA RESULT:       9.7      0.000      0.000
REMARK  Name = 11867056
REMARK  9 active torsions:
REMARK  status: ('A' for Active; 'I' for Inactive)
REMARK    1  A    between atoms: O_3  and  C_15
REMARK    2  A    between atoms: O_4  and  C_20
REMARK    3  A    between atoms: N_8  and  C_26
REMARK    4  A    between atoms: C_10  and  C_18
REMARK    5  A    between atoms: C_12  and  C_20
REMARK    6  A    between atoms: C_12  and  C_21
REMARK    7  A    between atoms: C_13  and  C_23
REMARK    8  A    between atoms: C_23  and  C_24
REMARK    9  A    between atoms: C_29  and  C_30
REMARK                            x       y       z     vdW  Elec       q    Type
REMARK                         _______ _______ _______ _____ _____    ______ ____
ROOT
ATOM      1  S   UNL     1       0.167   2.195  25.684  0.00  0.00    -0.057 S 
ATOM      6  O   UNL     1       1.629  -0.462  22.152  0.00  0.00    -0.270 OA
ATOM      7  N   UNL     1      -0.581   0.887  23.581  0.00  0.00    -0.229 NA
ATOM      9  N   UNL     1       1.770   0.845  24.108  0.00  0.00    -0.261 N 
ATOM     10  C   UNL     1      -4.229   1.676  24.549  0.00  0.00    -0.019 C 
ATOM     11  C   UNL     1      -3.833   3.060  25.230  0.00  0.00    +0.011 C 
ATOM     12  C   UNL     1      -4.982   3.852  25.965  0.00  0.00    +0.021 C 
ATOM     13  C   UNL     1      -3.072   1.283  23.520  0.00  0.00    +0.054 C 
ATOM     14  C   UNL     1      -5.550   1.852  23.755  0.00  0.00    +0.010 C 
ATOM     15  C   UNL     1      -6.240   3.894  25.053  0.00  0.00    +0.123 C 
ATOM     16  C   UNL     1      -2.527   2.929  26.065  0.00  0.00    +0.049 C 
ATOM     17  C   UNL     1      -6.664   2.518  24.550  0.00  0.00    +0.032 C 
ATOM     18  C   UNL     1      -4.416   0.533  25.576  0.00  0.00    +0.012 C 
ATOM     19  C   UNL     1      -1.712   1.451  24.145  0.00  0.00    +0.058 A 
ATOM     21  C   UNL     1      -4.523   5.320  26.188  0.00  0.00    +0.016 C 
ATOM     22  C   UNL     1      -1.486   2.209  25.276  0.00  0.00    +0.015 A 
ATOM     25  C   UNL     1       0.465   1.207  24.312  0.00  0.00    +0.165 A 
ATOM     29  C   UNL     1       2.269   0.050  23.064  0.00  0.00    +0.250 C 
ATOM     39  H   UNL     1       2.412   1.248  24.783  0.00  0.00    +0.157 HD
ENDROOT
BRANCH  29  30
ATOM      2  F   UNL     1       7.830  -0.738  23.083  0.00  0.00    -0.205 F 
ATOM     30  C   UNL     1       3.742  -0.158  23.070  0.00  0.00    +0.037 A 
ATOM     31  C   UNL     1       4.286  -1.269  23.715  0.00  0.00    +0.016 A 
ATOM     32  C   UNL     1       4.578   0.756  22.429  0.00  0.00    +0.016 A 
ATOM     33  C   UNL     1       5.668  -1.465  23.720  0.00  0.00    +0.039 A 
ATOM     34  C   UNL     1       5.958   0.561  22.435  0.00  0.00    +0.039 A 
ATOM     35  C   UNL     1       6.503  -0.550  23.079  0.00  0.00    +0.123 A 
ENDBRANCH  29  30
BRANCH  15   3
ATOM      3  O   UNL     1      -7.340   4.490  25.741  0.00  0.00    -0.391 OA
ATOM     36  H   UNL     1      -6.995   4.890  26.557  0.00  0.00    +0.210 HD
ENDBRANCH  15   3
BRANCH  12  20
ATOM     20  C   UNL     1      -5.336   3.310  27.368  0.00  0.00    +0.165 C 
BRANCH  20   4
ATOM      4  O   UNL     1      -6.374   2.368  27.217  0.00  0.00    -0.394 OA
ATOM     37  H   UNL     1      -6.838   2.578  26.387  0.00  0.00    +0.209 HD
ENDBRANCH  20   4
ENDBRANCH  12  20
BRANCH  13  23
ATOM     23  C   UNL     1      -3.230  -0.104  22.882  0.00  0.00    +0.106 C 
BRANCH  23  24
ATOM      5  O   UNL     1      -3.877  -1.898  24.374  0.00  0.00    -0.276 OA
ATOM      8  N   UNL     1      -1.632  -1.353  24.149  0.00  0.00    -0.312 N 
ATOM     24  C   UNL     1      -2.986  -1.215  23.877  0.00  0.00    +0.214 C 
ATOM     38  H   UNL     1      -0.960  -0.739  23.696  0.00  0.00    +0.149 HD
BRANCH   8  26
ATOM     26  C   UNL     1      -1.126  -2.337  25.063  0.00  0.00    +0.073 C 
ATOM     27  C   UNL     1       0.350  -2.512  25.275  0.00  0.00    +0.024 C 
ATOM     28  C   UNL     1      -0.502  -1.934  26.367  0.00  0.00    +0.024 C 
ENDBRANCH   8  26
ENDBRANCH  23  24
ENDBRANCH  13  23
TORSDOF 7
ENDMDL
MODEL 2
REMARK VINA RESULT:      13.6      1.781      2.639
REMARK  Name = 11867056
REMARK  9 active torsions:
REMARK  status: ('A' for Active; 'I' for Inactive)
REMARK    1  A    between atoms: O_3  and  C_15
REMARK    2  A    between atoms: O_4  and  C_20
REMARK    3  A    between atoms: N_8  and  C_26
REMARK    4  A    between atoms: C_10  and  C_18
REMARK    5  A    between atoms: C_12  and  C_20
REMARK    6  A    between atoms: C_12  and  C_21
REMARK    7  A    between atoms: C_13  and  C_23
REMARK    8  A    between atoms: C_23  and  C_24
REMARK    9  A    between atoms: C_29  and  C_30
REMARK                            x       y       z     vdW  Elec       q    Type
REMARK                         _______ _______ _______ _____ _____    ______ ____
ROOT
ATOM      1  S   UNL     1       1.200   2.540  24.208  0.00  0.00    -0.057 S 
ATOM      6  O   UNL     1       3.356  -1.535  23.556  0.00  0.00    -0.270 OA
ATOM      7  N   UNL     1       0.859  -0.018  24.018  0.00  0.00    -0.229 NA
ATOM      9  N   UNL     1       3.117   0.797  23.803  0.00  0.00    -0.261 N 
ATOM     10  C   UNL     1      -2.840   0.537  24.953  0.00  0.00    -0.019 C 
ATOM     11  C   UNL     1      -2.878   1.977  24.272  0.00  0.00    +0.011 C 
ATOM     12  C   UNL     1      -4.204   2.814  24.442  0.00  0.00    +0.021 C 
ATOM     13  C   UNL     1      -1.633  -0.284  24.304  0.00  0.00    +0.054 C 
ATOM     14  C   UNL     1      -4.162  -0.213  24.647  0.00  0.00    +0.010 C 
ATOM     15  C   UNL     1      -5.427   1.902  24.143  0.00  0.00    +0.123 C 
ATOM     16  C   UNL     1      -1.583   2.784  24.576  0.00  0.00    +0.049 C 
ATOM     17  C   UNL     1      -5.415   0.601  24.937  0.00  0.00    +0.032 C 
ATOM     18  C   UNL     1      -2.651   0.604  26.488  0.00  0.00    +0.012 C 
ATOM     19  C   UNL     1      -0.381   0.552  24.241  0.00  0.00    +0.058 A 
ATOM     21  C   UNL     1      -4.216   3.962  23.394  0.00  0.00    +0.016 C 
ATOM     22  C   UNL     1      -0.383   1.928  24.347  0.00  0.00    +0.015 A 
ATOM     25  C   UNL     1       1.767   0.934  23.989  0.00  0.00    +0.165 A 
ATOM     29  C   UNL     1       3.821  -0.401  23.601  0.00  0.00    +0.250 C 
ATOM     39  H   UNL     1       3.614   1.682  23.777  0.00  0.00    +0.157 HD
ENDROOT
BRANCH  29  30
ATOM      2  F   UNL     1       9.355   0.161  22.822  0.00  0.00    -0.205 F 
ATOM     30  C   UNL     1       5.286  -0.252  23.394  0.00  0.00    +0.037 A 
ATOM     31  C   UNL     1       5.964   0.831  23.958  0.00  0.00    +0.016 A 
ATOM     32  C   UNL     1       5.983  -1.194  22.638  0.00  0.00    +0.016 A 
ATOM     33  C   UNL     1       7.338   0.970  23.764  0.00  0.00    +0.039 A 
ATOM     34  C   UNL     1       7.357  -1.054  22.444  0.00  0.00    +0.039 A 
ATOM     35  C   UNL     1       8.035   0.027  23.008  0.00  0.00    +0.123 A 
ENDBRANCH  29  30
BRANCH  15   3
ATOM      3  O   UNL     1      -6.647   2.594  24.413  0.00  0.00    -0.391 OA
ATOM     36  H   UNL     1      -7.355   1.929  24.476  0.00  0.00    +0.210 HD
ENDBRANCH  15   3
BRANCH  12  20
ATOM     20  C   UNL     1      -4.354   3.505  25.815  0.00  0.00    +0.165 C 
BRANCH  20   4
ATOM      4  O   UNL     1      -5.415   4.429  25.720  0.00  0.00    -0.394 OA
ATOM     37  H   UNL     1      -6.185   4.032  26.164  0.00  0.00    +0.209 HD
ENDBRANCH  20   4
ENDBRANCH  12  20
BRANCH  13  23
ATOM     23  C   UNL     1      -1.366  -1.647  24.955  0.00  0.00    +0.106 C 
BRANCH  23  24
ATOM      5  O   UNL     1      -1.466  -3.582  23.502  0.00  0.00    -0.276 OA
ATOM      8  N   UNL     1      -3.421  -2.760  24.445  0.00  0.00    -0.312 N 
ATOM     24  C   UNL     1      -2.053  -2.771  24.214  0.00  0.00    +0.214 C 
ATOM     38  H   UNL     1      -3.826  -2.046  25.046  0.00  0.00    +0.149 HD
BRANCH   8  26
ATOM     26  C   UNL     1      -4.311  -3.721  23.860  0.00  0.00    +0.073 C 
ATOM     27  C   UNL     1      -5.676  -3.324  23.379  0.00  0.00    +0.024 C 
ATOM     28  C   UNL     1      -4.613  -3.703  22.390  0.00  0.00    +0.024 C 
ENDBRANCH   8  26
ENDBRANCH  23  24
ENDBRANCH  13  23
TORSDOF 7
ENDMDL
