MODEL 1
REMARK VINA RESULT:      -2.2      0.000      0.000
REMARK  Name = 51136684
REMARK  10 active torsions:
REMARK  status: ('A' for Active; 'I' for Inactive)
REMARK    1  A    between atoms: O_2  and  C_18
REMARK    2  A    between atoms: O_4  and  C_25
REMARK    3  A    between atoms: O_4  and  C_29
REMARK    4  A    between atoms: N_7  and  C_24
REMARK    5  A    between atoms: C_8  and  C_13
REMARK    6  A    between atoms: C_9  and  C_14
REMARK    7  A    between atoms: C_13  and  C_15
REMARK    8  A    between atoms: C_14  and  C_18
REMARK    9  A    between atoms: C_24  and  C_27
REMARK   10  A    between atoms: C_27  and  C_28
REMARK                            x       y       z     vdW  Elec       q    Type
REMARK                         _______ _______ _______ _____ _____    ______ ____
ROOT
ATOM      1  O   UNL     1       3.332  -1.222  23.516  0.00  0.00    -0.253 OA
ATOM      5  N   UNL     1       1.140  -0.620  23.052  0.00  0.00    -0.285 N 
ATOM      7  N   UNL     1       2.927   0.894  22.730  0.00  0.00    -0.299 N 
ATOM      8  C   UNL     1      -0.928   0.577  23.710  0.00  0.00    +0.016 C 
ATOM      9  C   UNL     1      -1.513  -0.774  24.199  0.00  0.00    +0.006 C 
ATOM     10  C   UNL     1      -0.405  -1.772  24.579  0.00  0.00    +0.023 C 
ATOM     11  C   UNL     1       0.106   0.320  22.600  0.00  0.00    +0.113 C 
ATOM     12  C   UNL     1       0.619  -1.927  23.455  0.00  0.00    +0.109 C 
ATOM     16  C   UNL     1       2.521  -0.375  23.124  0.00  0.00    +0.302 C 
ATOM     30  H   UNL     1       2.261   1.609  22.472  0.00  0.00    +0.150 HD
ENDROOT
BRANCH   8  13
ATOM     13  C   UNL     1      -0.313   1.432  24.825  0.00  0.00    +0.061 C 
BRANCH  13  15
ATOM      6  N   UNL     1       0.058   3.768  24.413  0.00  0.00    -0.287 NA
ATOM     15  C   UNL     1      -0.805   2.854  24.712  0.00  0.00    +0.044 C 
ATOM     17  C   UNL     1      -2.243   3.136  24.956  0.00  0.00    +0.003 A 
ATOM     19  C   UNL     1      -2.589   4.466  25.225  0.00  0.00    -0.037 A 
ATOM     20  C   UNL     1      -1.503   5.499  25.264  0.00  0.00    +0.059 C 
ATOM     21  C   UNL     1      -0.431   5.141  24.244  0.00  0.00    +0.146 C 
ATOM     22  C   UNL     1      -3.221   2.139  24.938  0.00  0.00    +0.055 A 
ATOM     23  C   UNL     1      -3.920   4.790  25.504  0.00  0.00    +0.008 A 
ATOM     25  C   UNL     1      -4.550   2.475  25.201  0.00  0.00    +0.121 A 
ATOM     26  C   UNL     1      -4.898   3.796  25.486  0.00  0.00    +0.046 A 
BRANCH  25   4
ATOM      4  O   UNL     1      -5.512   1.511  25.175  0.00  0.00    -0.495 OA
ATOM     29  C   UNL     1      -6.505   1.558  26.197  0.00  0.00    +0.277 C 
ENDBRANCH  25   4
ENDBRANCH  13  15
ENDBRANCH   8  13
BRANCH   9  14
ATOM     14  C   UNL     1      -2.512  -0.615  25.345  0.00  0.00    +0.124 C 
BRANCH  14  18
ATOM      3  O   UNL     1      -3.646  -2.745  25.695  0.00  0.00    -0.251 OA
ATOM     18  C   UNL     1      -3.635  -1.610  25.243  0.00  0.00    +0.305 C 
BRANCH  18   2
ATOM      2  O   UNL     1      -4.671  -1.062  24.557  0.00  0.00    -0.481 OA
ATOM     31  H   UNL     1      -5.446  -0.896  25.136  0.00  0.00    +0.295 HD
ENDBRANCH  18   2
ENDBRANCH  14  18
ENDBRANCH   9  14
BRANCH   7  24
ATOM     24  C   UNL     1       4.314   1.301  22.755  0.00  0.00    +0.105 C 
BRANCH  24  27
ATOM     27  C   UNL     1       5.095   0.630  23.880  0.00  0.00    +0.015 C 
ATOM     28  C   UNL     1       6.256  -0.213  23.368  0.00  0.00    +0.005 C 
ENDBRANCH  24  27
ENDBRANCH   7  24
TORSDOF 8
ENDMDL
MODEL 2
REMARK VINA RESULT:      -1.6     14.745     16.729
REMARK  Name = 51136684
REMARK  10 active torsions:
REMARK  status: ('A' for Active; 'I' for Inactive)
REMARK    1  A    between atoms: O_2  and  C_18
REMARK    2  A    between atoms: O_4  and  C_25
REMARK    3  A    between atoms: O_4  and  C_29
REMARK    4  A    between atoms: N_7  and  C_24
REMARK    5  A    between atoms: C_8  and  C_13
REMARK    6  A    between atoms: C_9  and  C_14
REMARK    7  A    between atoms: C_13  and  C_15
REMARK    8  A    between atoms: C_14  and  C_18
REMARK    9  A    between atoms: C_24  and  C_27
REMARK   10  A    between atoms: C_27  and  C_28
REMARK                            x       y       z     vdW  Elec       q    Type
REMARK                         _______ _______ _______ _____ _____    ______ ____
ROOT
ATOM      1  O   UNL     1      -0.238  -8.258  14.227  0.00  0.00    -0.253 OA
ATOM      5  N   UNL     1      -1.819  -9.905  13.816  0.00  0.00    -0.285 N 
ATOM      7  N   UNL     1      -0.655  -8.848  12.051  0.00  0.00    -0.299 N 
ATOM      8  C   UNL     1      -4.112 -10.533  13.114  0.00  0.00    +0.016 C 
ATOM      9  C   UNL     1      -4.489 -10.692  14.610  0.00  0.00    +0.006 C 
ATOM     10  C   UNL     1      -3.591  -9.835  15.520  0.00  0.00    +0.023 C 
ATOM     11  C   UNL     1      -2.604 -10.778  12.933  0.00  0.00    +0.113 C 
ATOM     12  C   UNL     1      -2.109 -10.084  15.239  0.00  0.00    +0.109 C 
ATOM     16  C   UNL     1      -0.860  -8.958  13.420  0.00  0.00    +0.302 C 
ATOM     30  H   UNL     1      -1.208  -9.371  11.386  0.00  0.00    +0.150 HD
ENDROOT
BRANCH   8  13
ATOM     13  C   UNL     1      -4.509  -9.181  12.509  0.00  0.00    +0.061 C 
BRANCH  13  15
ATOM      6  N   UNL     1      -4.010  -9.266  10.162  0.00  0.00    -0.287 NA
ATOM     15  C   UNL     1      -4.924  -9.363  11.070  0.00  0.00    +0.044 C 
ATOM     17  C   UNL     1      -6.352  -9.637  10.766  0.00  0.00    +0.003 A 
ATOM     19  C   UNL     1      -6.770  -9.418   9.447  0.00  0.00    -0.037 A 
ATOM     20  C   UNL     1      -5.770  -8.916   8.448  0.00  0.00    +0.059 C 
ATOM     21  C   UNL     1      -4.402  -9.502   8.768  0.00  0.00    +0.146 C 
ATOM     22  C   UNL     1      -7.258 -10.077  11.732  0.00  0.00    +0.055 A 
ATOM     23  C   UNL     1      -8.111  -9.617   9.106  0.00  0.00    +0.008 A 
ATOM     25  C   UNL     1      -8.592 -10.290  11.378  0.00  0.00    +0.121 A 
ATOM     26  C   UNL     1      -9.018 -10.057  10.070  0.00  0.00    +0.046 A 
BRANCH  25   4
ATOM      4  O   UNL     1      -9.481 -10.730  12.313  0.00  0.00    -0.495 OA
ATOM     29  C   UNL     1     -10.622  -9.910  12.558  0.00  0.00    +0.277 C 
ENDBRANCH  25   4
ENDBRANCH  13  15
ENDBRANCH   8  13
BRANCH   9  14
ATOM     14  C   UNL     1      -5.965 -10.409  14.890  0.00  0.00    +0.124 C 
BRANCH  14  18
ATOM      3  O   UNL     1      -5.984 -10.752  17.303  0.00  0.00    -0.251 OA
ATOM     18  C   UNL     1      -6.196 -10.045  16.330  0.00  0.00    +0.305 C 
BRANCH  18   2
ATOM      2  O   UNL     1      -6.690  -8.782  16.408  0.00  0.00    -0.481 OA
ATOM     31  H   UNL     1      -5.978  -8.108  16.372  0.00  0.00    +0.295 HD
ENDBRANCH  18   2
ENDBRANCH  14  18
ENDBRANCH   9  14
BRANCH   7  24
ATOM     24  C   UNL     1       0.293  -7.913  11.487  0.00  0.00    +0.105 C 
BRANCH  24  27
ATOM     27  C   UNL     1       0.981  -7.069  12.556  0.00  0.00    +0.015 C 
ATOM     28  C   UNL     1       2.419  -6.723  12.196  0.00  0.00    +0.005 C 
ENDBRANCH  24  27
ENDBRANCH   7  24
TORSDOF 8
ENDMDL
MODEL 3
REMARK VINA RESULT:      -1.3      1.601      5.021
REMARK  Name = 51136684
REMARK  10 active torsions:
REMARK  status: ('A' for Active; 'I' for Inactive)
REMARK    1  A    between atoms: O_2  and  C_18
REMARK    2  A    between atoms: O_4  and  C_25
REMARK    3  A    between atoms: O_4  and  C_29
REMARK    4  A    between atoms: N_7  and  C_24
REMARK    5  A    between atoms: C_8  and  C_13
REMARK    6  A    between atoms: C_9  and  C_14
REMARK    7  A    between atoms: C_13  and  C_15
REMARK    8  A    between atoms: C_14  and  C_18
REMARK    9  A    between atoms: C_24  and  C_27
REMARK   10  A    between atoms: C_27  and  C_28
REMARK                            x       y       z     vdW  Elec       q    Type
REMARK                         _______ _______ _______ _____ _____    ______ ____
ROOT
ATOM      1  O   UNL     1      -1.953  -2.671  24.284  0.00  0.00    -0.253 OA
ATOM      5  N   UNL     1      -0.502  -0.995  24.966  0.00  0.00    -0.285 N 
ATOM      7  N   UNL     1      -2.823  -0.865  25.396  0.00  0.00    -0.299 N 
ATOM      8  C   UNL     1       0.463   1.262  24.621  0.00  0.00    +0.016 C 
ATOM      9  C   UNL     1       1.706   0.593  23.976  0.00  0.00    +0.006 C 
ATOM     10  C   UNL     1       1.370  -0.787  23.385  0.00  0.00    +0.023 C 
ATOM     11  C   UNL     1      -0.190   0.286  25.615  0.00  0.00    +0.113 C 
ATOM     12  C   UNL     1       0.666  -1.678  24.408  0.00  0.00    +0.109 C 
ATOM     16  C   UNL     1      -1.771  -1.586  24.846  0.00  0.00    +0.302 C 
ATOM     30  H   UNL     1      -2.687   0.053  25.797  0.00  0.00    +0.150 HD
ENDROOT
BRANCH   8  13
ATOM     13  C   UNL     1      -0.572   1.765  23.608  0.00  0.00    +0.061 C 
BRANCH  13  15
ATOM      6  N   UNL     1      -0.217   4.122  23.895  0.00  0.00    -0.287 NA
ATOM     15  C   UNL     1      -1.051   3.141  24.002  0.00  0.00    +0.044 C 
ATOM     17  C   UNL     1      -2.442   3.300  24.498  0.00  0.00    +0.003 A 
ATOM     19  C   UNL     1      -2.729   4.473  25.206  0.00  0.00    -0.037 A 
ATOM     20  C   UNL     1      -1.630   5.469  25.428  0.00  0.00    +0.059 C 
ATOM     21  C   UNL     1      -0.700   5.468  24.222  0.00  0.00    +0.146 C 
ATOM     22  C   UNL     1      -3.430   2.335  24.294  0.00  0.00    +0.055 A 
ATOM     23  C   UNL     1      -4.009   4.665  25.735  0.00  0.00    +0.008 A 
ATOM     25  C   UNL     1      -4.711   2.543  24.812  0.00  0.00    +0.121 A 
ATOM     26  C   UNL     1      -4.998   3.702  25.532  0.00  0.00    +0.046 A 
BRANCH  25   4
ATOM      4  O   UNL     1      -5.684   1.612  24.608  0.00  0.00    -0.495 OA
ATOM     29  C   UNL     1      -6.610   1.399  25.672  0.00  0.00    +0.277 C 
ENDBRANCH  25   4
ENDBRANCH  13  15
ENDBRANCH   8  13
BRANCH   9  14
ATOM     14  C   UNL     1       2.386   1.476  22.931  0.00  0.00    +0.124 C 
BRANCH  14  18
ATOM      3  O   UNL     1       4.707   0.885  23.384  0.00  0.00    -0.251 OA
ATOM     18  C   UNL     1       3.770   0.985  22.607  0.00  0.00    +0.305 C 
BRANCH  18   2
ATOM      2  O   UNL     1       3.843   0.658  21.291  0.00  0.00    -0.481 OA
ATOM     31  H   UNL     1       4.515  -0.037  21.124  0.00  0.00    +0.295 HD
ENDBRANCH  18   2
ENDBRANCH  14  18
ENDBRANCH   9  14
BRANCH   7  24
ATOM     24  C   UNL     1      -4.189  -1.336  25.345  0.00  0.00    +0.105 C 
BRANCH  24  27
ATOM     27  C   UNL     1      -4.700  -1.480  23.915  0.00  0.00    +0.015 C 
ATOM     28  C   UNL     1      -4.744  -2.928  23.449  0.00  0.00    +0.005 C 
ENDBRANCH  24  27
ENDBRANCH   7  24
TORSDOF 8
ENDMDL
MODEL 4
REMARK VINA RESULT:       0.3      2.049      6.627
REMARK  Name = 51136684
REMARK  10 active torsions:
REMARK  status: ('A' for Active; 'I' for Inactive)
REMARK    1  A    between atoms: O_2  and  C_18
REMARK    2  A    between atoms: O_4  and  C_25
REMARK    3  A    between atoms: O_4  and  C_29
REMARK    4  A    between atoms: N_7  and  C_24
REMARK    5  A    between atoms: C_8  and  C_13
REMARK    6  A    between atoms: C_9  and  C_14
REMARK    7  A    between atoms: C_13  and  C_15
REMARK    8  A    between atoms: C_14  and  C_18
REMARK    9  A    between atoms: C_24  and  C_27
REMARK   10  A    between atoms: C_27  and  C_28
REMARK                            x       y       z     vdW  Elec       q    Type
REMARK                         _______ _______ _______ _____ _____    ______ ____
ROOT
ATOM      1  O   UNL     1      -2.016   5.152  25.661  0.00  0.00    -0.253 OA
ATOM      5  N   UNL     1      -1.381   3.508  24.153  0.00  0.00    -0.285 N 
ATOM      7  N   UNL     1      -3.432   3.380  25.323  0.00  0.00    -0.299 N 
ATOM      8  C   UNL     1      -0.463   1.246  23.726  0.00  0.00    +0.016 C 
ATOM      9  C   UNL     1       0.914   1.898  23.433  0.00  0.00    +0.006 C 
ATOM     10  C   UNL     1       1.065   3.256  24.142  0.00  0.00    +0.023 C 
ATOM     11  C   UNL     1      -1.585   2.252  23.419  0.00  0.00    +0.113 C 
ATOM     12  C   UNL     1      -0.117   4.177  23.844  0.00  0.00    +0.109 C 
ATOM     16  C   UNL     1      -2.260   4.087  25.083  0.00  0.00    +0.302 C 
ATOM     30  H   UNL     1      -3.604   2.478  24.902  0.00  0.00    +0.150 HD
ENDROOT
BRANCH   8  13
ATOM     13  C   UNL     1      -0.607   0.702  25.152  0.00  0.00    +0.061 C 
BRANCH  13  15
ATOM      6  N   UNL     1      -0.290  -1.668  25.369  0.00  0.00    -0.287 NA
ATOM     15  C   UNL     1      -1.124  -0.715  25.112  0.00  0.00    +0.044 C 
ATOM     17  C   UNL     1      -2.552  -0.946  24.777  0.00  0.00    +0.003 A 
ATOM     19  C   UNL     1      -2.904  -2.240  24.371  0.00  0.00    -0.037 A 
ATOM     20  C   UNL     1      -1.832  -3.286  24.290  0.00  0.00    +0.059 C 
ATOM     21  C   UNL     1      -0.806  -3.041  25.388  0.00  0.00    +0.146 C 
ATOM     22  C   UNL     1      -3.515   0.063  24.838  0.00  0.00    +0.055 A 
ATOM     23  C   UNL     1      -4.224  -2.513  24.001  0.00  0.00    +0.008 A 
ATOM     25  C   UNL     1      -4.835  -0.223  24.483  0.00  0.00    +0.121 A 
ATOM     26  C   UNL     1      -5.187  -1.505  24.063  0.00  0.00    +0.046 A 
BRANCH  25   4
ATOM      4  O   UNL     1      -5.782   0.753  24.551  0.00  0.00    -0.495 OA
ATOM     29  C   UNL     1      -6.226   1.136  25.851  0.00  0.00    +0.277 C 
ENDBRANCH  25   4
ENDBRANCH  13  15
ENDBRANCH   8  13
BRANCH   9  14
ATOM     14  C   UNL     1       2.093   0.983  23.764  0.00  0.00    +0.124 C 
BRANCH  14  18
ATOM      3  O   UNL     1       4.037   0.691  22.322  0.00  0.00    -0.251 OA
ATOM     18  C   UNL     1       2.838   0.569  22.526  0.00  0.00    +0.305 C 
BRANCH  18   2
ATOM      2  O   UNL     1       1.973   0.024  21.632  0.00  0.00    -0.481 OA
ATOM     31  H   UNL     1       1.704   0.669  20.943  0.00  0.00    +0.295 HD
ENDBRANCH  18   2
ENDBRANCH  14  18
ENDBRANCH   9  14
BRANCH   7  24
ATOM     24  C   UNL     1      -4.432   3.843  26.258  0.00  0.00    +0.105 C 
BRANCH  24  27
ATOM     27  C   UNL     1      -5.810   3.969  25.618  0.00  0.00    +0.015 C 
ATOM     28  C   UNL     1      -6.188   5.413  25.317  0.00  0.00    +0.005 C 
ENDBRANCH  24  27
ENDBRANCH   7  24
TORSDOF 8
ENDMDL
MODEL 5
REMARK VINA RESULT:       0.6      2.117      5.724
REMARK  Name = 51136684
REMARK  10 active torsions:
REMARK  status: ('A' for Active; 'I' for Inactive)
REMARK    1  A    between atoms: O_2  and  C_18
REMARK    2  A    between atoms: O_4  and  C_25
REMARK    3  A    between atoms: O_4  and  C_29
REMARK    4  A    between atoms: N_7  and  C_24
REMARK    5  A    between atoms: C_8  and  C_13
REMARK    6  A    between atoms: C_9  and  C_14
REMARK    7  A    between atoms: C_13  and  C_15
REMARK    8  A    between atoms: C_14  and  C_18
REMARK    9  A    between atoms: C_24  and  C_27
REMARK   10  A    between atoms: C_27  and  C_28
REMARK                            x       y       z     vdW  Elec       q    Type
REMARK                         _______ _______ _______ _____ _____    ______ ____
ROOT
ATOM      1  O   UNL     1       0.458   4.738  23.499  0.00  0.00    -0.253 OA
ATOM      5  N   UNL     1      -1.052   3.850  25.019  0.00  0.00    -0.285 N 
ATOM      7  N   UNL     1       0.594   2.502  23.987  0.00  0.00    -0.299 N 
ATOM      8  C   UNL     1      -3.112   2.547  25.466  0.00  0.00    +0.016 C 
ATOM      9  C   UNL     1      -3.876   3.884  25.648  0.00  0.00    +0.006 C 
ATOM     10  C   UNL     1      -3.201   5.037  24.885  0.00  0.00    +0.023 C 
ATOM     11  C   UNL     1      -1.626   2.752  25.808  0.00  0.00    +0.113 C 
ATOM     12  C   UNL     1      -1.714   5.139  25.225  0.00  0.00    +0.109 C 
ATOM     16  C   UNL     1       0.030   3.764  24.127  0.00  0.00    +0.302 C 
ATOM     30  H   UNL     1       0.205   1.692  24.449  0.00  0.00    +0.150 HD
ENDROOT
BRANCH   8  13
ATOM     13  C   UNL     1      -3.259   1.927  24.071  0.00  0.00    +0.061 C 
BRANCH  13  15
ATOM      6  N   UNL     1      -4.712   0.038  24.366  0.00  0.00    -0.287 NA
ATOM     15  C   UNL     1      -3.497   0.442  24.191  0.00  0.00    +0.044 C 
ATOM     17  C   UNL     1      -2.334  -0.478  24.111  0.00  0.00    +0.003 A 
ATOM     19  C   UNL     1      -2.520  -1.776  24.603  0.00  0.00    -0.037 A 
ATOM     20  C   UNL     1      -3.854  -2.142  25.182  0.00  0.00    +0.059 C 
ATOM     21  C   UNL     1      -4.951  -1.408  24.423  0.00  0.00    +0.146 C 
ATOM     22  C   UNL     1      -1.098  -0.089  23.590  0.00  0.00    +0.055 A 
ATOM     23  C   UNL     1      -1.452  -2.678  24.595  0.00  0.00    +0.008 A 
ATOM     25  C   UNL     1      -0.042  -1.002  23.570  0.00  0.00    +0.121 A 
ATOM     26  C   UNL     1      -0.217  -2.291  24.073  0.00  0.00    +0.046 A 
BRANCH  25   4
ATOM      4  O   UNL     1       1.163  -0.633  23.053  0.00  0.00    -0.495 OA
ATOM     29  C   UNL     1       1.308  -0.700  21.635  0.00  0.00    +0.277 C 
ENDBRANCH  25   4
ENDBRANCH  13  15
ENDBRANCH   8  13
BRANCH   9  14
ATOM     14  C   UNL     1      -5.356   3.784  25.275  0.00  0.00    +0.124 C 
BRANCH  14  18
ATOM      3  O   UNL     1      -5.992   2.395  27.175  0.00  0.00    -0.251 OA
ATOM     18  C   UNL     1      -6.028   2.637  25.978  0.00  0.00    +0.305 C 
BRANCH  18   2
ATOM      2  O   UNL     1      -6.703   1.880  25.075  0.00  0.00    -0.481 OA
ATOM     31  H   UNL     1      -6.792   0.950  25.371  0.00  0.00    +0.295 HD
ENDBRANCH  18   2
ENDBRANCH  14  18
ENDBRANCH   9  14
BRANCH   7  24
ATOM     24  C   UNL     1       1.708   2.251  23.101  0.00  0.00    +0.105 C 
BRANCH  24  27
ATOM     27  C   UNL     1       2.750   1.329  23.725  0.00  0.00    +0.015 C 
ATOM     28  C   UNL     1       3.952   1.102  22.820  0.00  0.00    +0.005 C 
ENDBRANCH  24  27
ENDBRANCH   7  24
TORSDOF 8
ENDMDL
MODEL 6
REMARK VINA RESULT:       0.8      2.332      3.606
REMARK  Name = 51136684
REMARK  10 active torsions:
REMARK  status: ('A' for Active; 'I' for Inactive)
REMARK    1  A    between atoms: O_2  and  C_18
REMARK    2  A    between atoms: O_4  and  C_25
REMARK    3  A    between atoms: O_4  and  C_29
REMARK    4  A    between atoms: N_7  and  C_24
REMARK    5  A    between atoms: C_8  and  C_13
REMARK    6  A    between atoms: C_9  and  C_14
REMARK    7  A    between atoms: C_13  and  C_15
REMARK    8  A    between atoms: C_14  and  C_18
REMARK    9  A    between atoms: C_24  and  C_27
REMARK   10  A    between atoms: C_27  and  C_28
REMARK                            x       y       z     vdW  Elec       q    Type
REMARK                         _______ _______ _______ _____ _____    ______ ____
ROOT
ATOM      1  O   UNL     1       0.829   2.150  25.903  0.00  0.00    -0.253 OA
ATOM      5  N   UNL     1      -0.005   0.699  24.298  0.00  0.00    -0.285 N 
ATOM      7  N   UNL     1      -0.483   3.014  24.232  0.00  0.00    -0.299 N 
ATOM      8  C   UNL     1      -1.898  -0.621  23.393  0.00  0.00    +0.016 C 
ATOM      9  C   UNL     1      -1.295  -1.882  24.068  0.00  0.00    +0.006 C 
ATOM     10  C   UNL     1      -0.418  -1.518  25.279  0.00  0.00    +0.023 C 
ATOM     11  C   UNL     1      -0.776   0.386  23.087  0.00  0.00    +0.113 C 
ATOM     12  C   UNL     1       0.629  -0.466  24.915  0.00  0.00    +0.109 C 
ATOM     16  C   UNL     1       0.162   1.967  24.879  0.00  0.00    +0.302 C 
ATOM     30  H   UNL     1      -1.082   2.857  23.434  0.00  0.00    +0.150 HD
ENDROOT
BRANCH   8  13
ATOM     13  C   UNL     1      -3.012   0.050  24.206  0.00  0.00    +0.061 C 
BRANCH  13  15
ATOM      6  N   UNL     1      -2.936   1.609  22.381  0.00  0.00    -0.287 NA
ATOM     15  C   UNL     1      -3.406   1.355  23.557  0.00  0.00    +0.044 C 
ATOM     17  C   UNL     1      -4.301   2.280  24.297  0.00  0.00    +0.003 A 
ATOM     19  C   UNL     1      -4.334   3.611  23.861  0.00  0.00    -0.037 A 
ATOM     20  C   UNL     1      -3.467   4.011  22.704  0.00  0.00    +0.059 C 
ATOM     21  C   UNL     1      -3.366   2.849  21.726  0.00  0.00    +0.146 C 
ATOM     22  C   UNL     1      -5.071   1.874  25.388  0.00  0.00    +0.055 A 
ATOM     23  C   UNL     1      -5.124   4.542  24.542  0.00  0.00    +0.008 A 
ATOM     25  C   UNL     1      -5.871   2.807  26.052  0.00  0.00    +0.121 A 
ATOM     26  C   UNL     1      -5.895   4.137  25.632  0.00  0.00    +0.046 A 
BRANCH  25   4
ATOM      4  O   UNL     1      -6.634   2.416  27.110  0.00  0.00    -0.495 OA
ATOM     29  C   UNL     1      -6.736   1.014  27.353  0.00  0.00    +0.277 C 
ENDBRANCH  25   4
ENDBRANCH  13  15
ENDBRANCH   8  13
BRANCH   9  14
ATOM     14  C   UNL     1      -2.352  -2.915  24.459  0.00  0.00    +0.124 C 
BRANCH  14  18
ATOM      3  O   UNL     1      -3.731  -1.708  26.065  0.00  0.00    -0.251 OA
ATOM     18  C   UNL     1      -3.599  -2.261  24.984  0.00  0.00    +0.305 C 
BRANCH  18   2
ATOM      2  O   UNL     1      -4.595  -2.371  24.067  0.00  0.00    -0.481 OA
ATOM     31  H   UNL     1      -4.320  -2.035  23.187  0.00  0.00    +0.295 HD
ENDBRANCH  18   2
ENDBRANCH  14  18
ENDBRANCH   9  14
BRANCH   7  24
ATOM     24  C   UNL     1      -0.413   4.375  24.714  0.00  0.00    +0.105 C 
BRANCH  24  27
ATOM     27  C   UNL     1      -1.699   4.812  25.406  0.00  0.00    +0.015 C 
ATOM     28  C   UNL     1      -2.138   3.846  26.497  0.00  0.00    +0.005 C 
ENDBRANCH  24  27
ENDBRANCH   7  24
TORSDOF 8
ENDMDL
MODEL 7
REMARK VINA RESULT:       0.9      2.212      5.333
REMARK  Name = 51136684
REMARK  10 active torsions:
REMARK  status: ('A' for Active; 'I' for Inactive)
REMARK    1  A    between atoms: O_2  and  C_18
REMARK    2  A    between atoms: O_4  and  C_25
REMARK    3  A    between atoms: O_4  and  C_29
REMARK    4  A    between atoms: N_7  and  C_24
REMARK    5  A    between atoms: C_8  and  C_13
REMARK    6  A    between atoms: C_9  and  C_14
REMARK    7  A    between atoms: C_13  and  C_15
REMARK    8  A    between atoms: C_14  and  C_18
REMARK    9  A    between atoms: C_24  and  C_27
REMARK   10  A    between atoms: C_27  and  C_28
REMARK                            x       y       z     vdW  Elec       q    Type
REMARK                         _______ _______ _______ _____ _____    ______ ____
ROOT
ATOM      1  O   UNL     1       0.291   4.233  23.289  0.00  0.00    -0.253 OA
ATOM      5  N   UNL     1      -1.245   3.901  24.996  0.00  0.00    -0.285 N 
ATOM      7  N   UNL     1       0.484   2.344  24.573  0.00  0.00    -0.299 N 
ATOM      8  C   UNL     1      -3.275   2.761  25.846  0.00  0.00    +0.016 C 
ATOM      9  C   UNL     1      -4.091   4.035  25.503  0.00  0.00    +0.006 C 
ATOM     10  C   UNL     1      -3.426   4.855  24.382  0.00  0.00    +0.023 C 
ATOM     11  C   UNL     1      -1.811   3.146  26.122  0.00  0.00    +0.113 C 
ATOM     12  C   UNL     1      -1.958   5.142  24.695  0.00  0.00    +0.109 C 
ATOM     16  C   UNL     1      -0.127   3.541  24.224  0.00  0.00    +0.302 C 
ATOM     30  H   UNL     1       0.106   1.744  25.294  0.00  0.00    +0.150 HD
ENDROOT
BRANCH   8  13
ATOM     13  C   UNL     1      -3.347   1.665  24.777  0.00  0.00    +0.061 C 
BRANCH  13  15
ATOM      6  N   UNL     1      -1.452   0.729  25.917  0.00  0.00    -0.287 NA
ATOM     15  C   UNL     1      -2.490   0.492  25.185  0.00  0.00    +0.044 C 
ATOM     17  C   UNL     1      -2.872  -0.868  24.724  0.00  0.00    +0.003 A 
ATOM     19  C   UNL     1      -1.881  -1.855  24.780  0.00  0.00    -0.037 A 
ATOM     20  C   UNL     1      -0.518  -1.480  25.280  0.00  0.00    +0.059 C 
ATOM     21  C   UNL     1      -0.653  -0.417  26.363  0.00  0.00    +0.146 C 
ATOM     22  C   UNL     1      -4.146  -1.170  24.239  0.00  0.00    +0.055 A 
ATOM     23  C   UNL     1      -2.164  -3.146  24.322  0.00  0.00    +0.008 A 
ATOM     25  C   UNL     1      -4.425  -2.466  23.799  0.00  0.00    +0.121 A 
ATOM     26  C   UNL     1      -3.437  -3.449  23.838  0.00  0.00    +0.046 A 
BRANCH  25   4
ATOM      4  O   UNL     1      -5.669  -2.772  23.335  0.00  0.00    -0.495 OA
ATOM     29  C   UNL     1      -5.796  -3.961  22.557  0.00  0.00    +0.277 C 
ENDBRANCH  25   4
ENDBRANCH  13  15
ENDBRANCH   8  13
BRANCH   9  14
ATOM     14  C   UNL     1      -5.551   3.737  25.160  0.00  0.00    +0.124 C 
BRANCH  14  18
ATOM      3  O   UNL     1      -6.017   2.407  27.149  0.00  0.00    -0.251 OA
ATOM     18  C   UNL     1      -6.074   2.562  25.938  0.00  0.00    +0.305 C 
BRANCH  18   2
ATOM      2  O   UNL     1      -6.638   1.665  25.089  0.00  0.00    -0.481 OA
ATOM     31  H   UNL     1      -5.965   1.205  24.543  0.00  0.00    +0.295 HD
ENDBRANCH  18   2
ENDBRANCH  14  18
ENDBRANCH   9  14
BRANCH   7  24
ATOM     24  C   UNL     1       1.639   1.835  23.869  0.00  0.00    +0.105 C 
BRANCH  24  27
ATOM     27  C   UNL     1       1.355   0.510  23.169  0.00  0.00    +0.015 C 
ATOM     28  C   UNL     1       2.562  -0.027  22.414  0.00  0.00    +0.005 C 
ENDBRANCH  24  27
ENDBRANCH   7  24
TORSDOF 8
ENDMDL
MODEL 8
REMARK VINA RESULT:       1.3      2.014      5.430
REMARK  Name = 51136684
REMARK  10 active torsions:
REMARK  status: ('A' for Active; 'I' for Inactive)
REMARK    1  A    between atoms: O_2  and  C_18
REMARK    2  A    between atoms: O_4  and  C_25
REMARK    3  A    between atoms: O_4  and  C_29
REMARK    4  A    between atoms: N_7  and  C_24
REMARK    5  A    between atoms: C_8  and  C_13
REMARK    6  A    between atoms: C_9  and  C_14
REMARK    7  A    between atoms: C_13  and  C_15
REMARK    8  A    between atoms: C_14  and  C_18
REMARK    9  A    between atoms: C_24  and  C_27
REMARK   10  A    between atoms: C_27  and  C_28
REMARK                            x       y       z     vdW  Elec       q    Type
REMARK                         _______ _______ _______ _____ _____    ______ ____
ROOT
ATOM      1  O   UNL     1      -3.794  -1.884  23.829  0.00  0.00    -0.253 OA
ATOM      5  N   UNL     1      -1.575  -1.547  24.416  0.00  0.00    -0.285 N 
ATOM      7  N   UNL     1      -3.327  -0.408  25.521  0.00  0.00    -0.299 N 
ATOM      8  C   UNL     1       0.469  -0.149  24.318  0.00  0.00    +0.016 C 
ATOM      9  C   UNL     1       1.014  -1.084  23.207  0.00  0.00    +0.006 C 
ATOM     10  C   UNL     1      -0.123  -1.790  22.446  0.00  0.00    +0.023 C 
ATOM     11  C   UNL     1      -0.509  -0.928  25.215  0.00  0.00    +0.113 C 
ATOM     12  C   UNL     1      -1.089  -2.486  23.404  0.00  0.00    +0.109 C 
ATOM     16  C   UNL     1      -2.956  -1.320  24.541  0.00  0.00    +0.302 C 
ATOM     30  H   UNL     1      -2.642   0.103  26.059  0.00  0.00    +0.150 HD
ENDROOT
BRANCH   8  13
ATOM     13  C   UNL     1      -0.193   1.130  23.790  0.00  0.00    +0.061 C 
BRANCH  13  15
ATOM      6  N   UNL     1       0.483   2.170  25.846  0.00  0.00    -0.287 NA
ATOM     15  C   UNL     1      -0.421   2.098  24.926  0.00  0.00    +0.044 C 
ATOM     17  C   UNL     1      -1.665   2.908  24.936  0.00  0.00    +0.003 A 
ATOM     19  C   UNL     1      -2.030   3.489  26.157  0.00  0.00    -0.037 A 
ATOM     20  C   UNL     1      -1.164   3.247  27.358  0.00  0.00    +0.059 C 
ATOM     21  C   UNL     1       0.291   3.153  26.917  0.00  0.00    +0.146 C 
ATOM     22  C   UNL     1      -2.460   3.086  23.802  0.00  0.00    +0.055 A 
ATOM     23  C   UNL     1      -3.213   4.229  26.244  0.00  0.00    +0.008 A 
ATOM     25  C   UNL     1      -3.631   3.842  23.894  0.00  0.00    +0.121 A 
ATOM     26  C   UNL     1      -4.007   4.409  25.112  0.00  0.00    +0.046 A 
BRANCH  25   4
ATOM      4  O   UNL     1      -4.405   4.029  22.790  0.00  0.00    -0.495 OA
ATOM     29  C   UNL     1      -3.989   3.383  21.589  0.00  0.00    +0.277 C 
ENDBRANCH  25   4
ENDBRANCH  13  15
ENDBRANCH   8  13
BRANCH   9  14
ATOM     14  C   UNL     1       1.954  -0.374  22.234  0.00  0.00    +0.124 C 
BRANCH  14  18
ATOM      3  O   UNL     1       3.655   1.217  22.956  0.00  0.00    -0.251 OA
ATOM     18  C   UNL     1       3.218   0.077  22.913  0.00  0.00    +0.305 C 
BRANCH  18   2
ATOM      2  O   UNL     1       3.830  -0.988  23.493  0.00  0.00    -0.481 OA
ATOM     31  H   UNL     1       3.345  -1.303  24.285  0.00  0.00    +0.295 HD
ENDBRANCH  18   2
ENDBRANCH  14  18
ENDBRANCH   9  14
BRANCH   7  24
ATOM     24  C   UNL     1      -4.709  -0.062  25.766  0.00  0.00    +0.105 C 
BRANCH  24  27
ATOM     27  C   UNL     1      -5.191   1.074  24.870  0.00  0.00    +0.015 C 
ATOM     28  C   UNL     1      -6.293   1.904  25.513  0.00  0.00    +0.005 C 
ENDBRANCH  24  27
ENDBRANCH   7  24
TORSDOF 8
ENDMDL
MODEL 9
REMARK VINA RESULT:       1.5      2.344      5.824
REMARK  Name = 51136684
REMARK  10 active torsions:
REMARK  status: ('A' for Active; 'I' for Inactive)
REMARK    1  A    between atoms: O_2  and  C_18
REMARK    2  A    between atoms: O_4  and  C_25
REMARK    3  A    between atoms: O_4  and  C_29
REMARK    4  A    between atoms: N_7  and  C_24
REMARK    5  A    between atoms: C_8  and  C_13
REMARK    6  A    between atoms: C_9  and  C_14
REMARK    7  A    between atoms: C_13  and  C_15
REMARK    8  A    between atoms: C_14  and  C_18
REMARK    9  A    between atoms: C_24  and  C_27
REMARK   10  A    between atoms: C_27  and  C_28
REMARK                            x       y       z     vdW  Elec       q    Type
REMARK                         _______ _______ _______ _____ _____    ______ ____
ROOT
ATOM      1  O   UNL     1      -4.129  -2.120  24.219  0.00  0.00    -0.253 OA
ATOM      5  N   UNL     1      -2.116  -1.050  24.651  0.00  0.00    -0.285 N 
ATOM      7  N   UNL     1      -4.181   0.081  24.860  0.00  0.00    -0.299 N 
ATOM      8  C   UNL     1      -0.326   0.501  23.922  0.00  0.00    +0.016 C 
ATOM      9  C   UNL     1       0.533  -0.729  23.530  0.00  0.00    +0.006 C 
ATOM     10  C   UNL     1      -0.339  -1.958  23.214  0.00  0.00    +0.023 C 
ATOM     11  C   UNL     1      -1.305   0.111  25.042  0.00  0.00    +0.113 C 
ATOM     12  C   UNL     1      -1.331  -2.245  24.341  0.00  0.00    +0.109 C 
ATOM     16  C   UNL     1      -3.517  -1.100  24.556  0.00  0.00    +0.302 C 
ATOM     30  H   UNL     1      -3.681   0.934  25.071  0.00  0.00    +0.150 HD
ENDROOT
BRANCH   8  13
ATOM     13  C   UNL     1      -1.082   1.136  22.748  0.00  0.00    +0.061 C 
BRANCH  13  15
ATOM      6  N   UNL     1      -3.183   2.275  22.523  0.00  0.00    -0.287 NA
ATOM     15  C   UNL     1      -2.148   2.069  23.268  0.00  0.00    +0.044 C 
ATOM     17  C   UNL     1      -1.954   2.708  24.595  0.00  0.00    +0.003 A 
ATOM     19  C   UNL     1      -2.737   3.835  24.873  0.00  0.00    -0.037 A 
ATOM     20  C   UNL     1      -3.692   4.325  23.826  0.00  0.00    +0.059 C 
ATOM     21  C   UNL     1      -4.247   3.135  23.054  0.00  0.00    +0.146 C 
ATOM     22  C   UNL     1      -1.033   2.236  25.532  0.00  0.00    +0.055 A 
ATOM     23  C   UNL     1      -2.574   4.507  26.088  0.00  0.00    +0.008 A 
ATOM     25  C   UNL     1      -0.888   2.904  26.750  0.00  0.00    +0.121 A 
ATOM     26  C   UNL     1      -1.654   4.037  27.026  0.00  0.00    +0.046 A 
BRANCH  25   4
ATOM      4  O   UNL     1       0.000   2.444  27.675  0.00  0.00    -0.495 OA
ATOM     29  C   UNL     1       1.348   2.896  27.559  0.00  0.00    +0.277 C 
ENDBRANCH  25   4
ENDBRANCH  13  15
ENDBRANCH   8  13
BRANCH   9  14
ATOM     14  C   UNL     1       1.500  -0.444  22.381  0.00  0.00    +0.124 C 
BRANCH  14  18
ATOM      3  O   UNL     1       3.300   1.151  22.780  0.00  0.00    -0.251 OA
ATOM     18  C   UNL     1       2.836   0.025  22.885  0.00  0.00    +0.305 C 
BRANCH  18   2
ATOM      2  O   UNL     1       3.483  -1.003  23.492  0.00  0.00    -0.481 OA
ATOM     31  H   UNL     1       3.143  -1.164  24.398  0.00  0.00    +0.295 HD
ENDBRANCH  18   2
ENDBRANCH  14  18
ENDBRANCH   9  14
BRANCH   7  24
ATOM     24  C   UNL     1      -5.621   0.191  24.801  0.00  0.00    +0.105 C 
BRANCH  24  27
ATOM     27  C   UNL     1      -6.098   1.636  24.904  0.00  0.00    +0.015 C 
ATOM     28  C   UNL     1      -5.756   2.274  26.243  0.00  0.00    +0.005 C 
ENDBRANCH  24  27
ENDBRANCH   7  24
TORSDOF 8
ENDMDL
MODEL 10
REMARK VINA RESULT:       1.7      1.979      5.104
REMARK  Name = 51136684
REMARK  10 active torsions:
REMARK  status: ('A' for Active; 'I' for Inactive)
REMARK    1  A    between atoms: O_2  and  C_18
REMARK    2  A    between atoms: O_4  and  C_25
REMARK    3  A    between atoms: O_4  and  C_29
REMARK    4  A    between atoms: N_7  and  C_24
REMARK    5  A    between atoms: C_8  and  C_13
REMARK    6  A    between atoms: C_9  and  C_14
REMARK    7  A    between atoms: C_13  and  C_15
REMARK    8  A    between atoms: C_14  and  C_18
REMARK    9  A    between atoms: C_24  and  C_27
REMARK   10  A    between atoms: C_27  and  C_28
REMARK                            x       y       z     vdW  Elec       q    Type
REMARK                         _______ _______ _______ _____ _____    ______ ____
ROOT
ATOM      1  O   UNL     1       2.148   2.545  23.272  0.00  0.00    -0.253 OA
ATOM      5  N   UNL     1       0.464   2.564  24.867  0.00  0.00    -0.285 N 
ATOM      7  N   UNL     1       0.985   0.605  23.651  0.00  0.00    -0.299 N 
ATOM      8  C   UNL     1      -1.952   2.648  25.418  0.00  0.00    +0.016 C 
ATOM      9  C   UNL     1      -1.795   4.162  25.718  0.00  0.00    +0.006 C 
ATOM     10  C   UNL     1      -0.608   4.776  24.955  0.00  0.00    +0.023 C 
ATOM     11  C   UNL     1      -0.608   1.935  25.651  0.00  0.00    +0.113 C 
ATOM     12  C   UNL     1       0.676   3.978  25.181  0.00  0.00    +0.109 C 
ATOM     16  C   UNL     1       1.261   1.946  23.890  0.00  0.00    +0.302 C 
ATOM     30  H   UNL     1       0.219   0.130  24.106  0.00  0.00    +0.150 HD
ENDROOT
BRANCH   8  13
ATOM     13  C   UNL     1      -2.484   2.340  24.014  0.00  0.00    +0.061 C 
BRANCH  13  15
ATOM      6  N   UNL     1      -4.848   1.917  23.995  0.00  0.00    -0.287 NA
ATOM     15  C   UNL     1      -3.666   1.406  24.106  0.00  0.00    +0.044 C 
ATOM     17  C   UNL     1      -3.418  -0.042  24.324  0.00  0.00    +0.003 A 
ATOM     19  C   UNL     1      -4.498  -0.805  24.785  0.00  0.00    -0.037 A 
ATOM     20  C   UNL     1      -5.808  -0.119  25.038  0.00  0.00    +0.059 C 
ATOM     21  C   UNL     1      -5.994   1.002  24.025  0.00  0.00    +0.146 C 
ATOM     22  C   UNL     1      -2.175  -0.637  24.103  0.00  0.00    +0.055 A 
ATOM     23  C   UNL     1      -4.320  -2.166  25.051  0.00  0.00    +0.008 A 
ATOM     25  C   UNL     1      -2.010  -2.000  24.355  0.00  0.00    +0.121 A 
ATOM     26  C   UNL     1      -3.078  -2.761  24.830  0.00  0.00    +0.046 A 
BRANCH  25   4
ATOM      4  O   UNL     1      -0.802  -2.590  24.131  0.00  0.00    -0.495 OA
ATOM     29  C   UNL     1       0.173  -2.481  25.166  0.00  0.00    +0.277 C 
ENDBRANCH  25   4
ENDBRANCH  13  15
ENDBRANCH   8  13
BRANCH   9  14
ATOM     14  C   UNL     1      -3.073   4.959  25.459  0.00  0.00    +0.124 C 
BRANCH  14  18
ATOM      3  O   UNL     1      -4.298   3.871  27.265  0.00  0.00    -0.251 OA
ATOM     18  C   UNL     1      -4.263   4.334  26.135  0.00  0.00    +0.305 C 
BRANCH  18   2
ATOM      2  O   UNL     1      -5.328   4.353  25.293  0.00  0.00    -0.481 OA
ATOM     31  H   UNL     1      -5.153   3.850  24.470  0.00  0.00    +0.295 HD
ENDBRANCH  18   2
ENDBRANCH  14  18
ENDBRANCH   9  14
BRANCH   7  24
ATOM     24  C   UNL     1       1.714  -0.167  22.670  0.00  0.00    +0.105 C 
BRANCH  24  27
ATOM     27  C   UNL     1       3.074  -0.625  23.185  0.00  0.00    +0.015 C 
ATOM     28  C   UNL     1       4.204   0.307  22.771  0.00  0.00    +0.005 C 
ENDBRANCH  24  27
ENDBRANCH   7  24
TORSDOF 8
ENDMDL
