MODEL 1
REMARK VINA RESULT:      -3.2      0.000      0.000
REMARK  Name = 56775490
REMARK  6 active torsions:
REMARK  status: ('A' for Active; 'I' for Inactive)
REMARK    1  A    between atoms: N_6  and  C_8
REMARK    2  A    between atoms: N_6  and  C_12
REMARK    3  A    between atoms: C_8  and  C_11
REMARK    4  A    between atoms: C_11  and  C_13
REMARK    5  A    between atoms: C_12  and  C_14
REMARK    6  A    between atoms: C_17  and  C_22
REMARK                            x       y       z     vdW  Elec       q    Type
REMARK                         _______ _______ _______ _____ _____    ______ ____
ROOT
ATOM      2  O   UNL     1      -6.212   3.689  25.790  0.00  0.00    -0.376 OA
ATOM      8  C   UNL     1      -4.632   2.641  24.812  0.00  0.00    +0.072 C 
ATOM      9  C   UNL     1      -4.771   3.804  25.788  0.00  0.00    +0.184 C 
ATOM     10  C   UNL     1      -6.156   2.644  24.793  0.00  0.00    +0.184 C 
ENDROOT
BRANCH   8   6
ATOM      6  N   UNL     1      -4.172   1.461  25.548  0.00  0.00    -0.302 NA
ATOM     29  H   UNL     1      -4.275   1.515  26.561  0.00  0.00    +0.123 HD
BRANCH   6  12
ATOM     12  C   UNL     1      -4.872   0.277  25.042  0.00  0.00    +0.120 C 
BRANCH  12  14
ATOM      4  O   UNL     1      -2.077   0.087  26.012  0.00  0.00    -0.452 OA
ATOM      5  O   UNL     1      -0.576  -1.739  25.544  0.00  0.00    -0.453 OA
ATOM     14  C   UNL     1      -3.947  -0.851  24.753  0.00  0.00    +0.012 A 
ATOM     16  C   UNL     1      -2.655  -0.872  25.239  0.00  0.00    +0.171 A 
ATOM     18  C   UNL     1      -4.363  -1.933  23.972  0.00  0.00    +0.009 A 
ATOM     19  C   UNL     1      -1.798  -1.915  24.971  0.00  0.00    +0.167 A 
ATOM     20  C   UNL     1      -3.486  -2.997  23.698  0.00  0.00    +0.004 A 
ATOM     21  C   UNL     1      -2.185  -2.994  24.203  0.00  0.00    +0.049 A 
ATOM     23  C   UNL     1      -0.760  -0.469  26.201  0.00  0.00    +0.466 C 
ENDBRANCH  12  14
ENDBRANCH   6  12
ENDBRANCH   8   6
BRANCH   8  11
ATOM     11  C   UNL     1      -3.889   2.855  23.529  0.00  0.00    +0.085 C 
BRANCH  11  13
ATOM      3  O   UNL     1      -0.424   2.679  24.542  0.00  0.00    -0.354 OA
ATOM      7  N   UNL     1      -1.715   3.178  24.657  0.00  0.00    -0.083 NA
ATOM     13  C   UNL     1      -2.414   2.555  23.705  0.00  0.00    +0.086 A 
ATOM     15  C   UNL     1      -1.624   1.660  22.963  0.00  0.00    +0.076 A 
ATOM     17  C   UNL     1      -0.382   1.776  23.529  0.00  0.00    +0.167 A 
BRANCH  17  22
ATOM      1  F   UNL     1       4.572  -0.578  22.595  0.00  0.00    -0.205 F 
ATOM     22  C   UNL     1       0.895   1.169  23.290  0.00  0.00    +0.020 A 
ATOM     24  C   UNL     1       2.057   1.937  23.364  0.00  0.00    +0.014 A 
ATOM     25  C   UNL     1       0.975  -0.189  22.981  0.00  0.00    +0.014 A 
ATOM     26  C   UNL     1       3.299   1.347  23.130  0.00  0.00    +0.039 A 
ATOM     27  C   UNL     1       2.217  -0.779  22.746  0.00  0.00    +0.039 A 
ATOM     28  C   UNL     1       3.379  -0.010  22.821  0.00  0.00    +0.123 A 
ENDBRANCH  17  22
ENDBRANCH  11  13
ENDBRANCH   8  11
TORSDOF 6
ENDMDL
MODEL 2
REMARK VINA RESULT:      -3.0      1.643      2.352
REMARK  Name = 56775490
REMARK  6 active torsions:
REMARK  status: ('A' for Active; 'I' for Inactive)
REMARK    1  A    between atoms: N_6  and  C_8
REMARK    2  A    between atoms: N_6  and  C_12
REMARK    3  A    between atoms: C_8  and  C_11
REMARK    4  A    between atoms: C_11  and  C_13
REMARK    5  A    between atoms: C_12  and  C_14
REMARK    6  A    between atoms: C_17  and  C_22
REMARK                            x       y       z     vdW  Elec       q    Type
REMARK                         _______ _______ _______ _____ _____    ______ ____
ROOT
ATOM      2  O   UNL     1      -2.169   4.788  25.630  0.00  0.00    -0.376 OA
ATOM      8  C   UNL     1      -2.187   2.861  24.712  0.00  0.00    +0.072 C 
ATOM      9  C   UNL     1      -1.151   3.820  25.289  0.00  0.00    +0.184 C 
ATOM     10  C   UNL     1      -3.189   3.969  25.014  0.00  0.00    +0.184 C 
ENDROOT
BRANCH   8   6
ATOM      6  N   UNL     1      -2.394   1.765  25.660  0.00  0.00    -0.302 NA
ATOM     29  H   UNL     1      -2.349   2.029  26.644  0.00  0.00    +0.123 HD
BRANCH   6  12
ATOM     12  C   UNL     1      -3.682   1.125  25.380  0.00  0.00    +0.120 C 
BRANCH  12  14
ATOM      4  O   UNL     1      -1.254  -0.533  25.760  0.00  0.00    -0.452 OA
ATOM      5  O   UNL     1      -1.005  -2.808  25.006  0.00  0.00    -0.453 OA
ATOM     14  C   UNL     1      -3.530  -0.280  24.915  0.00  0.00    +0.012 A 
ATOM     16  C   UNL     1      -2.367  -0.992  25.127  0.00  0.00    +0.171 A 
ATOM     18  C   UNL     1      -4.571  -0.925  24.241  0.00  0.00    +0.009 A 
ATOM     19  C   UNL     1      -2.225  -2.291  24.696  0.00  0.00    +0.167 A 
ATOM     20  C   UNL     1      -4.425  -2.252  23.801  0.00  0.00    +0.004 A 
ATOM     21  C   UNL     1      -3.239  -2.950  24.030  0.00  0.00    +0.049 A 
ATOM     23  C   UNL     1      -0.395  -1.688  25.679  0.00  0.00    +0.466 C 
ENDBRANCH  12  14
ENDBRANCH   6  12
ENDBRANCH   8   6
BRANCH   8  11
ATOM     11  C   UNL     1      -2.031   2.389  23.299  0.00  0.00    +0.085 C 
BRANCH  11  13
ATOM      3  O   UNL     1       0.406  -0.192  22.624  0.00  0.00    -0.354 OA
ATOM      7  N   UNL     1      -0.887   0.314  22.601  0.00  0.00    -0.083 NA
ATOM     13  C   UNL     1      -0.794   1.527  23.153  0.00  0.00    +0.086 A 
ATOM     15  C   UNL     1       0.522   1.837  23.540  0.00  0.00    +0.076 A 
ATOM     17  C   UNL     1       1.236   0.724  23.185  0.00  0.00    +0.167 A 
BRANCH  17  22
ATOM      1  F   UNL     1       6.586  -0.760  23.540  0.00  0.00    -0.205 F 
ATOM     22  C   UNL     1       2.616   0.341  23.275  0.00  0.00    +0.020 A 
ATOM     24  C   UNL     1       2.955  -0.958  23.653  0.00  0.00    +0.014 A 
ATOM     25  C   UNL     1       3.618   1.267  22.987  0.00  0.00    +0.014 A 
ATOM     26  C   UNL     1       4.296  -1.331  23.742  0.00  0.00    +0.039 A 
ATOM     27  C   UNL     1       4.958   0.896  23.076  0.00  0.00    +0.039 A 
ATOM     28  C   UNL     1       5.297  -0.404  23.454  0.00  0.00    +0.123 A 
ENDBRANCH  17  22
ENDBRANCH  11  13
ENDBRANCH   8  11
TORSDOF 6
ENDMDL
MODEL 3
REMARK VINA RESULT:      -1.9      1.694      4.356
REMARK  Name = 56775490
REMARK  6 active torsions:
REMARK  status: ('A' for Active; 'I' for Inactive)
REMARK    1  A    between atoms: N_6  and  C_8
REMARK    2  A    between atoms: N_6  and  C_12
REMARK    3  A    between atoms: C_8  and  C_11
REMARK    4  A    between atoms: C_11  and  C_13
REMARK    5  A    between atoms: C_12  and  C_14
REMARK    6  A    between atoms: C_17  and  C_22
REMARK                            x       y       z     vdW  Elec       q    Type
REMARK                         _______ _______ _______ _____ _____    ______ ____
ROOT
ATOM      2  O   UNL     1      -1.656  -2.887  25.339  0.00  0.00    -0.376 OA
ATOM      8  C   UNL     1      -2.378  -1.036  24.562  0.00  0.00    +0.072 C 
ATOM      9  C   UNL     1      -2.643  -2.522  24.349  0.00  0.00    +0.184 C 
ATOM     10  C   UNL     1      -1.289  -1.500  25.521  0.00  0.00    +0.184 C 
ENDROOT
BRANCH   8   6
ATOM      6  N   UNL     1      -3.481  -0.468  25.339  0.00  0.00    -0.302 NA
ATOM     29  H   UNL     1      -3.201   0.137  26.111  0.00  0.00    +0.123 HD
BRANCH   6  12
ATOM     12  C   UNL     1      -4.377   0.264  24.439  0.00  0.00    +0.120 C 
BRANCH  12  14
ATOM      4  O   UNL     1      -2.376   2.258  25.339  0.00  0.00    -0.452 OA
ATOM      5  O   UNL     1      -2.898   4.464  26.154  0.00  0.00    -0.453 OA
ATOM     14  C   UNL     1      -4.701   1.626  24.941  0.00  0.00    +0.012 A 
ATOM     16  C   UNL     1      -3.715   2.503  25.345  0.00  0.00    +0.171 A 
ATOM     18  C   UNL     1      -6.027   2.060  25.022  0.00  0.00    +0.009 A 
ATOM     19  C   UNL     1      -4.013   3.763  25.811  0.00  0.00    +0.167 A 
ATOM     20  C   UNL     1      -6.331   3.348  25.498  0.00  0.00    +0.004 A 
ATOM     21  C   UNL     1      -5.314   4.216  25.898  0.00  0.00    +0.049 A 
ATOM     23  C   UNL     1      -1.865   3.505  25.853  0.00  0.00    +0.466 C 
ENDBRANCH  12  14
ENDBRANCH   6  12
ENDBRANCH   8   6
BRANCH   8  11
ATOM     11  C   UNL     1      -1.999  -0.191  23.385  0.00  0.00    +0.085 C 
BRANCH  11  13
ATOM      3  O   UNL     1       1.206   1.446  23.712  0.00  0.00    -0.354 OA
ATOM      7  N   UNL     1      -0.182   1.444  23.743  0.00  0.00    -0.083 NA
ATOM     13  C   UNL     1      -0.534   0.190  23.445  0.00  0.00    +0.086 A 
ATOM     15  C   UNL     1       0.580  -0.637  23.218  0.00  0.00    +0.076 A 
ATOM     17  C   UNL     1       1.649   0.201  23.399  0.00  0.00    +0.167 A 
BRANCH  17  22
ATOM      1  F   UNL     1       7.173  -0.402  23.132  0.00  0.00    -0.205 F 
ATOM     22  C   UNL     1       3.073   0.046  23.331  0.00  0.00    +0.020 A 
ATOM     24  C   UNL     1       3.863   1.076  22.820  0.00  0.00    +0.014 A 
ATOM     25  C   UNL     1       3.668  -1.135  23.775  0.00  0.00    +0.014 A 
ATOM     26  C   UNL     1       5.248   0.925  22.753  0.00  0.00    +0.039 A 
ATOM     27  C   UNL     1       5.052  -1.286  23.707  0.00  0.00    +0.039 A 
ATOM     28  C   UNL     1       5.842  -0.256  23.197  0.00  0.00    +0.123 A 
ENDBRANCH  17  22
ENDBRANCH  11  13
ENDBRANCH   8  11
TORSDOF 6
ENDMDL
MODEL 4
REMARK VINA RESULT:      -1.8     17.570     19.640
REMARK  Name = 56775490
REMARK  6 active torsions:
REMARK  status: ('A' for Active; 'I' for Inactive)
REMARK    1  A    between atoms: N_6  and  C_8
REMARK    2  A    between atoms: N_6  and  C_12
REMARK    3  A    between atoms: C_8  and  C_11
REMARK    4  A    between atoms: C_11  and  C_13
REMARK    5  A    between atoms: C_12  and  C_14
REMARK    6  A    between atoms: C_17  and  C_22
REMARK                            x       y       z     vdW  Elec       q    Type
REMARK                         _______ _______ _______ _____ _____    ______ ____
ROOT
ATOM      2  O   UNL     1      11.898  -5.035  31.192  0.00  0.00    -0.376 OA
ATOM      8  C   UNL     1      13.397  -6.155  32.218  0.00  0.00    +0.072 C 
ATOM      9  C   UNL     1      12.403  -5.045  32.546  0.00  0.00    +0.184 C 
ATOM     10  C   UNL     1      12.879  -6.018  30.791  0.00  0.00    +0.184 C 
ENDROOT
BRANCH   8   6
ATOM      6  N   UNL     1      12.902  -7.412  32.782  0.00  0.00    -0.302 NA
ATOM     29  H   UNL     1      12.094  -7.812  32.306  0.00  0.00    +0.123 HD
BRANCH   6  12
ATOM     12  C   UNL     1      13.994  -8.389  32.807  0.00  0.00    +0.120 C 
BRANCH  12  14
ATOM      4  O   UNL     1      16.472  -9.053  31.322  0.00  0.00    -0.452 OA
ATOM      5  O   UNL     1      16.563 -10.388  29.319  0.00  0.00    -0.453 OA
ATOM     14  C   UNL     1      14.049  -9.214  31.571  0.00  0.00    +0.012 A 
ATOM     16  C   UNL     1      15.241  -9.483  30.931  0.00  0.00    +0.171 A 
ATOM     18  C   UNL     1      12.881  -9.745  31.015  0.00  0.00    +0.009 A 
ATOM     19  C   UNL     1      15.293 -10.245  29.787  0.00  0.00    +0.167 A 
ATOM     20  C   UNL     1      12.935 -10.524  29.846  0.00  0.00    +0.004 A 
ATOM     21  C   UNL     1      14.155 -10.781  29.219  0.00  0.00    +0.049 A 
ATOM     23  C   UNL     1      17.304  -9.631  30.296  0.00  0.00    +0.466 C 
ENDBRANCH  12  14
ENDBRANCH   6  12
ENDBRANCH   8   6
BRANCH   8  11
ATOM     11  C   UNL     1      14.853  -5.927  32.488  0.00  0.00    +0.085 C 
BRANCH  11  13
ATOM      3  O   UNL     1      17.370  -5.792  29.899  0.00  0.00    -0.354 OA
ATOM      7  N   UNL     1      16.964  -5.710  31.225  0.00  0.00    -0.083 NA
ATOM     13  C   UNL     1      15.648  -5.939  31.199  0.00  0.00    +0.086 A 
ATOM     15  C   UNL     1      15.172  -6.168  29.897  0.00  0.00    +0.076 A 
ATOM     17  C   UNL     1      16.294  -6.065  29.118  0.00  0.00    +0.167 A 
BRANCH  17  22
ATOM      1  F   UNL     1      17.319  -6.517  23.668  0.00  0.00    -0.205 F 
ATOM     22  C   UNL     1      16.559  -6.182  27.713  0.00  0.00    +0.020 A 
ATOM     24  C   UNL     1      17.073  -5.093  27.007  0.00  0.00    +0.014 A 
ATOM     25  C   UNL     1      16.303  -7.383  27.052  0.00  0.00    +0.014 A 
ATOM     26  C   UNL     1      17.330  -5.206  25.641  0.00  0.00    +0.039 A 
ATOM     27  C   UNL     1      16.559  -7.496  25.686  0.00  0.00    +0.039 A 
ATOM     28  C   UNL     1      17.072  -6.408  24.981  0.00  0.00    +0.123 A 
ENDBRANCH  17  22
ENDBRANCH  11  13
ENDBRANCH   8  11
TORSDOF 6
ENDMDL
MODEL 5
REMARK VINA RESULT:      -1.5      1.968      4.264
REMARK  Name = 56775490
REMARK  6 active torsions:
REMARK  status: ('A' for Active; 'I' for Inactive)
REMARK    1  A    between atoms: N_6  and  C_8
REMARK    2  A    between atoms: N_6  and  C_12
REMARK    3  A    between atoms: C_8  and  C_11
REMARK    4  A    between atoms: C_11  and  C_13
REMARK    5  A    between atoms: C_12  and  C_14
REMARK    6  A    between atoms: C_17  and  C_22
REMARK                            x       y       z     vdW  Elec       q    Type
REMARK                         _______ _______ _______ _____ _____    ______ ____
ROOT
ATOM      2  O   UNL     1      -4.175  -2.978  24.374  0.00  0.00    -0.376 OA
ATOM      8  C   UNL     1      -3.188  -1.091  24.227  0.00  0.00    +0.072 C 
ATOM      9  C   UNL     1      -4.531  -1.691  23.822  0.00  0.00    +0.184 C 
ATOM     10  C   UNL     1      -2.849  -2.499  24.700  0.00  0.00    +0.184 C 
ENDROOT
BRANCH   8   6
ATOM      6  N   UNL     1      -3.389  -0.235  25.398  0.00  0.00    -0.302 NA
ATOM     29  H   UNL     1      -2.536   0.132  25.818  0.00  0.00    +0.123 HD
BRANCH   6  12
ATOM     12  C   UNL     1      -4.277   0.873  25.036  0.00  0.00    +0.120 C 
BRANCH  12  14
ATOM      4  O   UNL     1      -1.448   1.285  25.818  0.00  0.00    -0.452 OA
ATOM      5  O   UNL     1      -0.319   3.414  25.839  0.00  0.00    -0.453 OA
ATOM     14  C   UNL     1      -3.581   2.187  25.048  0.00  0.00    +0.012 A 
ATOM     16  C   UNL     1      -2.259   2.304  25.425  0.00  0.00    +0.171 A 
ATOM     18  C   UNL     1      -4.255   3.355  24.676  0.00  0.00    +0.009 A 
ATOM     19  C   UNL     1      -1.614   3.520  25.438  0.00  0.00    +0.167 A 
ATOM     20  C   UNL     1      -3.595   4.596  24.689  0.00  0.00    +0.004 A 
ATOM     21  C   UNL     1      -2.256   4.686  25.074  0.00  0.00    +0.049 A 
ATOM     23  C   UNL     1      -0.220   1.995  26.078  0.00  0.00    +0.466 C 
ENDBRANCH  12  14
ENDBRANCH   6  12
ENDBRANCH   8   6
BRANCH   8  11
ATOM     11  C   UNL     1      -2.333  -0.452  23.177  0.00  0.00    +0.085 C 
BRANCH  11  13
ATOM      3  O   UNL     1       0.895  -1.309  24.555  0.00  0.00    -0.354 OA
ATOM      7  N   UNL     1      -0.492  -1.375  24.539  0.00  0.00    -0.083 NA
ATOM     13  C   UNL     1      -0.864  -0.617  23.504  0.00  0.00    +0.086 A 
ATOM     15  C   UNL     1       0.236  -0.051  22.836  0.00  0.00    +0.076 A 
ATOM     17  C   UNL     1       1.317  -0.517  23.535  0.00  0.00    +0.167 A 
BRANCH  17  22
ATOM      1  F   UNL     1       6.827   0.118  23.097  0.00  0.00    -0.205 F 
ATOM     22  C   UNL     1       2.738  -0.354  23.421  0.00  0.00    +0.020 A 
ATOM     24  C   UNL     1       3.593  -1.365  23.858  0.00  0.00    +0.014 A 
ATOM     25  C   UNL     1       3.264   0.816  22.874  0.00  0.00    +0.014 A 
ATOM     26  C   UNL     1       4.974  -1.207  23.748  0.00  0.00    +0.039 A 
ATOM     27  C   UNL     1       4.644   0.976  22.765  0.00  0.00    +0.039 A 
ATOM     28  C   UNL     1       5.500  -0.036  23.202  0.00  0.00    +0.123 A 
ENDBRANCH  17  22
ENDBRANCH  11  13
ENDBRANCH   8  11
TORSDOF 6
ENDMDL
MODEL 6
REMARK VINA RESULT:      -1.3     17.468     19.539
REMARK  Name = 56775490
REMARK  6 active torsions:
REMARK  status: ('A' for Active; 'I' for Inactive)
REMARK    1  A    between atoms: N_6  and  C_8
REMARK    2  A    between atoms: N_6  and  C_12
REMARK    3  A    between atoms: C_8  and  C_11
REMARK    4  A    between atoms: C_11  and  C_13
REMARK    5  A    between atoms: C_12  and  C_14
REMARK    6  A    between atoms: C_17  and  C_22
REMARK                            x       y       z     vdW  Elec       q    Type
REMARK                         _______ _______ _______ _____ _____    ______ ____
ROOT
ATOM      2  O   UNL     1      11.417  -5.300  31.614  0.00  0.00    -0.376 OA
ATOM      8  C   UNL     1      13.389  -5.768  32.285  0.00  0.00    +0.072 C 
ATOM      9  C   UNL     1      12.137  -5.107  32.853  0.00  0.00    +0.184 C 
ATOM     10  C   UNL     1      12.598  -5.849  30.985  0.00  0.00    +0.184 C 
ENDROOT
BRANCH   8   6
ATOM      6  N   UNL     1      13.508  -7.113  32.849  0.00  0.00    -0.302 NA
ATOM     29  H   UNL     1      12.896  -7.814  32.433  0.00  0.00    +0.123 HD
BRANCH   6  12
ATOM     12  C   UNL     1      14.903  -7.554  32.749  0.00  0.00    +0.120 C 
BRANCH  12  14
ATOM      4  O   UNL     1      12.706  -9.054  31.441  0.00  0.00    -0.452 OA
ATOM      5  O   UNL     1      13.008 -10.781  29.789  0.00  0.00    -0.453 OA
ATOM     14  C   UNL     1      15.091  -8.619  31.729  0.00  0.00    +0.012 A 
ATOM     16  C   UNL     1      14.018  -9.277  31.161  0.00  0.00    +0.171 A 
ATOM     18  C   UNL     1      16.372  -8.991  31.312  0.00  0.00    +0.009 A 
ATOM     19  C   UNL     1      14.191 -10.264  30.218  0.00  0.00    +0.167 A 
ATOM     20  C   UNL     1      16.548  -9.999  30.349  0.00  0.00    +0.004 A 
ATOM     21  C   UNL     1      15.446 -10.648  29.790  0.00  0.00    +0.049 A 
ATOM     23  C   UNL     1      12.071 -10.010  30.567  0.00  0.00    +0.466 C 
ENDBRANCH  12  14
ENDBRANCH   6  12
ENDBRANCH   8   6
BRANCH   8  11
ATOM     11  C   UNL     1      14.681  -5.010  32.303  0.00  0.00    +0.085 C 
BRANCH  11  13
ATOM      3  O   UNL     1      17.293  -5.631  29.885  0.00  0.00    -0.354 OA
ATOM      7  N   UNL     1      16.849  -5.271  31.151  0.00  0.00    -0.083 NA
ATOM     13  C   UNL     1      15.517  -5.342  31.085  0.00  0.00    +0.086 A 
ATOM     15  C   UNL     1      15.066  -5.736  29.813  0.00  0.00    +0.076 A 
ATOM     17  C   UNL     1      16.222  -5.906  29.097  0.00  0.00    +0.167 A 
BRANCH  17  22
ATOM      1  F   UNL     1      17.398  -7.424  23.875  0.00  0.00    -0.205 F 
ATOM     22  C   UNL     1      16.524  -6.297  27.750  0.00  0.00    +0.020 A 
ATOM     24  C   UNL     1      16.551  -7.649  27.407  0.00  0.00    +0.014 A 
ATOM     25  C   UNL     1      16.791  -5.327  26.785  0.00  0.00    +0.014 A 
ATOM     26  C   UNL     1      16.846  -8.030  26.098  0.00  0.00    +0.039 A 
ATOM     27  C   UNL     1      17.087  -5.707  25.477  0.00  0.00    +0.039 A 
ATOM     28  C   UNL     1      17.114  -7.059  25.133  0.00  0.00    +0.123 A 
ENDBRANCH  17  22
ENDBRANCH  11  13
ENDBRANCH   8  11
TORSDOF 6
ENDMDL
MODEL 7
REMARK VINA RESULT:      -1.3      1.513      2.298
REMARK  Name = 56775490
REMARK  6 active torsions:
REMARK  status: ('A' for Active; 'I' for Inactive)
REMARK    1  A    between atoms: N_6  and  C_8
REMARK    2  A    between atoms: N_6  and  C_12
REMARK    3  A    between atoms: C_8  and  C_11
REMARK    4  A    between atoms: C_11  and  C_13
REMARK    5  A    between atoms: C_12  and  C_14
REMARK    6  A    between atoms: C_17  and  C_22
REMARK                            x       y       z     vdW  Elec       q    Type
REMARK                         _______ _______ _______ _____ _____    ______ ____
ROOT
ATOM      2  O   UNL     1      -5.812   3.920  25.332  0.00  0.00    -0.376 OA
ATOM      8  C   UNL     1      -3.744   3.394  25.306  0.00  0.00    +0.072 C 
ATOM      9  C   UNL     1      -4.918   3.285  26.274  0.00  0.00    +0.184 C 
ATOM     10  C   UNL     1      -4.722   4.140  24.407  0.00  0.00    +0.184 C 
ENDROOT
BRANCH   8   6
ATOM      6  N   UNL     1      -3.486   2.073  24.730  0.00  0.00    -0.302 NA
ATOM     29  H   UNL     1      -2.609   1.988  24.216  0.00  0.00    +0.123 HD
BRANCH   6  12
ATOM     12  C   UNL     1      -3.533   1.066  25.794  0.00  0.00    +0.120 C 
BRANCH  12  14
ATOM      4  O   UNL     1      -4.618  -1.181  24.195  0.00  0.00    -0.452 OA
ATOM      5  O   UNL     1      -3.402  -3.183  23.628  0.00  0.00    -0.453 OA
ATOM     14  C   UNL     1      -2.782  -0.168  25.444  0.00  0.00    +0.012 A 
ATOM     16  C   UNL     1      -3.352  -1.177  24.695  0.00  0.00    +0.171 A 
ATOM     18  C   UNL     1      -1.462  -0.346  25.872  0.00  0.00    +0.009 A 
ATOM     19  C   UNL     1      -2.658  -2.320  24.371  0.00  0.00    +0.167 A 
ATOM     20  C   UNL     1      -0.754  -1.514  25.541  0.00  0.00    +0.004 A 
ATOM     21  C   UNL     1      -1.355  -2.518  24.780  0.00  0.00    +0.049 A 
ATOM     23  C   UNL     1      -4.642  -2.456  23.520  0.00  0.00    +0.466 C 
ENDBRANCH  12  14
ENDBRANCH   6  12
ENDBRANCH   8   6
BRANCH   8  11
ATOM     11  C   UNL     1      -2.495   4.088  25.756  0.00  0.00    +0.085 C 
BRANCH  11  13
ATOM      3  O   UNL     1       0.538   2.124  25.755  0.00  0.00    -0.354 OA
ATOM      7  N   UNL     1      -0.467   2.834  26.399  0.00  0.00    -0.083 NA
ATOM     13  C   UNL     1      -1.270   3.263  25.422  0.00  0.00    +0.086 A 
ATOM     15  C   UNL     1      -0.826   2.858  24.151  0.00  0.00    +0.076 A 
ATOM     17  C   UNL     1       0.313   2.145  24.417  0.00  0.00    +0.167 A 
BRANCH  17  22
ATOM      1  F   UNL     1       4.043  -0.569  21.305  0.00  0.00    -0.205 F 
ATOM     22  C   UNL     1       1.275   1.446  23.613  0.00  0.00    +0.020 A 
ATOM     24  C   UNL     1       0.892   0.311  22.898  0.00  0.00    +0.014 A 
ATOM     25  C   UNL     1       2.592   1.900  23.549  0.00  0.00    +0.014 A 
ATOM     26  C   UNL     1       1.826  -0.369  22.118  0.00  0.00    +0.039 A 
ATOM     27  C   UNL     1       3.526   1.219  22.770  0.00  0.00    +0.039 A 
ATOM     28  C   UNL     1       3.144   0.085  22.054  0.00  0.00    +0.123 A 
ENDBRANCH  17  22
ENDBRANCH  11  13
ENDBRANCH   8  11
TORSDOF 6
ENDMDL
MODEL 8
REMARK VINA RESULT:      -1.0      2.050      4.594
REMARK  Name = 56775490
REMARK  6 active torsions:
REMARK  status: ('A' for Active; 'I' for Inactive)
REMARK    1  A    between atoms: N_6  and  C_8
REMARK    2  A    between atoms: N_6  and  C_12
REMARK    3  A    between atoms: C_8  and  C_11
REMARK    4  A    between atoms: C_11  and  C_13
REMARK    5  A    between atoms: C_12  and  C_14
REMARK    6  A    between atoms: C_17  and  C_22
REMARK                            x       y       z     vdW  Elec       q    Type
REMARK                         _______ _______ _______ _____ _____    ______ ____
ROOT
ATOM      2  O   UNL     1      -4.090  -2.811  24.257  0.00  0.00    -0.376 OA
ATOM      8  C   UNL     1      -3.035  -0.957  24.297  0.00  0.00    +0.072 C 
ATOM      9  C   UNL     1      -4.412  -1.456  23.873  0.00  0.00    +0.184 C 
ATOM     10  C   UNL     1      -2.737  -2.422  24.588  0.00  0.00    +0.184 C 
ENDROOT
BRANCH   8   6
ATOM      6  N   UNL     1      -3.164  -0.240  25.567  0.00  0.00    -0.302 NA
ATOM     29  H   UNL     1      -3.352  -0.827  26.379  0.00  0.00    +0.123 HD
BRANCH   6  12
ATOM     12  C   UNL     1      -1.951   0.550  25.799  0.00  0.00    +0.120 C 
BRANCH  12  14
ATOM      4  O   UNL     1      -4.604   1.849  25.548  0.00  0.00    -0.452 OA
ATOM      5  O   UNL     1      -4.957   4.205  25.190  0.00  0.00    -0.453 OA
ATOM     14  C   UNL     1      -2.168   2.004  25.578  0.00  0.00    +0.012 A 
ATOM     16  C   UNL     1      -3.435   2.541  25.470  0.00  0.00    +0.171 A 
ATOM     18  C   UNL     1      -1.083   2.879  25.470  0.00  0.00    +0.009 A 
ATOM     19  C   UNL     1      -3.637   3.886  25.265  0.00  0.00    +0.167 A 
ATOM     20  C   UNL     1      -1.290   4.254  25.261  0.00  0.00    +0.004 A 
ATOM     21  C   UNL     1      -2.582   4.770  25.157  0.00  0.00    +0.049 A 
ATOM     23  C   UNL     1      -5.564   2.910  25.369  0.00  0.00    +0.466 C 
ENDBRANCH  12  14
ENDBRANCH   6  12
ENDBRANCH   8   6
BRANCH   8  11
ATOM     11  C   UNL     1      -2.189  -0.227  23.299  0.00  0.00    +0.085 C 
BRANCH  11  13
ATOM      3  O   UNL     1       1.040  -1.471  24.338  0.00  0.00    -0.354 OA
ATOM      7  N   UNL     1      -0.348  -1.497  24.347  0.00  0.00    -0.083 NA
ATOM     13  C   UNL     1      -0.719  -0.503  23.535  0.00  0.00    +0.086 A 
ATOM     15  C   UNL     1       0.383   0.179  22.991  0.00  0.00    +0.076 A 
ATOM     17  C   UNL     1       1.464  -0.469  23.527  0.00  0.00    +0.167 A 
BRANCH  17  22
ATOM      1  F   UNL     1       6.980   0.112  23.087  0.00  0.00    -0.205 F 
ATOM     22  C   UNL     1       2.886  -0.319  23.414  0.00  0.00    +0.020 A 
ATOM     24  C   UNL     1       3.423   0.842  22.856  0.00  0.00    +0.014 A 
ATOM     25  C   UNL     1       3.733  -1.333  23.863  0.00  0.00    +0.014 A 
ATOM     26  C   UNL     1       4.806   0.988  22.745  0.00  0.00    +0.039 A 
ATOM     27  C   UNL     1       5.115  -1.188  23.752  0.00  0.00    +0.039 A 
ATOM     28  C   UNL     1       5.651  -0.027  23.193  0.00  0.00    +0.123 A 
ENDBRANCH  17  22
ENDBRANCH  11  13
ENDBRANCH   8  11
TORSDOF 6
ENDMDL
MODEL 9
REMARK VINA RESULT:      -0.4      3.096      6.176
REMARK  Name = 56775490
REMARK  6 active torsions:
REMARK  status: ('A' for Active; 'I' for Inactive)
REMARK    1  A    between atoms: N_6  and  C_8
REMARK    2  A    between atoms: N_6  and  C_12
REMARK    3  A    between atoms: C_8  and  C_11
REMARK    4  A    between atoms: C_11  and  C_13
REMARK    5  A    between atoms: C_12  and  C_14
REMARK    6  A    between atoms: C_17  and  C_22
REMARK                            x       y       z     vdW  Elec       q    Type
REMARK                         _______ _______ _______ _____ _____    ______ ____
ROOT
ATOM      2  O   UNL     1       3.249  -1.096  22.314  0.00  0.00    -0.376 OA
ATOM      8  C   UNL     1       1.793   0.265  23.075  0.00  0.00    +0.072 C 
ATOM      9  C   UNL     1       2.355  -0.132  21.714  0.00  0.00    +0.184 C 
ATOM     10  C   UNL     1       2.828  -0.700  23.639  0.00  0.00    +0.184 C 
ENDROOT
BRANCH   8   6
ATOM      6  N   UNL     1       0.463  -0.329  23.226  0.00  0.00    -0.302 NA
ATOM     29  H   UNL     1       0.158  -0.912  22.448  0.00  0.00    +0.123 HD
BRANCH   6  12
ATOM     12  C   UNL     1       0.421  -1.103  24.470  0.00  0.00    +0.120 C 
BRANCH  12  14
ATOM      4  O   UNL     1      -1.592  -3.027  23.455  0.00  0.00    -0.452 OA
ATOM      5  O   UNL     1      -3.830  -3.265  24.317  0.00  0.00    -0.453 OA
ATOM     14  C   UNL     1      -0.960  -1.249  25.003  0.00  0.00    +0.012 A 
ATOM     16  C   UNL     1      -1.846  -2.169  24.480  0.00  0.00    +0.171 A 
ATOM     18  C   UNL     1      -1.405  -0.449  26.060  0.00  0.00    +0.009 A 
ATOM     19  C   UNL     1      -3.124  -2.304  24.972  0.00  0.00    +0.167 A 
ATOM     20  C   UNL     1      -2.711  -0.588  26.562  0.00  0.00    +0.004 A 
ATOM     21  C   UNL     1      -3.587  -1.528  26.014  0.00  0.00    +0.049 A 
ATOM     23  C   UNL     1      -2.854  -3.719  23.357  0.00  0.00    +0.466 C 
ENDBRANCH  12  14
ENDBRANCH   6  12
ENDBRANCH   8   6
BRANCH   8  11
ATOM     11  C   UNL     1       1.840   1.704  23.488  0.00  0.00    +0.085 C 
BRANCH  11  13
ATOM      3  O   UNL     1      -0.649   2.630  25.938  0.00  0.00    -0.354 OA
ATOM      7  N   UNL     1       0.649   2.307  25.566  0.00  0.00    -0.083 NA
ATOM     13  C   UNL     1       0.588   2.087  24.250  0.00  0.00    +0.086 A 
ATOM     15  C   UNL     1      -0.712   2.253  23.742  0.00  0.00    +0.076 A 
ATOM     17  C   UNL     1      -1.451   2.594  24.843  0.00  0.00    +0.167 A 
BRANCH  17  22
ATOM      1  F   UNL     1      -6.805   3.816  25.734  0.00  0.00    -0.205 F 
ATOM     22  C   UNL     1      -2.831   2.910  25.072  0.00  0.00    +0.020 A 
ATOM     24  C   UNL     1      -3.174   4.008  25.862  0.00  0.00    +0.014 A 
ATOM     25  C   UNL     1      -3.831   2.119  24.506  0.00  0.00    +0.014 A 
ATOM     26  C   UNL     1      -4.516   4.315  26.085  0.00  0.00    +0.039 A 
ATOM     27  C   UNL     1      -5.173   2.424  24.730  0.00  0.00    +0.039 A 
ATOM     28  C   UNL     1      -5.515   3.522  25.520  0.00  0.00    +0.123 A 
ENDBRANCH  17  22
ENDBRANCH  11  13
ENDBRANCH   8  11
TORSDOF 6
ENDMDL
MODEL 10
REMARK VINA RESULT:      -0.4      3.050      5.957
REMARK  Name = 56775490
REMARK  6 active torsions:
REMARK  status: ('A' for Active; 'I' for Inactive)
REMARK    1  A    between atoms: N_6  and  C_8
REMARK    2  A    between atoms: N_6  and  C_12
REMARK    3  A    between atoms: C_8  and  C_11
REMARK    4  A    between atoms: C_11  and  C_13
REMARK    5  A    between atoms: C_12  and  C_14
REMARK    6  A    between atoms: C_17  and  C_22
REMARK                            x       y       z     vdW  Elec       q    Type
REMARK                         _______ _______ _______ _____ _____    ______ ____
ROOT
ATOM      2  O   UNL     1       1.248  -0.616  21.224  0.00  0.00    -0.376 OA
ATOM      8  C   UNL     1       1.290   0.114  23.229  0.00  0.00    +0.072 C 
ATOM      9  C   UNL     1       0.315   0.110  22.056  0.00  0.00    +0.184 C 
ATOM     10  C   UNL     1       2.253  -0.564  22.262  0.00  0.00    +0.184 C 
ENDROOT
BRANCH   8   6
ATOM      6  N   UNL     1       0.842  -0.869  24.217  0.00  0.00    -0.302 NA
ATOM     29  H   UNL     1       1.532  -1.119  24.925  0.00  0.00    +0.123 HD
BRANCH   6  12
ATOM     12  C   UNL     1      -0.376  -0.376  24.867  0.00  0.00    +0.120 C 
BRANCH  12  14
ATOM      4  O   UNL     1      -3.195   0.535  24.959  0.00  0.00    -0.452 OA
ATOM      5  O   UNL     1      -5.110  -0.858  24.515  0.00  0.00    -0.453 OA
ATOM     14  C   UNL     1      -1.557  -1.237  24.592  0.00  0.00    +0.012 A 
ATOM     16  C   UNL     1      -2.844  -0.744  24.654  0.00  0.00    +0.171 A 
ATOM     18  C   UNL     1      -1.395  -2.586  24.262  0.00  0.00    +0.009 A 
ATOM     19  C   UNL     1      -3.938  -1.539  24.401  0.00  0.00    +0.167 A 
ATOM     20  C   UNL     1      -2.513  -3.398  24.003  0.00  0.00    +0.004 A 
ATOM     21  C   UNL     1      -3.805  -2.873  24.072  0.00  0.00    +0.049 A 
ATOM     23  C   UNL     1      -4.632   0.456  24.869  0.00  0.00    +0.466 C 
ENDBRANCH  12  14
ENDBRANCH   6  12
ENDBRANCH   8   6
BRANCH   8  11
ATOM     11  C   UNL     1       1.679   1.423  23.844  0.00  0.00    +0.085 C 
BRANCH  11  13
ATOM      3  O   UNL     1      -0.675   2.965  26.110  0.00  0.00    -0.354 OA
ATOM      7  N   UNL     1       0.560   2.402  25.816  0.00  0.00    -0.083 NA
ATOM     13  C   UNL     1       0.492   2.073  24.523  0.00  0.00    +0.086 A 
ATOM     15  C   UNL     1      -0.751   2.401  23.954  0.00  0.00    +0.076 A 
ATOM     17  C   UNL     1      -1.447   2.959  24.994  0.00  0.00    +0.167 A 
BRANCH  17  22
ATOM      1  F   UNL     1      -6.542   5.118  25.573  0.00  0.00    -0.205 F 
ATOM     22  C   UNL     1      -2.762   3.515  25.143  0.00  0.00    +0.020 A 
ATOM     24  C   UNL     1      -3.573   3.696  24.023  0.00  0.00    +0.014 A 
ATOM     25  C   UNL     1      -3.227   3.874  26.408  0.00  0.00    +0.014 A 
ATOM     26  C   UNL     1      -4.851   4.237  24.168  0.00  0.00    +0.039 A 
ATOM     27  C   UNL     1      -4.504   4.416  26.553  0.00  0.00    +0.039 A 
ATOM     28  C   UNL     1      -5.315   4.598  25.433  0.00  0.00    +0.123 A 
ENDBRANCH  17  22
ENDBRANCH  11  13
ENDBRANCH   8  11
TORSDOF 6
ENDMDL
