MODEL 1
REMARK VINA RESULT:       0.6      0.000      0.000
REMARK  Name = 45361654
REMARK  13 active torsions:
REMARK  status: ('A' for Active; 'I' for Inactive)
REMARK    1  A    between atoms: O_1  and  C_11
REMARK    2  A    between atoms: O_4  and  C_32
REMARK    3  A    between atoms: O_4  and  C_33
REMARK    4  A    between atoms: N_5  and  C_15
REMARK    5  A    between atoms: N_6  and  C_24
REMARK    6  A    between atoms: N_7  and  C_25
REMARK    7  A    between atoms: C_8  and  C_18
REMARK    8  A    between atoms: C_10  and  C_20
REMARK    9  A    between atoms: C_14  and  C_19
REMARK   10  A    between atoms: C_19  and  C_21
REMARK   11  A    between atoms: C_19  and  C_22
REMARK   12  A    between atoms: C_24  and  C_26
REMARK   13  A    between atoms: C_25  and  C_27
REMARK                            x       y       z     vdW  Elec       q    Type
REMARK                         _______ _______ _______ _____ _____    ______ ____
ROOT
ATOM      8  C   UNL     1      -2.187  -0.739  25.040  0.00  0.00    -0.027 C 
ATOM      9  C   UNL     1      -2.412   0.416  24.008  0.00  0.00    +0.028 C 
ATOM     10  C   UNL     1      -1.064   1.161  23.700  0.00  0.00    +0.012 C 
ATOM     11  C   UNL     1      -3.598   1.328  24.435  0.00  0.00    +0.122 C 
ATOM     12  C   UNL     1      -3.506  -1.522  25.234  0.00  0.00    +0.007 C 
ATOM     13  C   UNL     1      -1.135  -1.722  24.474  0.00  0.00    +0.009 C 
ATOM     14  C   UNL     1      -4.888   0.528  24.728  0.00  0.00    +0.029 C 
ATOM     15  C   UNL     1       0.009   0.151  23.204  0.00  0.00    +0.078 C 
ATOM     16  C   UNL     1      -4.660  -0.638  25.689  0.00  0.00    +0.007 C 
ATOM     17  C   UNL     1       0.187  -1.050  24.131  0.00  0.00    +0.023 C 
ATOM     18  C   UNL     1      -1.709  -0.220  26.419  0.00  0.00    +0.011 C 
ATOM     20  C   UNL     1      -1.208   2.294  22.669  0.00  0.00    +0.010 C 
ENDROOT
BRANCH  15   5
ATOM      3  O   UNL     1       2.584  -1.146  23.101  0.00  0.00    -0.253 OA
ATOM      5  N   UNL     1       1.298   0.784  23.020  0.00  0.00    -0.296 N 
ATOM      7  N   UNL     1       3.578   0.928  22.796  0.00  0.00    -0.300 N 
ATOM     23  C   UNL     1       2.493   0.075  22.984  0.00  0.00    +0.300 C 
ATOM     34  H   UNL     1       1.338   1.799  22.995  0.00  0.00    +0.151 HD
ATOM     37  H   UNL     1       3.404   1.923  22.696  0.00  0.00    +0.150 HD
BRANCH   7  25
ATOM     25  C   UNL     1       4.940   0.457  22.719  0.00  0.00    +0.102 C 
ATOM     27  C   UNL     1       5.481   0.096  24.086  0.00  0.00    +0.024 C 
ENDBRANCH   7  25
ENDBRANCH  15   5
BRANCH  11   1
ATOM      1  O   UNL     1      -3.911   2.231  23.372  0.00  0.00    -0.391 OA
ATOM     35  H   UNL     1      -4.630   1.842  22.847  0.00  0.00    +0.210 HD
ENDBRANCH  11   1
BRANCH  14  19
ATOM     19  C   UNL     1      -6.004   1.428  25.271  0.00  0.00    +0.077 C 
ATOM     21  C   UNL     1      -7.125   1.552  24.245  0.00  0.00    +0.017 C 
BRANCH  19  22
ATOM      2  O   UNL     1      -5.858   3.843  25.159  0.00  0.00    -0.276 OA
ATOM      6  N   UNL     1      -4.410   2.709  26.572  0.00  0.00    -0.311 N 
ATOM     22  C   UNL     1      -5.437   2.794  25.644  0.00  0.00    +0.216 C 
ATOM     36  H   UNL     1      -4.156   1.807  26.965  0.00  0.00    +0.149 HD
BRANCH   6  24
ATOM     24  C   UNL     1      -3.714   3.870  27.077  0.00  0.00    +0.139 C 
BRANCH  24  26
ATOM     26  C   UNL     1      -2.535   4.233  26.222  0.00  0.00    -0.030 A 
ATOM     28  C   UNL     1      -1.392   3.435  26.233  0.00  0.00    +0.009 A 
ATOM     29  C   UNL     1      -2.583   5.370  25.415  0.00  0.00    +0.009 A 
ATOM     30  C   UNL     1      -0.296   3.773  25.439  0.00  0.00    +0.046 A 
ATOM     31  C   UNL     1      -1.488   5.709  24.621  0.00  0.00    +0.046 A 
ATOM     32  C   UNL     1      -0.345   4.911  24.632  0.00  0.00    +0.120 A 
BRANCH  32   4
ATOM      4  O   UNL     1       0.723   5.240  23.856  0.00  0.00    -0.495 OA
ATOM     33  C   UNL     1       0.486   5.394  22.457  0.00  0.00    +0.277 C 
ENDBRANCH  32   4
ENDBRANCH  24  26
ENDBRANCH   6  24
ENDBRANCH  19  22
ENDBRANCH  14  19
TORSDOF 8
ENDMDL
MODEL 2
REMARK VINA RESULT:       1.5      1.308      1.717
REMARK  Name = 45361654
REMARK  13 active torsions:
REMARK  status: ('A' for Active; 'I' for Inactive)
REMARK    1  A    between atoms: O_1  and  C_11
REMARK    2  A    between atoms: O_4  and  C_32
REMARK    3  A    between atoms: O_4  and  C_33
REMARK    4  A    between atoms: N_5  and  C_15
REMARK    5  A    between atoms: N_6  and  C_24
REMARK    6  A    between atoms: N_7  and  C_25
REMARK    7  A    between atoms: C_8  and  C_18
REMARK    8  A    between atoms: C_10  and  C_20
REMARK    9  A    between atoms: C_14  and  C_19
REMARK   10  A    between atoms: C_19  and  C_21
REMARK   11  A    between atoms: C_19  and  C_22
REMARK   12  A    between atoms: C_24  and  C_26
REMARK   13  A    between atoms: C_25  and  C_27
REMARK                            x       y       z     vdW  Elec       q    Type
REMARK                         _______ _______ _______ _____ _____    ______ ____
ROOT
ATOM      8  C   UNL     1      -2.883  -1.370  24.799  0.00  0.00    -0.027 C 
ATOM      9  C   UNL     1      -2.678  -0.035  24.009  0.00  0.00    +0.028 C 
ATOM     10  C   UNL     1      -1.191   0.459  24.125  0.00  0.00    +0.012 C 
ATOM     11  C   UNL     1      -3.763   1.014  24.385  0.00  0.00    +0.122 C 
ATOM     12  C   UNL     1      -4.323  -1.888  24.573  0.00  0.00    +0.007 C 
ATOM     13  C   UNL     1      -1.908  -2.438  24.250  0.00  0.00    +0.009 C 
ATOM     14  C   UNL     1      -5.199   0.457  24.256  0.00  0.00    +0.029 C 
ATOM     15  C   UNL     1      -0.215  -0.650  23.639  0.00  0.00    +0.078 C 
ATOM     16  C   UNL     1      -5.388  -0.877  24.976  0.00  0.00    +0.007 C 
ATOM     17  C   UNL     1      -0.450  -2.002  24.311  0.00  0.00    +0.023 C 
ATOM     18  C   UNL     1      -2.649  -1.202  26.322  0.00  0.00    +0.011 C 
ATOM     20  C   UNL     1      -0.911   1.755  23.345  0.00  0.00    +0.010 C 
ENDROOT
BRANCH  15   5
ATOM      3  O   UNL     1       1.798  -0.283  21.606  0.00  0.00    -0.253 OA
ATOM      5  N   UNL     1       1.168  -0.273  23.839  0.00  0.00    -0.296 N 
ATOM      7  N   UNL     1       3.329   0.246  23.267  0.00  0.00    -0.300 N 
ATOM     23  C   UNL     1       2.072  -0.119  22.794  0.00  0.00    +0.300 C 
ATOM     34  H   UNL     1       1.514  -0.194  24.791  0.00  0.00    +0.151 HD
ATOM     37  H   UNL     1       3.458   0.372  24.266  0.00  0.00    +0.150 HD
BRANCH   7  25
ATOM     25  C   UNL     1       4.458   0.474  22.395  0.00  0.00    +0.102 C 
ATOM     27  C   UNL     1       5.762   0.094  23.065  0.00  0.00    +0.024 C 
ENDBRANCH   7  25
ENDBRANCH  15   5
BRANCH  11   1
ATOM      1  O   UNL     1      -3.676   2.129  23.496  0.00  0.00    -0.391 OA
ATOM     35  H   UNL     1      -2.765   2.468  23.524  0.00  0.00    +0.210 HD
ENDBRANCH  11   1
BRANCH  14  19
ATOM     19  C   UNL     1      -6.245   1.461  24.754  0.00  0.00    +0.077 C 
ATOM     21  C   UNL     1      -7.031   2.029  23.577  0.00  0.00    +0.017 C 
BRANCH  19  22
ATOM      2  O   UNL     1      -5.714   2.696  26.769  0.00  0.00    -0.276 OA
ATOM      6  N   UNL     1      -4.781   3.392  24.763  0.00  0.00    -0.311 N 
ATOM     22  C   UNL     1      -5.566   2.567  25.555  0.00  0.00    +0.216 C 
ATOM     36  H   UNL     1      -4.668   3.187  23.775  0.00  0.00    +0.149 HD
BRANCH   6  24
ATOM     24  C   UNL     1      -4.040   4.512  25.295  0.00  0.00    +0.139 C 
BRANCH  24  26
ATOM     26  C   UNL     1      -2.627   4.137  25.639  0.00  0.00    -0.030 A 
ATOM     28  C   UNL     1      -2.379   3.119  26.559  0.00  0.00    +0.009 A 
ATOM     29  C   UNL     1      -1.562   4.808  25.037  0.00  0.00    +0.009 A 
ATOM     30  C   UNL     1      -1.066   2.771  26.878  0.00  0.00    +0.046 A 
ATOM     31  C   UNL     1      -0.249   4.461  25.357  0.00  0.00    +0.046 A 
ATOM     32  C   UNL     1      -0.001   3.443  26.276  0.00  0.00    +0.120 A 
BRANCH  32   4
ATOM      4  O   UNL     1       1.280   3.103  26.586  0.00  0.00    -0.495 OA
ATOM     33  C   UNL     1       1.541   2.719  27.936  0.00  0.00    +0.277 C 
ENDBRANCH  32   4
ENDBRANCH  24  26
ENDBRANCH   6  24
ENDBRANCH  19  22
ENDBRANCH  14  19
TORSDOF 8
ENDMDL
MODEL 3
REMARK VINA RESULT:       2.5      1.970      4.399
REMARK  Name = 45361654
REMARK  13 active torsions:
REMARK  status: ('A' for Active; 'I' for Inactive)
REMARK    1  A    between atoms: O_1  and  C_11
REMARK    2  A    between atoms: O_4  and  C_32
REMARK    3  A    between atoms: O_4  and  C_33
REMARK    4  A    between atoms: N_5  and  C_15
REMARK    5  A    between atoms: N_6  and  C_24
REMARK    6  A    between atoms: N_7  and  C_25
REMARK    7  A    between atoms: C_8  and  C_18
REMARK    8  A    between atoms: C_10  and  C_20
REMARK    9  A    between atoms: C_14  and  C_19
REMARK   10  A    between atoms: C_19  and  C_21
REMARK   11  A    between atoms: C_19  and  C_22
REMARK   12  A    between atoms: C_24  and  C_26
REMARK   13  A    between atoms: C_25  and  C_27
REMARK                            x       y       z     vdW  Elec       q    Type
REMARK                         _______ _______ _______ _____ _____    ______ ____
ROOT
ATOM      8  C   UNL     1      -2.314   1.830  22.487  0.00  0.00    -0.027 C 
ATOM      9  C   UNL     1      -1.616   2.359  23.783  0.00  0.00    +0.028 C 
ATOM     10  C   UNL     1      -0.513   1.353  24.274  0.00  0.00    +0.012 C 
ATOM     11  C   UNL     1      -2.662   2.779  24.855  0.00  0.00    +0.122 C 
ATOM     12  C   UNL     1      -3.312   2.892  21.967  0.00  0.00    +0.007 C 
ATOM     13  C   UNL     1      -1.245   1.613  21.390  0.00  0.00    +0.009 C 
ATOM     14  C   UNL     1      -3.719   3.762  24.301  0.00  0.00    +0.029 C 
ATOM     15  C   UNL     1       0.515   1.085  23.139  0.00  0.00    +0.078 C 
ATOM     16  C   UNL     1      -4.361   3.277  23.002  0.00  0.00    +0.007 C 
ATOM     17  C   UNL     1      -0.133   0.666  21.820  0.00  0.00    +0.023 C 
ATOM     18  C   UNL     1      -3.079   0.503  22.723  0.00  0.00    +0.011 C 
ATOM     20  C   UNL     1       0.236   1.826  25.532  0.00  0.00    +0.010 C 
ENDROOT
BRANCH  15   5
ATOM      3  O   UNL     1       3.338   1.068  22.543  0.00  0.00    -0.253 OA
ATOM      5  N   UNL     1       1.480   0.074  23.517  0.00  0.00    -0.296 N 
ATOM      7  N   UNL     1       3.528  -0.951  23.671  0.00  0.00    -0.300 N 
ATOM     23  C   UNL     1       2.828   0.150  23.184  0.00  0.00    +0.300 C 
ATOM     34  H   UNL     1       1.144  -0.766  23.978  0.00  0.00    +0.151 HD
ATOM     37  H   UNL     1       3.024  -1.654  24.201  0.00  0.00    +0.150 HD
BRANCH   7  25
ATOM     25  C   UNL     1       4.947  -1.128  23.470  0.00  0.00    +0.102 C 
ATOM     27  C   UNL     1       5.747  -0.071  24.202  0.00  0.00    +0.024 C 
ENDBRANCH   7  25
ENDBRANCH  15   5
BRANCH  11   1
ATOM      1  O   UNL     1      -2.001   3.453  25.928  0.00  0.00    -0.391 OA
ATOM     35  H   UNL     1      -1.048   3.460  25.739  0.00  0.00    +0.210 HD
ENDBRANCH  11   1
BRANCH  14  19
ATOM     19  C   UNL     1      -4.814   4.062  25.332  0.00  0.00    +0.077 C 
ATOM     21  C   UNL     1      -4.272   4.980  26.421  0.00  0.00    +0.017 C 
BRANCH  19  22
ATOM      2  O   UNL     1      -6.101   2.726  26.890  0.00  0.00    -0.276 OA
ATOM      6  N   UNL     1      -4.887   1.641  25.237  0.00  0.00    -0.311 N 
ATOM     22  C   UNL     1      -5.348   2.758  25.918  0.00  0.00    +0.216 C 
ATOM     36  H   UNL     1      -4.309   1.755  24.410  0.00  0.00    +0.149 HD
BRANCH   6  24
ATOM     24  C   UNL     1      -5.253   0.294  25.608  0.00  0.00    +0.139 C 
BRANCH  24  26
ATOM     26  C   UNL     1      -4.109  -0.663  25.448  0.00  0.00    -0.030 A 
ATOM     28  C   UNL     1      -4.232  -1.765  24.601  0.00  0.00    +0.009 A 
ATOM     29  C   UNL     1      -2.919  -0.451  26.146  0.00  0.00    +0.009 A 
ATOM     30  C   UNL     1      -3.168  -2.655  24.453  0.00  0.00    +0.046 A 
ATOM     31  C   UNL     1      -1.855  -1.340  25.998  0.00  0.00    +0.046 A 
ATOM     32  C   UNL     1      -1.979  -2.442  25.152  0.00  0.00    +0.120 A 
BRANCH  32   4
ATOM      4  O   UNL     1      -0.940  -3.308  25.006  0.00  0.00    -0.495 OA
ATOM     33  C   UNL     1       0.355  -2.837  25.374  0.00  0.00    +0.277 C 
ENDBRANCH  32   4
ENDBRANCH  24  26
ENDBRANCH   6  24
ENDBRANCH  19  22
ENDBRANCH  14  19
TORSDOF 8
ENDMDL
