MODEL 1
REMARK VINA RESULT:       1.6      0.000      0.000
REMARK  Name = 28960475
REMARK  8 active torsions:
REMARK  status: ('A' for Active; 'I' for Inactive)
REMARK    1  A    between atoms: O_3  and  C_9
REMARK    2  A    between atoms: O_4  and  C_23
REMARK    3  A    between atoms: O_4  and  C_31
REMARK    4  A    between atoms: N_5  and  C_8
REMARK    5  A    between atoms: N_6  and  C_10
REMARK    6  A    between atoms: N_6  and  C_18
REMARK    7  A    between atoms: N_7  and  C_19
REMARK    8  A    between atoms: C_18  and  C_20
REMARK                            x       y       z     vdW  Elec       q    Type
REMARK                         _______ _______ _______ _____ _____    ______ ____
ROOT
ATOM      1  O   UNL     1      -4.497   2.821  23.889  0.00  0.00    -0.343 OA
ATOM      2  O   UNL     1      -4.711   5.002  24.649  0.00  0.00    -0.347 OA
ATOM      8  C   UNL     1      -2.871   3.662  25.462  0.00  0.00    +0.143 C 
ATOM      9  C   UNL     1      -3.731   3.158  26.644  0.00  0.00    +0.156 C 
ATOM     10  C   UNL     1      -4.979   2.350  26.211  0.00  0.00    +0.116 C 
ATOM     11  C   UNL     1      -5.553   2.826  24.857  0.00  0.00    +0.166 C 
ATOM     12  C   UNL     1      -3.763   3.998  24.252  0.00  0.00    +0.270 C 
ATOM     13  C   UNL     1      -5.946   4.291  24.828  0.00  0.00    +0.196 C 
ENDROOT
BRANCH   8   5
ATOM      5  N   UNL     1      -1.872   2.660  25.085  0.00  0.00    -0.290 NA
ATOM      7  N   UNL     1       0.480   1.680  23.794  0.00  0.00    -0.327 N 
ATOM     14  C   UNL     1      -0.542   3.051  25.567  0.00  0.00    +0.104 C 
ATOM     15  C   UNL     1      -1.844   2.486  23.628  0.00  0.00    +0.104 C 
ATOM     16  C   UNL     1       0.502   1.984  25.228  0.00  0.00    +0.120 C 
ATOM     17  C   UNL     1      -0.844   1.400  23.224  0.00  0.00    +0.120 C 
BRANCH   7  19
ATOM     19  C   UNL     1       1.594   1.083  23.193  0.00  0.00    +0.030 A 
ATOM     21  C   UNL     1       1.433  -0.045  22.391  0.00  0.00    +0.023 A 
ATOM     22  C   UNL     1       2.866   1.617  23.399  0.00  0.00    +0.023 A 
ATOM     25  C   UNL     1       2.543  -0.640  21.792  0.00  0.00    +0.002 A 
ATOM     26  C   UNL     1       3.977   1.022  22.801  0.00  0.00    +0.002 A 
ATOM     29  C   UNL     1       3.815  -0.107  21.997  0.00  0.00    +0.000 A 
ENDBRANCH   7  19
ENDBRANCH   8   5
BRANCH   9   3
ATOM      3  O   UNL     1      -4.167   4.308  27.383  0.00  0.00    -0.388 OA
ATOM     33  H   UNL     1      -4.374   4.015  28.287  0.00  0.00    +0.210 HD
ENDBRANCH   9   3
BRANCH  10   6
ATOM      6  N   UNL     1      -4.654   0.924  26.095  0.00  0.00    -0.305 NA
ATOM     32  H   UNL     1      -5.341   0.375  26.611  0.00  0.00    +0.123 HD
BRANCH   6  18
ATOM     18  C   UNL     1      -4.631   0.518  24.701  0.00  0.00    +0.120 C 
BRANCH  18  20
ATOM     20  C   UNL     1      -4.015  -0.844  24.523  0.00  0.00    +0.008 A 
ATOM     23  C   UNL     1      -2.790  -1.156  25.112  0.00  0.00    +0.124 A 
ATOM     24  C   UNL     1      -4.685  -1.800  23.758  0.00  0.00    +0.008 A 
ATOM     27  C   UNL     1      -2.234  -2.423  24.936  0.00  0.00    +0.046 A 
ATOM     28  C   UNL     1      -4.128  -3.067  23.582  0.00  0.00    +0.001 A 
ATOM     30  C   UNL     1      -2.903  -3.378  24.171  0.00  0.00    +0.004 A 
BRANCH  23   4
ATOM      4  O   UNL     1      -2.123  -0.234  25.861  0.00  0.00    -0.495 OA
ATOM     31  C   UNL     1      -0.895  -0.649  26.456  0.00  0.00    +0.277 C 
ENDBRANCH  23   4
ENDBRANCH  18  20
ENDBRANCH   6  18
ENDBRANCH  10   6
TORSDOF 7
ENDMDL
MODEL 2
REMARK VINA RESULT:       1.6      1.872      4.822
REMARK  Name = 28960475
REMARK  8 active torsions:
REMARK  status: ('A' for Active; 'I' for Inactive)
REMARK    1  A    between atoms: O_3  and  C_9
REMARK    2  A    between atoms: O_4  and  C_23
REMARK    3  A    between atoms: O_4  and  C_31
REMARK    4  A    between atoms: N_5  and  C_8
REMARK    5  A    between atoms: N_6  and  C_10
REMARK    6  A    between atoms: N_6  and  C_18
REMARK    7  A    between atoms: N_7  and  C_19
REMARK    8  A    between atoms: C_18  and  C_20
REMARK                            x       y       z     vdW  Elec       q    Type
REMARK                         _______ _______ _______ _____ _____    ______ ____
ROOT
ATOM      1  O   UNL     1      -2.326   0.283  25.578  0.00  0.00    -0.343 OA
ATOM      2  O   UNL     1      -3.913  -1.179  26.429  0.00  0.00    -0.347 OA
ATOM      8  C   UNL     1      -2.483  -1.932  24.630  0.00  0.00    +0.143 C 
ATOM      9  C   UNL     1      -3.502  -1.427  23.581  0.00  0.00    +0.156 C 
ATOM     10  C   UNL     1      -3.738   0.103  23.624  0.00  0.00    +0.116 C 
ATOM     11  C   UNL     1      -3.594   0.686  25.048  0.00  0.00    +0.166 C 
ATOM     12  C   UNL     1      -2.573  -1.089  25.916  0.00  0.00    +0.270 C 
ATOM     13  C   UNL     1      -4.529   0.067  26.071  0.00  0.00    +0.196 C 
ENDROOT
BRANCH   8   5
ATOM      5  N   UNL     1      -1.122  -1.885  24.095  0.00  0.00    -0.290 NA
ATOM      7  N   UNL     1       1.530  -0.867  23.800  0.00  0.00    -0.327 N 
ATOM     14  C   UNL     1      -0.138  -2.052  25.171  0.00  0.00    +0.104 C 
ATOM     15  C   UNL     1      -0.888  -0.615  23.397  0.00  0.00    +0.104 C 
ATOM     16  C   UNL     1       1.289  -2.060  24.616  0.00  0.00    +0.120 C 
ATOM     17  C   UNL     1       0.513  -0.576  22.782  0.00  0.00    +0.120 C 
BRANCH   7  19
ATOM     19  C   UNL     1       2.843  -0.446  23.557  0.00  0.00    +0.030 A 
ATOM     21  C   UNL     1       3.079   0.787  22.953  0.00  0.00    +0.023 A 
ATOM     22  C   UNL     1       3.914  -1.263  23.919  0.00  0.00    +0.023 A 
ATOM     25  C   UNL     1       4.387   1.206  22.710  0.00  0.00    +0.002 A 
ATOM     26  C   UNL     1       5.223  -0.844  23.676  0.00  0.00    +0.002 A 
ATOM     29  C   UNL     1       5.459   0.391  23.071  0.00  0.00    +0.000 A 
ENDBRANCH   7  19
ENDBRANCH   8   5
BRANCH   9   3
ATOM      3  O   UNL     1      -4.750  -2.088  23.835  0.00  0.00    -0.388 OA
ATOM     33  H   UNL     1      -5.155  -2.292  22.975  0.00  0.00    +0.210 HD
ENDBRANCH   9   3
BRANCH  10   6
ATOM      6  N   UNL     1      -2.788   0.796  22.747  0.00  0.00    -0.305 NA
ATOM     32  H   UNL     1      -2.782   0.349  21.830  0.00  0.00    +0.123 HD
BRANCH   6  18
ATOM     18  C   UNL     1      -3.139   2.198  22.621  0.00  0.00    +0.120 C 
BRANCH  18  20
ATOM     20  C   UNL     1      -2.427   3.050  23.638  0.00  0.00    +0.008 A 
ATOM     23  C   UNL     1      -3.143   3.875  24.505  0.00  0.00    +0.124 A 
ATOM     24  C   UNL     1      -1.034   3.007  23.706  0.00  0.00    +0.008 A 
ATOM     27  C   UNL     1      -2.467   4.658  25.440  0.00  0.00    +0.046 A 
ATOM     28  C   UNL     1      -0.358   3.790  24.643  0.00  0.00    +0.001 A 
ATOM     30  C   UNL     1      -1.074   4.615  25.509  0.00  0.00    +0.004 A 
BRANCH  23   4
ATOM      4  O   UNL     1      -4.504   3.929  24.450  0.00  0.00    -0.495 OA
ATOM     31  C   UNL     1      -5.208   3.753  25.678  0.00  0.00    +0.277 C 
ENDBRANCH  23   4
ENDBRANCH  18  20
ENDBRANCH   6  18
ENDBRANCH  10   6
TORSDOF 7
ENDMDL
MODEL 3
REMARK VINA RESULT:       1.6      2.117      4.648
REMARK  Name = 28960475
REMARK  8 active torsions:
REMARK  status: ('A' for Active; 'I' for Inactive)
REMARK    1  A    between atoms: O_3  and  C_9
REMARK    2  A    between atoms: O_4  and  C_23
REMARK    3  A    between atoms: O_4  and  C_31
REMARK    4  A    between atoms: N_5  and  C_8
REMARK    5  A    between atoms: N_6  and  C_10
REMARK    6  A    between atoms: N_6  and  C_18
REMARK    7  A    between atoms: N_7  and  C_19
REMARK    8  A    between atoms: C_18  and  C_20
REMARK                            x       y       z     vdW  Elec       q    Type
REMARK                         _______ _______ _______ _____ _____    ______ ____
ROOT
ATOM      1  O   UNL     1      -2.257   0.152  25.681  0.00  0.00    -0.343 OA
ATOM      2  O   UNL     1      -3.934  -1.304  26.353  0.00  0.00    -0.347 OA
ATOM      8  C   UNL     1      -2.482  -1.961  24.536  0.00  0.00    +0.143 C 
ATOM      9  C   UNL     1      -3.442  -1.320  23.507  0.00  0.00    +0.156 C 
ATOM     10  C   UNL     1      -3.613   0.210  23.679  0.00  0.00    +0.116 C 
ATOM     11  C   UNL     1      -3.489   0.658  25.154  0.00  0.00    +0.166 C 
ATOM     12  C   UNL     1      -2.575  -1.231  25.888  0.00  0.00    +0.270 C 
ATOM     13  C   UNL     1      -4.482  -0.003  26.091  0.00  0.00    +0.196 C 
ENDROOT
BRANCH   8   5
ATOM      5  N   UNL     1      -1.103  -1.931  24.045  0.00  0.00    -0.290 NA
ATOM      7  N   UNL     1       1.542  -0.890  23.762  0.00  0.00    -0.327 N 
ATOM     14  C   UNL     1      -0.156  -1.994  25.164  0.00  0.00    +0.104 C 
ATOM     15  C   UNL     1      -0.865  -0.716  23.257  0.00  0.00    +0.104 C 
ATOM     16  C   UNL     1       1.290  -2.020  24.661  0.00  0.00    +0.120 C 
ATOM     17  C   UNL     1       0.556  -0.700  22.689  0.00  0.00    +0.120 C 
BRANCH   7  19
ATOM     19  C   UNL     1       2.855  -0.465  23.531  0.00  0.00    +0.030 A 
ATOM     21  C   UNL     1       3.093   0.755  22.900  0.00  0.00    +0.023 A 
ATOM     22  C   UNL     1       3.926  -1.264  23.931  0.00  0.00    +0.023 A 
ATOM     25  C   UNL     1       4.401   1.178  22.670  0.00  0.00    +0.002 A 
ATOM     26  C   UNL     1       5.235  -0.841  23.700  0.00  0.00    +0.002 A 
ATOM     29  C   UNL     1       5.473   0.380  23.069  0.00  0.00    +0.000 A 
ENDBRANCH   7  19
ENDBRANCH   8   5
BRANCH   9   3
ATOM      3  O   UNL     1      -4.726  -1.942  23.667  0.00  0.00    -0.388 OA
ATOM     33  H   UNL     1      -4.902  -2.461  22.864  0.00  0.00    +0.210 HD
ENDBRANCH   9   3
BRANCH  10   6
ATOM      6  N   UNL     1      -2.605   0.932  22.895  0.00  0.00    -0.305 NA
ATOM     32  H   UNL     1      -2.448   0.446  22.012  0.00  0.00    +0.123 HD
BRANCH   6  18
ATOM     18  C   UNL     1      -3.032   2.297  22.647  0.00  0.00    +0.120 C 
BRANCH  18  20
ATOM     20  C   UNL     1      -3.038   3.121  23.907  0.00  0.00    +0.008 A 
ATOM     23  C   UNL     1      -1.844   3.448  24.551  0.00  0.00    +0.124 A 
ATOM     24  C   UNL     1      -4.255   3.557  24.431  0.00  0.00    +0.008 A 
ATOM     27  C   UNL     1      -1.868   4.212  25.718  0.00  0.00    +0.046 A 
ATOM     28  C   UNL     1      -4.279   4.322  25.598  0.00  0.00    +0.001 A 
ATOM     30  C   UNL     1      -3.086   4.648  26.241  0.00  0.00    +0.004 A 
BRANCH  23   4
ATOM      4  O   UNL     1      -0.647   3.029  24.053  0.00  0.00    -0.495 OA
ATOM     31  C   UNL     1       0.203   2.302  24.939  0.00  0.00    +0.277 C 
ENDBRANCH  23   4
ENDBRANCH  18  20
ENDBRANCH   6  18
ENDBRANCH  10   6
TORSDOF 7
ENDMDL
MODEL 4
REMARK VINA RESULT:       1.8      0.936      1.944
REMARK  Name = 28960475
REMARK  8 active torsions:
REMARK  status: ('A' for Active; 'I' for Inactive)
REMARK    1  A    between atoms: O_3  and  C_9
REMARK    2  A    between atoms: O_4  and  C_23
REMARK    3  A    between atoms: O_4  and  C_31
REMARK    4  A    between atoms: N_5  and  C_8
REMARK    5  A    between atoms: N_6  and  C_10
REMARK    6  A    between atoms: N_6  and  C_18
REMARK    7  A    between atoms: N_7  and  C_19
REMARK    8  A    between atoms: C_18  and  C_20
REMARK                            x       y       z     vdW  Elec       q    Type
REMARK                         _______ _______ _______ _____ _____    ______ ____
ROOT
ATOM      1  O   UNL     1      -4.155   3.096  23.598  0.00  0.00    -0.343 OA
ATOM      2  O   UNL     1      -4.538   4.965  24.918  0.00  0.00    -0.347 OA
ATOM      8  C   UNL     1      -2.962   3.300  25.687  0.00  0.00    +0.143 C 
ATOM      9  C   UNL     1      -4.091   2.541  26.423  0.00  0.00    +0.156 C 
ATOM     10  C   UNL     1      -5.198   2.000  25.484  0.00  0.00    +0.116 C 
ATOM     11  C   UNL     1      -5.417   2.900  24.246  0.00  0.00    +0.166 C 
ATOM     12  C   UNL     1      -3.526   4.050  24.465  0.00  0.00    +0.270 C 
ATOM     13  C   UNL     1      -5.783   4.335  24.578  0.00  0.00    +0.196 C 
ENDROOT
BRANCH   8   5
ATOM      5  N   UNL     1      -1.907   2.378  25.265  0.00  0.00    -0.290 NA
ATOM      7  N   UNL     1       0.450   1.577  23.864  0.00  0.00    -0.327 N 
ATOM     14  C   UNL     1      -0.590   2.875  25.681  0.00  0.00    +0.104 C 
ATOM     15  C   UNL     1      -1.936   2.197  23.808  0.00  0.00    +0.104 C 
ATOM     16  C   UNL     1       0.517   1.892  25.294  0.00  0.00    +0.120 C 
ATOM     17  C   UNL     1      -0.874   1.189  23.360  0.00  0.00    +0.120 C 
BRANCH   7  19
ATOM     19  C   UNL     1       1.578   1.065  23.212  0.00  0.00    +0.030 A 
ATOM     21  C   UNL     1       2.829   1.639  23.430  0.00  0.00    +0.023 A 
ATOM     22  C   UNL     1       1.448  -0.018  22.343  0.00  0.00    +0.023 A 
ATOM     25  C   UNL     1       3.953   1.130  22.780  0.00  0.00    +0.002 A 
ATOM     26  C   UNL     1       2.572  -0.528  21.693  0.00  0.00    +0.002 A 
ATOM     29  C   UNL     1       3.825   0.046  21.911  0.00  0.00    +0.000 A 
ENDBRANCH   7  19
ENDBRANCH   8   5
BRANCH   9   3
ATOM      3  O   UNL     1      -4.689   3.452  27.356  0.00  0.00    -0.388 OA
ATOM     33  H   UNL     1      -4.881   2.956  28.170  0.00  0.00    +0.210 HD
ENDBRANCH   9   3
BRANCH  10   6
ATOM      6  N   UNL     1      -4.862   0.651  25.016  0.00  0.00    -0.305 NA
ATOM     32  H   UNL     1      -4.240   0.715  24.210  0.00  0.00    +0.123 HD
BRANCH   6  18
ATOM     18  C   UNL     1      -4.232  -0.115  26.076  0.00  0.00    +0.120 C 
BRANCH  18  20
ATOM     20  C   UNL     1      -3.041  -0.889  25.577  0.00  0.00    +0.008 A 
ATOM     23  C   UNL     1      -3.153  -1.742  24.479  0.00  0.00    +0.124 A 
ATOM     24  C   UNL     1      -1.815  -0.748  26.228  0.00  0.00    +0.008 A 
ATOM     27  C   UNL     1      -2.039  -2.452  24.031  0.00  0.00    +0.046 A 
ATOM     28  C   UNL     1      -0.701  -1.458  25.780  0.00  0.00    +0.001 A 
ATOM     30  C   UNL     1      -0.813  -2.310  24.682  0.00  0.00    +0.004 A 
BRANCH  23   4
ATOM      4  O   UNL     1      -4.343  -1.892  23.832  0.00  0.00    -0.495 OA
ATOM     31  C   UNL     1      -4.682  -3.208  23.398  0.00  0.00    +0.277 C 
ENDBRANCH  23   4
ENDBRANCH  18  20
ENDBRANCH   6  18
ENDBRANCH  10   6
TORSDOF 7
ENDMDL
MODEL 5
REMARK VINA RESULT:       3.1      1.748      4.921
REMARK  Name = 28960475
REMARK  8 active torsions:
REMARK  status: ('A' for Active; 'I' for Inactive)
REMARK    1  A    between atoms: O_3  and  C_9
REMARK    2  A    between atoms: O_4  and  C_23
REMARK    3  A    between atoms: O_4  and  C_31
REMARK    4  A    between atoms: N_5  and  C_8
REMARK    5  A    between atoms: N_6  and  C_10
REMARK    6  A    between atoms: N_6  and  C_18
REMARK    7  A    between atoms: N_7  and  C_19
REMARK    8  A    between atoms: C_18  and  C_20
REMARK                            x       y       z     vdW  Elec       q    Type
REMARK                         _______ _______ _______ _____ _____    ______ ____
ROOT
ATOM      1  O   UNL     1      -1.804  -1.361  24.737  0.00  0.00    -0.343 OA
ATOM      2  O   UNL     1      -3.887  -1.190  23.731  0.00  0.00    -0.347 OA
ATOM      8  C   UNL     1      -2.135   0.326  23.043  0.00  0.00    +0.143 C 
ATOM      9  C   UNL     1      -2.565   1.347  24.122  0.00  0.00    +0.156 C 
ATOM     10  C   UNL     1      -2.432   0.819  25.572  0.00  0.00    +0.116 C 
ATOM     11  C   UNL     1      -2.668  -0.705  25.671  0.00  0.00    +0.166 C 
ATOM     12  C   UNL     1      -2.472  -1.107  23.494  0.00  0.00    +0.270 C 
ATOM     13  C   UNL     1      -4.023  -1.160  25.160  0.00  0.00    +0.196 C 
ENDROOT
BRANCH   8   5
ATOM      5  N   UNL     1      -0.703   0.440  22.765  0.00  0.00    -0.290 NA
ATOM      7  N   UNL     1       2.083  -0.009  23.208  0.00  0.00    -0.327 N 
ATOM     14  C   UNL     1      -0.117  -0.885  22.528  0.00  0.00    +0.104 C 
ATOM     15  C   UNL     1      -0.013   1.099  23.880  0.00  0.00    +0.104 C 
ATOM     16  C   UNL     1       1.370  -0.776  22.181  0.00  0.00    +0.120 C 
ATOM     17  C   UNL     1       1.476   1.276  23.577  0.00  0.00    +0.120 C 
BRANCH   7  19
ATOM     19  C   UNL     1       3.471  -0.142  23.335  0.00  0.00    +0.030 A 
ATOM     21  C   UNL     1       4.018  -1.346  23.776  0.00  0.00    +0.023 A 
ATOM     22  C   UNL     1       4.305   0.930  23.021  0.00  0.00    +0.023 A 
ATOM     25  C   UNL     1       5.400  -1.478  23.903  0.00  0.00    +0.002 A 
ATOM     26  C   UNL     1       5.688   0.798  23.148  0.00  0.00    +0.002 A 
ATOM     29  C   UNL     1       6.236  -0.407  23.589  0.00  0.00    +0.000 A 
ENDBRANCH   7  19
ENDBRANCH   8   5
BRANCH   9   3
ATOM      3  O   UNL     1      -3.941   1.678  23.882  0.00  0.00    -0.388 OA
ATOM     33  H   UNL     1      -4.482   0.937  24.206  0.00  0.00    +0.210 HD
ENDBRANCH   9   3
BRANCH  10   6
ATOM      6  N   UNL     1      -1.098   1.112  26.106  0.00  0.00    -0.305 NA
ATOM     32  H   UNL     1      -0.436   1.207  25.336  0.00  0.00    +0.123 HD
BRANCH   6  18
ATOM     18  C   UNL     1      -1.121   2.326  26.901  0.00  0.00    +0.120 C 
BRANCH  18  20
ATOM     20  C   UNL     1      -1.298   3.553  26.047  0.00  0.00    +0.008 A 
ATOM     23  C   UNL     1      -2.525   4.213  25.991  0.00  0.00    +0.124 A 
ATOM     24  C   UNL     1      -0.215   4.028  25.306  0.00  0.00    +0.008 A 
ATOM     27  C   UNL     1      -2.671   5.348  25.194  0.00  0.00    +0.046 A 
ATOM     28  C   UNL     1      -0.361   5.164  24.508  0.00  0.00    +0.001 A 
ATOM     30  C   UNL     1      -1.589   5.823  24.452  0.00  0.00    +0.004 A 
BRANCH  23   4
ATOM      4  O   UNL     1      -3.592   3.762  26.708  0.00  0.00    -0.495 OA
ATOM     31  C   UNL     1      -4.842   3.676  26.025  0.00  0.00    +0.277 C 
ENDBRANCH  23   4
ENDBRANCH  18  20
ENDBRANCH   6  18
ENDBRANCH  10   6
TORSDOF 7
ENDMDL
MODEL 6
REMARK VINA RESULT:       3.3      1.524      2.097
REMARK  Name = 28960475
REMARK  8 active torsions:
REMARK  status: ('A' for Active; 'I' for Inactive)
REMARK    1  A    between atoms: O_3  and  C_9
REMARK    2  A    between atoms: O_4  and  C_23
REMARK    3  A    between atoms: O_4  and  C_31
REMARK    4  A    between atoms: N_5  and  C_8
REMARK    5  A    between atoms: N_6  and  C_10
REMARK    6  A    between atoms: N_6  and  C_18
REMARK    7  A    between atoms: N_7  and  C_19
REMARK    8  A    between atoms: C_18  and  C_20
REMARK                            x       y       z     vdW  Elec       q    Type
REMARK                         _______ _______ _______ _____ _____    ______ ____
ROOT
ATOM      1  O   UNL     1      -3.362   1.165  23.463  0.00  0.00    -0.343 OA
ATOM      2  O   UNL     1      -4.520   3.172  23.544  0.00  0.00    -0.347 OA
ATOM      8  C   UNL     1      -2.112   3.209  23.752  0.00  0.00    +0.143 C 
ATOM      9  C   UNL     1      -2.222   3.076  25.289  0.00  0.00    +0.156 C 
ATOM     10  C   UNL     1      -2.892   1.761  25.758  0.00  0.00    +0.116 C 
ATOM     11  C   UNL     1      -3.958   1.252  24.761  0.00  0.00    +0.166 C 
ATOM     12  C   UNL     1      -3.320   2.542  23.067  0.00  0.00    +0.270 C 
ATOM     13  C   UNL     1      -5.076   2.242  24.485  0.00  0.00    +0.196 C 
ENDROOT
BRANCH   8   5
ATOM      5  N   UNL     1      -0.868   2.610  23.268  0.00  0.00    -0.290 NA
ATOM      7  N   UNL     1       1.555   1.111  23.470  0.00  0.00    -0.327 N 
ATOM     14  C   UNL     1      -0.907   1.150  23.417  0.00  0.00    +0.104 C 
ATOM     15  C   UNL     1       0.283   3.156  23.998  0.00  0.00    +0.104 C 
ATOM     16  C   UNL     1       0.366   0.506  22.863  0.00  0.00    +0.120 C 
ATOM     17  C   UNL     1       1.596   2.579  23.462  0.00  0.00    +0.120 C 
BRANCH   7  19
ATOM     19  C   UNL     1       2.772   0.420  23.453  0.00  0.00    +0.030 A 
ATOM     21  C   UNL     1       2.798  -0.952  23.701  0.00  0.00    +0.023 A 
ATOM     22  C   UNL     1       3.958   1.104  23.188  0.00  0.00    +0.023 A 
ATOM     25  C   UNL     1       4.010  -1.640  23.685  0.00  0.00    +0.002 A 
ATOM     26  C   UNL     1       5.171   0.415  23.171  0.00  0.00    +0.002 A 
ATOM     29  C   UNL     1       5.197  -0.958  23.420  0.00  0.00    +0.000 A 
ENDBRANCH   7  19
ENDBRANCH   8   5
BRANCH   9   3
ATOM      3  O   UNL     1      -3.004   4.181  25.765  0.00  0.00    -0.388 OA
ATOM     33  H   UNL     1      -3.171   4.770  25.009  0.00  0.00    +0.210 HD
ENDBRANCH   9   3
BRANCH  10   6
ATOM      6  N   UNL     1      -1.889   0.706  25.934  0.00  0.00    -0.305 NA
ATOM     32  H   UNL     1      -1.152   1.037  26.557  0.00  0.00    +0.123 HD
BRANCH   6  18
ATOM     18  C   UNL     1      -2.501  -0.495  26.474  0.00  0.00    +0.120 C 
BRANCH  18  20
ATOM     20  C   UNL     1      -2.672  -1.559  25.423  0.00  0.00    +0.008 A 
ATOM     23  C   UNL     1      -1.562  -2.166  24.835  0.00  0.00    +0.124 A 
ATOM     24  C   UNL     1      -3.958  -1.937  25.038  0.00  0.00    +0.008 A 
ATOM     27  C   UNL     1      -1.738  -3.149  23.862  0.00  0.00    +0.046 A 
ATOM     28  C   UNL     1      -4.135  -2.921  24.065  0.00  0.00    +0.001 A 
ATOM     30  C   UNL     1      -3.025  -3.527  23.477  0.00  0.00    +0.004 A 
BRANCH  23   4
ATOM      4  O   UNL     1      -0.298  -1.808  25.198  0.00  0.00    -0.495 OA
ATOM     31  C   UNL     1       0.603  -2.862  25.532  0.00  0.00    +0.277 C 
ENDBRANCH  23   4
ENDBRANCH  18  20
ENDBRANCH   6  18
ENDBRANCH  10   6
TORSDOF 7
ENDMDL
MODEL 7
REMARK VINA RESULT:       4.0      1.984      4.665
REMARK  Name = 28960475
REMARK  8 active torsions:
REMARK  status: ('A' for Active; 'I' for Inactive)
REMARK    1  A    between atoms: O_3  and  C_9
REMARK    2  A    between atoms: O_4  and  C_23
REMARK    3  A    between atoms: O_4  and  C_31
REMARK    4  A    between atoms: N_5  and  C_8
REMARK    5  A    between atoms: N_6  and  C_10
REMARK    6  A    between atoms: N_6  and  C_18
REMARK    7  A    between atoms: N_7  and  C_19
REMARK    8  A    between atoms: C_18  and  C_20
REMARK                            x       y       z     vdW  Elec       q    Type
REMARK                         _______ _______ _______ _____ _____    ______ ____
ROOT
ATOM      1  O   UNL     1      -3.185  -1.053  25.366  0.00  0.00    -0.343 OA
ATOM      2  O   UNL     1      -4.501  -1.285  23.470  0.00  0.00    -0.347 OA
ATOM      8  C   UNL     1      -2.477   0.030  23.328  0.00  0.00    +0.143 C 
ATOM      9  C   UNL     1      -3.255   1.309  23.720  0.00  0.00    +0.156 C 
ATOM     10  C   UNL     1      -3.890   1.248  25.131  0.00  0.00    +0.116 C 
ATOM     11  C   UNL     1      -4.312  -0.185  25.530  0.00  0.00    +0.166 C 
ATOM     12  C   UNL     1      -3.145  -1.215  23.942  0.00  0.00    +0.270 C 
ATOM     13  C   UNL     1      -5.298  -0.832  24.574  0.00  0.00    +0.196 C 
ENDROOT
BRANCH   8   5
ATOM      5  N   UNL     1      -1.083   0.118  23.766  0.00  0.00    -0.290 NA
ATOM      7  N   UNL     1       1.752  -0.094  23.498  0.00  0.00    -0.327 N 
ATOM     14  C   UNL     1      -0.342   1.076  22.938  0.00  0.00    +0.104 C 
ATOM     15  C   UNL     1      -0.441  -1.200  23.703  0.00  0.00    +0.104 C 
ATOM     16  C   UNL     1       1.104   1.218  23.421  0.00  0.00    +0.120 C 
ATOM     17  C   UNL     1       1.000  -1.134  24.213  0.00  0.00    +0.120 C 
BRANCH   7  19
ATOM     19  C   UNL     1       3.149  -0.180  23.492  0.00  0.00    +0.030 A 
ATOM     21  C   UNL     1       3.914   0.919  23.102  0.00  0.00    +0.023 A 
ATOM     22  C   UNL     1       3.777  -1.364  23.877  0.00  0.00    +0.023 A 
ATOM     25  C   UNL     1       5.305   0.834  23.096  0.00  0.00    +0.002 A 
ATOM     26  C   UNL     1       5.169  -1.450  23.871  0.00  0.00    +0.002 A 
ATOM     29  C   UNL     1       5.934  -0.350  23.480  0.00  0.00    +0.000 A 
ENDBRANCH   7  19
ENDBRANCH   8   5
BRANCH   9   3
ATOM      3  O   UNL     1      -4.302   1.491  22.756  0.00  0.00    -0.388 OA
ATOM     33  H   UNL     1      -4.405   2.447  22.612  0.00  0.00    +0.210 HD
ENDBRANCH   9   3
BRANCH  10   6
ATOM      6  N   UNL     1      -2.950   1.746  26.141  0.00  0.00    -0.305 NA
ATOM     32  H   UNL     1      -1.994   1.614  25.811  0.00  0.00    +0.123 HD
BRANCH   6  18
ATOM     18  C   UNL     1      -3.196   3.149  26.419  0.00  0.00    +0.120 C 
BRANCH  18  20
ATOM     20  C   UNL     1      -2.207   4.042  25.718  0.00  0.00    +0.008 A 
ATOM     23  C   UNL     1      -0.884   3.638  25.537  0.00  0.00    +0.124 A 
ATOM     24  C   UNL     1      -2.627   5.287  25.248  0.00  0.00    +0.008 A 
ATOM     27  C   UNL     1       0.019   4.478  24.886  0.00  0.00    +0.046 A 
ATOM     28  C   UNL     1      -1.723   6.128  24.596  0.00  0.00    +0.001 A 
ATOM     30  C   UNL     1      -0.401   5.723  24.416  0.00  0.00    +0.004 A 
BRANCH  23   4
ATOM      4  O   UNL     1      -0.458   2.426  25.991  0.00  0.00    -0.495 OA
ATOM     31  C   UNL     1       0.573   2.430  26.976  0.00  0.00    +0.277 C 
ENDBRANCH  23   4
ENDBRANCH  18  20
ENDBRANCH   6  18
ENDBRANCH  10   6
TORSDOF 7
ENDMDL
MODEL 8
REMARK VINA RESULT:       4.5      2.045      4.890
REMARK  Name = 28960475
REMARK  8 active torsions:
REMARK  status: ('A' for Active; 'I' for Inactive)
REMARK    1  A    between atoms: O_3  and  C_9
REMARK    2  A    between atoms: O_4  and  C_23
REMARK    3  A    between atoms: O_4  and  C_31
REMARK    4  A    between atoms: N_5  and  C_8
REMARK    5  A    between atoms: N_6  and  C_10
REMARK    6  A    between atoms: N_6  and  C_18
REMARK    7  A    between atoms: N_7  and  C_19
REMARK    8  A    between atoms: C_18  and  C_20
REMARK                            x       y       z     vdW  Elec       q    Type
REMARK                         _______ _______ _______ _____ _____    ______ ____
ROOT
ATOM      1  O   UNL     1      -1.660  -1.808  26.050  0.00  0.00    -0.343 OA
ATOM      2  O   UNL     1      -3.770  -2.184  25.165  0.00  0.00    -0.347 OA
ATOM      8  C   UNL     1      -2.032  -1.343  23.711  0.00  0.00    +0.143 C 
ATOM      9  C   UNL     1      -2.426   0.114  24.047  0.00  0.00    +0.156 C 
ATOM     10  C   UNL     1      -2.254   0.481  25.542  0.00  0.00    +0.116 C 
ATOM     11  C   UNL     1      -2.494  -0.726  26.479  0.00  0.00    +0.166 C 
ATOM     12  C   UNL     1      -2.362  -2.276  24.891  0.00  0.00    +0.270 C 
ATOM     13  C   UNL     1      -3.865  -1.361  26.337  0.00  0.00    +0.196 C 
ENDROOT
BRANCH   8   5
ATOM      5  N   UNL     1      -0.608  -1.432  23.386  0.00  0.00    -0.290 NA
ATOM      7  N   UNL     1       2.147  -0.688  23.513  0.00  0.00    -0.327 N 
ATOM     14  C   UNL     1       0.181  -1.704  24.594  0.00  0.00    +0.104 C 
ATOM     15  C   UNL     1      -0.145  -0.189  22.757  0.00  0.00    +0.104 C 
ATOM     16  C   UNL     1       1.667  -1.855  24.259  0.00  0.00    +0.120 C 
ATOM     17  C   UNL     1       1.329  -0.290  22.360  0.00  0.00    +0.120 C 
BRANCH   7  19
ATOM     19  C   UNL     1       3.517  -0.403  23.477  0.00  0.00    +0.030 A 
ATOM     21  C   UNL     1       4.437  -1.343  23.938  0.00  0.00    +0.023 A 
ATOM     22  C   UNL     1       3.960   0.823  22.981  0.00  0.00    +0.023 A 
ATOM     25  C   UNL     1       5.802  -1.058  23.903  0.00  0.00    +0.002 A 
ATOM     26  C   UNL     1       5.326   1.108  22.946  0.00  0.00    +0.002 A 
ATOM     29  C   UNL     1       6.247   0.167  23.407  0.00  0.00    +0.000 A 
ENDBRANCH   7  19
ENDBRANCH   8   5
BRANCH   9   3
ATOM      3  O   UNL     1      -3.807   0.282  23.693  0.00  0.00    -0.388 OA
ATOM     33  H   UNL     1      -4.287  -0.503  24.006  0.00  0.00    +0.210 HD
ENDBRANCH   9   3
BRANCH  10   6
ATOM      6  N   UNL     1      -0.903   0.994  25.794  0.00  0.00    -0.305 NA
ATOM     32  H   UNL     1      -0.226   0.446  25.263  0.00  0.00    +0.123 HD
BRANCH   6  18
ATOM     18  C   UNL     1      -0.813   2.396  25.427  0.00  0.00    +0.120 C 
BRANCH  18  20
ATOM     20  C   UNL     1      -2.173   3.020  25.259  0.00  0.00    +0.008 A 
ATOM     23  C   UNL     1      -2.734   3.177  23.991  0.00  0.00    +0.124 A 
ATOM     24  C   UNL     1      -2.872   3.445  26.389  0.00  0.00    +0.008 A 
ATOM     27  C   UNL     1      -3.995   3.758  23.854  0.00  0.00    +0.046 A 
ATOM     28  C   UNL     1      -4.134   4.026  26.251  0.00  0.00    +0.001 A 
ATOM     30  C   UNL     1      -4.694   4.182  24.984  0.00  0.00    +0.004 A 
BRANCH  23   4
ATOM      4  O   UNL     1      -2.064   2.768  22.878  0.00  0.00    -0.495 OA
ATOM     31  C   UNL     1      -2.827   2.616  21.682  0.00  0.00    +0.277 C 
ENDBRANCH  23   4
ENDBRANCH  18  20
ENDBRANCH   6  18
ENDBRANCH  10   6
TORSDOF 7
ENDMDL
MODEL 9
REMARK VINA RESULT:       5.3      2.323      5.682
REMARK  Name = 28960475
REMARK  8 active torsions:
REMARK  status: ('A' for Active; 'I' for Inactive)
REMARK    1  A    between atoms: O_3  and  C_9
REMARK    2  A    between atoms: O_4  and  C_23
REMARK    3  A    between atoms: O_4  and  C_31
REMARK    4  A    between atoms: N_5  and  C_8
REMARK    5  A    between atoms: N_6  and  C_10
REMARK    6  A    between atoms: N_6  and  C_18
REMARK    7  A    between atoms: N_7  and  C_19
REMARK    8  A    between atoms: C_18  and  C_20
REMARK                            x       y       z     vdW  Elec       q    Type
REMARK                         _______ _______ _______ _____ _____    ______ ____
ROOT
ATOM      1  O   UNL     1      -2.923  -1.707  26.134  0.00  0.00    -0.343 OA
ATOM      2  O   UNL     1      -2.046  -3.845  25.934  0.00  0.00    -0.347 OA
ATOM      8  C   UNL     1      -0.893  -2.009  24.863  0.00  0.00    +0.143 C 
ATOM      9  C   UNL     1      -1.716  -2.218  23.570  0.00  0.00    +0.156 C 
ATOM     10  C   UNL     1      -3.239  -2.006  23.756  0.00  0.00    +0.116 C 
ATOM     11  C   UNL     1      -3.724  -2.399  25.171  0.00  0.00    +0.166 C 
ATOM     12  C   UNL     1      -1.702  -2.458  26.094  0.00  0.00    +0.270 C 
ATOM     13  C   UNL     1      -3.430  -3.839  25.551  0.00  0.00    +0.196 C 
ENDROOT
BRANCH   8   5
ATOM      5  N   UNL     1      -0.502  -0.606  25.006  0.00  0.00    -0.290 NA
ATOM      7  N   UNL     1      -0.834   2.225  24.828  0.00  0.00    -0.327 N 
ATOM     14  C   UNL     1      -1.414   0.094  25.918  0.00  0.00    +0.104 C 
ATOM     15  C   UNL     1      -0.493   0.061  23.699  0.00  0.00    +0.104 C 
ATOM     16  C   UNL     1      -0.983   1.548  26.120  0.00  0.00    +0.120 C 
ATOM     17  C   UNL     1      -0.030   1.514  23.826  0.00  0.00    +0.120 C 
BRANCH   7  19
ATOM     19  C   UNL     1      -0.874   3.623  24.768  0.00  0.00    +0.030 A 
ATOM     21  C   UNL     1      -0.012   4.308  23.913  0.00  0.00    +0.023 A 
ATOM     22  C   UNL     1      -1.775   4.330  25.563  0.00  0.00    +0.023 A 
ATOM     25  C   UNL     1      -0.050   5.701  23.854  0.00  0.00    +0.002 A 
ATOM     26  C   UNL     1      -1.814   5.723  25.504  0.00  0.00    +0.002 A 
ATOM     29  C   UNL     1      -0.952   6.409  24.648  0.00  0.00    +0.000 A 
ENDBRANCH   7  19
ENDBRANCH   8   5
BRANCH   9   3
ATOM      3  O   UNL     1      -1.494  -3.565  23.128  0.00  0.00    -0.388 OA
ATOM     33  H   UNL     1      -2.173  -3.771  22.463  0.00  0.00    +0.210 HD
ENDBRANCH   9   3
BRANCH  10   6
ATOM      6  N   UNL     1      -3.596  -0.603  23.523  0.00  0.00    -0.305 NA
ATOM     32  H   UNL     1      -3.779  -0.458  22.530  0.00  0.00    +0.123 HD
BRANCH   6  18
ATOM     18  C   UNL     1      -4.762  -0.236  24.307  0.00  0.00    +0.120 C 
BRANCH  18  20
ATOM     20  C   UNL     1      -4.840   1.250  24.536  0.00  0.00    +0.008 A 
ATOM     23  C   UNL     1      -4.111   2.134  23.740  0.00  0.00    +0.124 A 
ATOM     24  C   UNL     1      -5.651   1.740  25.560  0.00  0.00    +0.008 A 
ATOM     27  C   UNL     1      -4.195   3.507  23.967  0.00  0.00    +0.046 A 
ATOM     28  C   UNL     1      -5.735   3.114  25.787  0.00  0.00    +0.001 A 
ATOM     30  C   UNL     1      -5.006   3.997  24.991  0.00  0.00    +0.004 A 
BRANCH  23   4
ATOM      4  O   UNL     1      -3.314   1.672  22.736  0.00  0.00    -0.495 OA
ATOM     31  C   UNL     1      -2.834   2.632  21.797  0.00  0.00    +0.277 C 
ENDBRANCH  23   4
ENDBRANCH  18  20
ENDBRANCH   6  18
ENDBRANCH  10   6
TORSDOF 7
ENDMDL
MODEL 10
REMARK VINA RESULT:       5.5      1.745      4.950
REMARK  Name = 28960475
REMARK  8 active torsions:
REMARK  status: ('A' for Active; 'I' for Inactive)
REMARK    1  A    between atoms: O_3  and  C_9
REMARK    2  A    between atoms: O_4  and  C_23
REMARK    3  A    between atoms: O_4  and  C_31
REMARK    4  A    between atoms: N_5  and  C_8
REMARK    5  A    between atoms: N_6  and  C_10
REMARK    6  A    between atoms: N_6  and  C_18
REMARK    7  A    between atoms: N_7  and  C_19
REMARK    8  A    between atoms: C_18  and  C_20
REMARK                            x       y       z     vdW  Elec       q    Type
REMARK                         _______ _______ _______ _____ _____    ______ ____
ROOT
ATOM      1  O   UNL     1      -2.365   3.526  26.030  0.00  0.00    -0.343 OA
ATOM      2  O   UNL     1      -3.326   5.634  26.141  0.00  0.00    -0.347 OA
ATOM      8  C   UNL     1      -4.220   4.029  24.570  0.00  0.00    +0.143 C 
ATOM      9  C   UNL     1      -3.245   4.524  23.476  0.00  0.00    +0.156 C 
ATOM     10  C   UNL     1      -1.751   4.321  23.830  0.00  0.00    +0.116 C 
ATOM     11  C   UNL     1      -1.483   4.425  25.349  0.00  0.00    +0.166 C 
ATOM     12  C   UNL     1      -3.609   4.235  25.969  0.00  0.00    +0.270 C 
ATOM     13  C   UNL     1      -1.906   5.746  25.967  0.00  0.00    +0.196 C 
ENDROOT
BRANCH   8   5
ATOM      5  N   UNL     1      -4.547   2.616  24.370  0.00  0.00    -0.290 NA
ATOM      7  N   UNL     1      -4.097  -0.203  24.460  0.00  0.00    -0.327 N 
ATOM     14  C   UNL     1      -4.558   1.903  25.653  0.00  0.00    +0.104 C 
ATOM     15  C   UNL     1      -3.584   1.990  23.457  0.00  0.00    +0.104 C 
ATOM     16  C   UNL     1      -4.953   0.436  25.464  0.00  0.00    +0.120 C 
ATOM     17  C   UNL     1      -3.948   0.527  23.194  0.00  0.00    +0.120 C 
BRANCH   7  19
ATOM     19  C   UNL     1      -3.980  -1.597  24.433  0.00  0.00    +0.030 A 
ATOM     21  C   UNL     1      -4.402  -2.310  23.312  0.00  0.00    +0.023 A 
ATOM     22  C   UNL     1      -3.443  -2.273  25.528  0.00  0.00    +0.023 A 
ATOM     25  C   UNL     1      -4.286  -3.700  23.285  0.00  0.00    +0.002 A 
ATOM     26  C   UNL     1      -3.328  -3.663  25.502  0.00  0.00    +0.002 A 
ATOM     29  C   UNL     1      -3.749  -4.377  24.379  0.00  0.00    +0.000 A 
ENDBRANCH   7  19
ENDBRANCH   8   5
BRANCH   9   3
ATOM      3  O   UNL     1      -3.482   5.927  23.288  0.00  0.00    -0.388 OA
ATOM     33  H   UNL     1      -2.932   6.220  22.541  0.00  0.00    +0.210 HD
ENDBRANCH   9   3
BRANCH  10   6
ATOM      6  N   UNL     1      -1.288   3.007  23.373  0.00  0.00    -0.305 NA
ATOM     32  H   UNL     1      -1.045   3.056  22.383  0.00  0.00    +0.123 HD
BRANCH   6  18
ATOM     18  C   UNL     1      -0.141   2.571  24.149  0.00  0.00    +0.120 C 
BRANCH  18  20
ATOM     20  C   UNL     1      -0.263   1.132  24.572  0.00  0.00    +0.008 A 
ATOM     23  C   UNL     1       0.217   0.106  23.758  0.00  0.00    +0.124 A 
ATOM     24  C   UNL     1      -0.864   0.829  25.794  0.00  0.00    +0.008 A 
ATOM     27  C   UNL     1       0.095  -1.223  24.166  0.00  0.00    +0.046 A 
ATOM     28  C   UNL     1      -0.986  -0.500  26.202  0.00  0.00    +0.001 A 
ATOM     30  C   UNL     1      -0.507  -1.525  25.387  0.00  0.00    +0.004 A 
BRANCH  23   4
ATOM      4  O   UNL     1       0.806   0.384  22.561  0.00  0.00    -0.495 OA
ATOM     31  C   UNL     1       2.179   0.026  22.417  0.00  0.00    +0.277 C 
ENDBRANCH  23   4
ENDBRANCH  18  20
ENDBRANCH   6  18
ENDBRANCH  10   6
TORSDOF 7
ENDMDL
