MODEL 1
REMARK VINA RESULT:      -5.1      0.000      0.000
REMARK  Name = 75536988
REMARK  3 active torsions:
REMARK  status: ('A' for Active; 'I' for Inactive)
REMARK    1  A    between atoms: N_6  and  C_17
REMARK    2  A    between atoms: C_7  and  C_13
REMARK    3  A    between atoms: C_17  and  C_18
REMARK                            x       y       z     vdW  Elec       q    Type
REMARK                         _______ _______ _______ _____ _____    ______ ____
ROOT
ATOM      2  O   UNL     1      -2.392 -10.513  14.602  0.00  0.00    -0.275 OA
ATOM      3  O   UNL     1      -5.013  -8.861   8.360  0.00  0.00    -0.252 OA
ATOM      4  N   UNL     1      -4.054 -10.622  12.977  0.00  0.00    -0.298 N 
ATOM      5  N   UNL     1      -4.938  -9.381  10.650  0.00  0.00    -0.278 N 
ATOM      6  N   UNL     1      -6.939  -9.357   9.627  0.00  0.00    -0.279 N 
ATOM      8  C   UNL     1      -5.899  -9.602  11.717  0.00  0.00    +0.112 C 
ATOM     11  C   UNL     1      -5.467 -10.780  12.588  0.00  0.00    +0.132 C 
ATOM     12  C   UNL     1      -7.221  -9.802  10.980  0.00  0.00    +0.133 C 
ATOM     13  C   UNL     1      -3.575 -10.627  14.288  0.00  0.00    +0.219 C 
ATOM     14  C   UNL     1      -3.118 -10.471  11.853  0.00  0.00    +0.127 C 
ATOM     15  C   UNL     1      -3.522  -9.301  10.959  0.00  0.00    +0.128 C 
ATOM     16  C   UNL     1      -5.560  -9.159   9.414  0.00  0.00    +0.306 C 
ENDROOT
BRANCH  13   7
ATOM      7  C   UNL     1      -4.579 -10.781  15.383  0.00  0.00    +0.075 C 
ATOM      9  C   UNL     1      -4.976  -9.571  16.160  0.00  0.00    +0.013 C 
ATOM     10  C   UNL     1      -4.121 -10.627  16.794  0.00  0.00    +0.013 C 
ENDBRANCH  13   7
BRANCH   6  17
ATOM     17  C   UNL     1      -7.970  -9.280   8.616  0.00  0.00    +0.144 C 
BRANCH  17  18
ATOM      1  F   UNL     1     -10.720  -4.370   8.781  0.00  0.00    -0.205 F 
ATOM     18  C   UNL     1      -8.703  -7.971   8.660  0.00  0.00    -0.030 A 
ATOM     19  C   UNL     1      -8.096  -6.814   8.170  0.00  0.00    +0.008 A 
ATOM     20  C   UNL     1      -9.992  -7.910   9.191  0.00  0.00    +0.008 A 
ATOM     21  C   UNL     1      -8.777  -5.598   8.211  0.00  0.00    +0.038 A 
ATOM     22  C   UNL     1     -10.673  -6.693   9.231  0.00  0.00    +0.038 A 
ATOM     23  C   UNL     1     -10.065  -5.537   8.743  0.00  0.00    +0.123 A 
ENDBRANCH  17  18
ENDBRANCH   6  17
TORSDOF 3
ENDMDL
MODEL 2
REMARK VINA RESULT:      -2.3     16.637     18.799
REMARK  Name = 75536988
REMARK  3 active torsions:
REMARK  status: ('A' for Active; 'I' for Inactive)
REMARK    1  A    between atoms: N_6  and  C_17
REMARK    2  A    between atoms: C_7  and  C_13
REMARK    3  A    between atoms: C_17  and  C_18
REMARK                            x       y       z     vdW  Elec       q    Type
REMARK                         _______ _______ _______ _____ _____    ______ ____
ROOT
ATOM      2  O   UNL     1      -4.968   2.685  26.196  0.00  0.00    -0.275 OA
ATOM      3  O   UNL     1      -0.600  -2.282  24.004  0.00  0.00    -0.252 OA
ATOM      4  N   UNL     1      -3.382   1.853  24.711  0.00  0.00    -0.298 N 
ATOM      5  N   UNL     1      -1.460  -0.138  24.435  0.00  0.00    -0.278 N 
ATOM      6  N   UNL     1       0.339  -0.316  23.101  0.00  0.00    -0.279 N 
ATOM      8  C   UNL     1      -1.070   1.234  24.160  0.00  0.00    +0.112 C 
ATOM     11  C   UNL     1      -2.286   2.061  23.747  0.00  0.00    +0.132 C 
ATOM     12  C   UNL     1       0.005   1.097  23.085  0.00  0.00    +0.133 C 
ATOM     13  C   UNL     1      -4.043   2.866  25.408  0.00  0.00    +0.219 C 
ATOM     14  C   UNL     1      -3.781   0.450  24.900  0.00  0.00    +0.127 C 
ATOM     15  C   UNL     1      -2.586  -0.407  25.311  0.00  0.00    +0.128 C 
ATOM     16  C   UNL     1      -0.575  -1.065  23.867  0.00  0.00    +0.306 C 
ENDROOT
BRANCH  13   7
ATOM      7  C   UNL     1      -3.586   4.269  25.173  0.00  0.00    +0.075 C 
ATOM      9  C   UNL     1      -2.144   4.590  25.373  0.00  0.00    +0.013 C 
ATOM     10  C   UNL     1      -3.168   5.086  26.348  0.00  0.00    +0.013 C 
ENDBRANCH  13   7
BRANCH   6  17
ATOM     17  C   UNL     1       1.409  -0.859  22.293  0.00  0.00    +0.144 C 
BRANCH  17  18
ATOM      1  F   UNL     1       6.479   0.628  24.238  0.00  0.00    -0.205 F 
ATOM     18  C   UNL     1       2.761  -0.463  22.811  0.00  0.00    -0.030 A 
ATOM     19  C   UNL     1       3.513  -1.366  23.562  0.00  0.00    +0.008 A 
ATOM     20  C   UNL     1       3.266   0.810  22.544  0.00  0.00    +0.008 A 
ATOM     21  C   UNL     1       4.769  -0.999  24.044  0.00  0.00    +0.038 A 
ATOM     22  C   UNL     1       4.522   1.178  23.025  0.00  0.00    +0.038 A 
ATOM     23  C   UNL     1       5.272   0.274  23.777  0.00  0.00    +0.123 A 
ENDBRANCH  17  18
ENDBRANCH   6  17
TORSDOF 3
ENDMDL
MODEL 3
REMARK VINA RESULT:      -1.3      1.842      2.455
REMARK  Name = 75536988
REMARK  3 active torsions:
REMARK  status: ('A' for Active; 'I' for Inactive)
REMARK    1  A    between atoms: N_6  and  C_17
REMARK    2  A    between atoms: C_7  and  C_13
REMARK    3  A    between atoms: C_17  and  C_18
REMARK                            x       y       z     vdW  Elec       q    Type
REMARK                         _______ _______ _______ _____ _____    ______ ____
ROOT
ATOM      2  O   UNL     1       0.026  -8.803  13.371  0.00  0.00    -0.275 OA
ATOM      3  O   UNL     1      -4.607  -9.579   8.224  0.00  0.00    -0.252 OA
ATOM      4  N   UNL     1      -1.876  -9.774  12.448  0.00  0.00    -0.298 N 
ATOM      5  N   UNL     1      -3.734  -9.459  10.402  0.00  0.00    -0.278 N 
ATOM      6  N   UNL     1      -5.820 -10.246  10.133  0.00  0.00    -0.279 N 
ATOM      8  C   UNL     1      -4.229  -9.656  11.753  0.00  0.00    +0.112 C 
ATOM     11  C   UNL     1      -3.199 -10.408  12.594  0.00  0.00    +0.132 C 
ATOM     12  C   UNL     1      -5.551 -10.393  11.552  0.00  0.00    +0.133 C 
ATOM     13  C   UNL     1      -1.084  -9.314  13.501  0.00  0.00    +0.219 C 
ATOM     14  C   UNL     1      -1.395  -9.663  11.063  0.00  0.00    +0.127 C 
ATOM     15  C   UNL     1      -2.403  -8.917  10.193  0.00  0.00    +0.128 C 
ATOM     16  C   UNL     1      -4.708  -9.738   9.434  0.00  0.00    +0.306 C 
ENDROOT
BRANCH  13   7
ATOM      7  C   UNL     1      -1.634  -9.455  14.883  0.00  0.00    +0.075 C 
ATOM      9  C   UNL     1      -0.678  -9.636  16.013  0.00  0.00    +0.013 C 
ATOM     10  C   UNL     1      -1.530 -10.781  15.556  0.00  0.00    +0.013 C 
ENDBRANCH  13   7
BRANCH   6  17
ATOM     17  C   UNL     1      -7.052 -10.716   9.535  0.00  0.00    +0.144 C 
BRANCH  17  18
ATOM      1  F   UNL     1     -10.716  -6.526   8.693  0.00  0.00    -0.205 F 
ATOM     18  C   UNL     1      -8.029  -9.599   9.311  0.00  0.00    -0.030 A 
ATOM     19  C   UNL     1      -9.213  -9.548  10.047  0.00  0.00    +0.008 A 
ATOM     20  C   UNL     1      -7.754  -8.610   8.365  0.00  0.00    +0.008 A 
ATOM     21  C   UNL     1     -10.120  -8.511   9.839  0.00  0.00    +0.038 A 
ATOM     22  C   UNL     1      -8.662  -7.573   8.157  0.00  0.00    +0.038 A 
ATOM     23  C   UNL     1      -9.845  -7.523   8.893  0.00  0.00    +0.123 A 
ENDBRANCH  17  18
ENDBRANCH   6  17
TORSDOF 3
ENDMDL
