MODEL 1
REMARK VINA RESULT:       8.9      0.000      0.000
REMARK  Name = 51136860
REMARK  4 active torsions:
REMARK  status: ('A' for Active; 'I' for Inactive)
REMARK    1  A    between atoms: N_3  and  C_9
REMARK    2  A    between atoms: N_6  and  C_26
REMARK    3  A    between atoms: C_10  and  C_16
REMARK    4  A    between atoms: C_19  and  C_24
REMARK                            x       y       z     vdW  Elec       q    Type
REMARK                         _______ _______ _______ _____ _____    ______ ____
ROOT
ATOM      2  O   UNL     1      -2.981   2.933  23.322  0.00  0.00    -0.336 OA
ATOM      4  N   UNL     1      -2.200   0.966  24.057  0.00  0.00    -0.190 NA
ATOM      7  N   UNL     1      -1.611   2.923  23.028  0.00  0.00    -0.056 NA
ATOM     16  C   UNL     1      -3.245   1.746  23.926  0.00  0.00    +0.245 A 
ATOM     19  C   UNL     1      -1.222   1.731  23.491  0.00  0.00    +0.204 A 
ENDROOT
BRANCH  19  24
ATOM      5  N   UNL     1       4.069   0.044  23.208  0.00  0.00    -0.313 N 
ATOM      6  N   UNL     1       6.819  -0.725  23.287  0.00  0.00    -0.302 NA
ATOM      8  N   UNL     1       2.476   1.666  23.865  0.00  0.00    -0.240 NA
ATOM     20  C   UNL     1       5.121   1.063  23.109  0.00  0.00    +0.122 C 
ATOM     21  C   UNL     1       4.462  -1.214  23.852  0.00  0.00    +0.122 C 
ATOM     22  C   UNL     1       6.400   0.458  22.525  0.00  0.00    +0.103 C 
ATOM     23  C   UNL     1       5.764  -1.744  23.245  0.00  0.00    +0.103 C 
ATOM     24  C   UNL     1       0.135   1.276  23.407  0.00  0.00    +0.041 A 
ATOM     25  C   UNL     1       2.740   0.475  23.283  0.00  0.00    +0.121 A 
ATOM     26  C   UNL     1       8.071  -1.260  22.753  0.00  0.00    +0.105 C 
ATOM     27  C   UNL     1       0.446   0.057  22.815  0.00  0.00    +0.016 A 
ATOM     28  C   UNL     1       1.771  -0.358  22.747  0.00  0.00    +0.044 A 
ATOM     29  C   UNL     1       1.176   2.037  23.912  0.00  0.00    +0.124 A 
ENDBRANCH  19  24
BRANCH  16  10
ATOM      3  N   UNL     1      -4.782   0.753  25.613  0.00  0.00    -0.288 NA
ATOM     10  C   UNL     1      -4.680   1.507  24.347  0.00  0.00    +0.146 C 
ATOM     11  C   UNL     1      -6.027   1.181  26.249  0.00  0.00    +0.085 C 
ATOM     12  C   UNL     1      -5.448   2.815  24.609  0.00  0.00    +0.030 C 
ATOM     13  C   UNL     1      -5.997   2.679  26.022  0.00  0.00    +0.017 C 
BRANCH   3   9
ATOM      1  O   UNL     1      -3.370  -2.996  24.354  0.00  0.00    -0.380 OA
ATOM      9  C   UNL     1      -4.730  -0.696  25.426  0.00  0.00    +0.062 C 
ATOM     14  C   UNL     1      -4.751  -1.041  23.934  0.00  0.00    +0.047 C 
ATOM     15  C   UNL     1      -3.483  -1.293  26.084  0.00  0.00    +0.047 C 
ATOM     17  C   UNL     1      -4.574  -2.542  23.734  0.00  0.00    +0.161 C 
ATOM     18  C   UNL     1      -3.375  -2.780  25.765  0.00  0.00    +0.161 C 
ENDBRANCH   3   9
ENDBRANCH  16  10
TORSDOF 3
ENDMDL
MODEL 2
REMARK VINA RESULT:      10.0      1.960      3.797
REMARK  Name = 51136860
REMARK  4 active torsions:
REMARK  status: ('A' for Active; 'I' for Inactive)
REMARK    1  A    between atoms: N_3  and  C_9
REMARK    2  A    between atoms: N_6  and  C_26
REMARK    3  A    between atoms: C_10  and  C_16
REMARK    4  A    between atoms: C_19  and  C_24
REMARK                            x       y       z     vdW  Elec       q    Type
REMARK                         _______ _______ _______ _____ _____    ______ ____
ROOT
ATOM      2  O   UNL     1      -3.956  -0.395  24.553  0.00  0.00    -0.336 OA
ATOM      4  N   UNL     1      -2.464   1.242  24.892  0.00  0.00    -0.190 NA
ATOM      7  N   UNL     1      -2.712  -0.918  24.176  0.00  0.00    -0.056 NA
ATOM     16  C   UNL     1      -3.721   0.879  24.962  0.00  0.00    +0.245 A 
ATOM     19  C   UNL     1      -1.884   0.106  24.405  0.00  0.00    +0.204 A 
ENDROOT
BRANCH  19  24
ATOM      5  N   UNL     1       3.577  -0.286  23.435  0.00  0.00    -0.313 N 
ATOM      6  N   UNL     1       6.332  -0.674  22.783  0.00  0.00    -0.302 NA
ATOM      8  N   UNL     1       1.478  -1.335  23.741  0.00  0.00    -0.240 NA
ATOM     20  C   UNL     1       4.286  -1.482  23.910  0.00  0.00    +0.122 C 
ATOM     21  C   UNL     1       4.150   0.362  22.251  0.00  0.00    +0.122 C 
ATOM     22  C   UNL     1       5.785  -1.202  24.039  0.00  0.00    +0.103 C 
ATOM     23  C   UNL     1       5.654   0.580  22.432  0.00  0.00    +0.103 C 
ATOM     24  C   UNL     1      -0.474   0.030  24.156  0.00  0.00    +0.041 A 
ATOM     25  C   UNL     1       2.203  -0.196  23.680  0.00  0.00    +0.121 A 
ATOM     26  C   UNL     1       7.774  -0.462  22.901  0.00  0.00    +0.105 C 
ATOM     27  C   UNL     1       0.305   1.179  24.086  0.00  0.00    +0.016 A 
ATOM     28  C   UNL     1       1.670   1.073  23.843  0.00  0.00    +0.044 A 
ATOM     29  C   UNL     1       0.154  -1.192  23.979  0.00  0.00    +0.124 A 
ENDBRANCH  19  24
BRANCH  16  10
ATOM      3  N   UNL     1      -5.196   2.845  24.575  0.00  0.00    -0.288 NA
ATOM     10  C   UNL     1      -4.924   1.671  25.428  0.00  0.00    +0.146 C 
ATOM     11  C   UNL     1      -6.639   3.079  24.642  0.00  0.00    +0.085 C 
ATOM     12  C   UNL     1      -6.227   0.851  25.391  0.00  0.00    +0.030 C 
ATOM     13  C   UNL     1      -7.190   1.671  24.546  0.00  0.00    +0.017 C 
BRANCH   3   9
ATOM      1  O   UNL     1      -1.897   5.199  25.674  0.00  0.00    -0.380 OA
ATOM      9  C   UNL     1      -4.429   4.028  24.961  0.00  0.00    +0.062 C 
ATOM     14  C   UNL     1      -3.785   3.820  26.335  0.00  0.00    +0.047 C 
ATOM     15  C   UNL     1      -3.351   4.349  23.921  0.00  0.00    +0.047 C 
ATOM     17  C   UNL     1      -2.886   5.000  26.684  0.00  0.00    +0.161 C 
ATOM     18  C   UNL     1      -2.475   5.500  24.404  0.00  0.00    +0.161 C 
ENDBRANCH   3   9
ENDBRANCH  16  10
TORSDOF 3
ENDMDL
MODEL 3
REMARK VINA RESULT:      11.0      1.868      3.564
REMARK  Name = 51136860
REMARK  4 active torsions:
REMARK  status: ('A' for Active; 'I' for Inactive)
REMARK    1  A    between atoms: N_3  and  C_9
REMARK    2  A    between atoms: N_6  and  C_26
REMARK    3  A    between atoms: C_10  and  C_16
REMARK    4  A    between atoms: C_19  and  C_24
REMARK                            x       y       z     vdW  Elec       q    Type
REMARK                         _______ _______ _______ _____ _____    ______ ____
ROOT
ATOM      2  O   UNL     1      -3.825  -0.382  24.288  0.00  0.00    -0.336 OA
ATOM      4  N   UNL     1      -2.274   1.123  24.877  0.00  0.00    -0.190 NA
ATOM      7  N   UNL     1      -2.593  -0.914  23.883  0.00  0.00    -0.056 NA
ATOM     16  C   UNL     1      -3.547   0.816  24.863  0.00  0.00    +0.245 A 
ATOM     19  C   UNL     1      -1.728   0.031  24.265  0.00  0.00    +0.204 A 
ENDROOT
BRANCH  19  24
ATOM      5  N   UNL     1       3.756  -0.317  23.420  0.00  0.00    -0.313 N 
ATOM      6  N   UNL     1       6.597  -0.288  23.117  0.00  0.00    -0.302 NA
ATOM      8  N   UNL     1       1.801   1.002  23.616  0.00  0.00    -0.240 NA
ATOM     20  C   UNL     1       4.396   0.691  22.564  0.00  0.00    +0.122 C 
ATOM     21  C   UNL     1       4.612  -0.904  24.456  0.00  0.00    +0.122 C 
ATOM     22  C   UNL     1       5.729   0.169  22.024  0.00  0.00    +0.103 C 
ATOM     23  C   UNL     1       5.940  -1.373  23.855  0.00  0.00    +0.103 C 
ATOM     24  C   UNL     1      -0.316  -0.083  24.049  0.00  0.00    +0.041 A 
ATOM     25  C   UNL     1       2.377  -0.222  23.631  0.00  0.00    +0.121 A 
ATOM     26  C   UNL     1       7.888  -0.733  22.593  0.00  0.00    +0.105 C 
ATOM     27  C   UNL     1       0.312  -1.323  24.058  0.00  0.00    +0.016 A 
ATOM     28  C   UNL     1       1.684  -1.403  23.845  0.00  0.00    +0.044 A 
ATOM     29  C   UNL     1       0.466   1.039  23.826  0.00  0.00    +0.124 A 
ENDBRANCH  19  24
BRANCH  16  10
ATOM      3  N   UNL     1      -5.041   2.784  24.564  0.00  0.00    -0.288 NA
ATOM     10  C   UNL     1      -4.729   1.602  25.392  0.00  0.00    +0.146 C 
ATOM     11  C   UNL     1      -6.479   3.015  24.700  0.00  0.00    +0.085 C 
ATOM     12  C   UNL     1      -6.031   0.779  25.405  0.00  0.00    +0.030 C 
ATOM     13  C   UNL     1      -7.033   1.607  24.613  0.00  0.00    +0.017 C 
BRANCH   3   9
ATOM      1  O   UNL     1      -1.713   5.114  25.626  0.00  0.00    -0.380 OA
ATOM      9  C   UNL     1      -4.258   3.964  24.928  0.00  0.00    +0.062 C 
ATOM     14  C   UNL     1      -3.623   3.776  26.309  0.00  0.00    +0.047 C 
ATOM     15  C   UNL     1      -3.172   4.248  23.886  0.00  0.00    +0.047 C 
ATOM     17  C   UNL     1      -2.709   4.952  26.636  0.00  0.00    +0.161 C 
ATOM     18  C   UNL     1      -2.282   5.396  24.347  0.00  0.00    +0.161 C 
ENDBRANCH   3   9
ENDBRANCH  16  10
TORSDOF 3
ENDMDL
