MODEL 1
REMARK VINA RESULT:      -5.8      0.000      0.000
REMARK  Name = 75536846
REMARK  9 active torsions:
REMARK  status: ('A' for Active; 'I' for Inactive)
REMARK    1  A    between atoms: O_2  and  C_7
REMARK    2  A    between atoms: O_3  and  C_12
REMARK    3  A    between atoms: O_3  and  C_13
REMARK    4  A    between atoms: N_5  and  C_9
REMARK    5  A    between atoms: N_6  and  C_11
REMARK    6  A    between atoms: C_8  and  C_11
REMARK    7  A    between atoms: C_12  and  C_14
REMARK    8  A    between atoms: C_12  and  C_15
REMARK    9  A    between atoms: C_12  and  C_16
REMARK                            x       y       z     vdW  Elec       q    Type
REMARK                         _______ _______ _______ _____ _____    ______ ____
ROOT
ATOM      1  O   UNL     1      -3.864   2.488  23.444  0.00  0.00    -0.371 OA
ATOM      7  C   UNL     1      -3.428   3.185  25.663  0.00  0.00    +0.164 C 
ATOM      8  C   UNL     1      -2.866   3.140  24.248  0.00  0.00    +0.165 C 
ATOM      9  C   UNL     1      -4.907   3.380  25.383  0.00  0.00    +0.108 C 
ATOM     10  C   UNL     1      -5.105   2.485  24.171  0.00  0.00    +0.181 C 
ENDROOT
BRANCH   9   5
ATOM      5  N   UNL     1      -5.765   3.018  26.500  0.00  0.00    -0.323 NA
ATOM     17  H   UNL     1      -5.410   2.173  26.946  0.00  0.00    +0.119 HD
ATOM     18  H   UNL     1      -6.699   2.797  26.158  0.00  0.00    +0.119 HD
ENDBRANCH   9   5
BRANCH   7   2
ATOM      2  O   UNL     1      -2.871   4.242  26.419  0.00  0.00    -0.388 OA
ATOM     19  H   UNL     1      -2.980   4.031  27.362  0.00  0.00    +0.210 HD
ENDBRANCH   7   2
BRANCH   8  11
ATOM     11  C   UNL     1      -1.552   2.385  24.147  0.00  0.00    +0.141 C 
BRANCH  11   6
ATOM      4  O   UNL     1      -0.985   0.224  26.004  0.00  0.00    -0.226 OA
ATOM      6  N   UNL     1      -1.771   0.981  23.955  0.00  0.00    -0.279 N 
ATOM     13  C   UNL     1      -1.470   0.012  24.897  0.00  0.00    +0.401 C 
ATOM     20  H   UNL     1      -2.165   0.673  23.070  0.00  0.00    +0.152 HD
BRANCH  13   3
ATOM      3  O   UNL     1      -1.794  -1.226  24.416  0.00  0.00    -0.445 OA
BRANCH   3  12
ATOM     12  C   UNL     1      -3.111  -1.693  24.732  0.00  0.00    +0.107 C 
ATOM     14  C   UNL     1      -4.097  -1.071  23.743  0.00  0.00    +0.055 C 
ATOM     15  C   UNL     1      -3.443  -1.280  26.165  0.00  0.00    +0.055 C 
ATOM     16  C   UNL     1      -3.103  -3.214  24.599  0.00  0.00    +0.055 C 
ENDBRANCH   3  12
ENDBRANCH  13   3
ENDBRANCH  11   6
ENDBRANCH   8  11
TORSDOF 6
ENDMDL
MODEL 2
REMARK VINA RESULT:      -5.5      2.074      3.282
REMARK  Name = 75536846
REMARK  9 active torsions:
REMARK  status: ('A' for Active; 'I' for Inactive)
REMARK    1  A    between atoms: O_2  and  C_7
REMARK    2  A    between atoms: O_3  and  C_12
REMARK    3  A    between atoms: O_3  and  C_13
REMARK    4  A    between atoms: N_5  and  C_9
REMARK    5  A    between atoms: N_6  and  C_11
REMARK    6  A    between atoms: C_8  and  C_11
REMARK    7  A    between atoms: C_12  and  C_14
REMARK    8  A    between atoms: C_12  and  C_15
REMARK    9  A    between atoms: C_12  and  C_16
REMARK                            x       y       z     vdW  Elec       q    Type
REMARK                         _______ _______ _______ _____ _____    ______ ____
ROOT
ATOM      1  O   UNL     1      -2.093   4.065  24.739  0.00  0.00    -0.371 OA
ATOM      7  C   UNL     1      -1.024   1.958  24.614  0.00  0.00    +0.164 C 
ATOM      8  C   UNL     1      -1.903   2.946  23.857  0.00  0.00    +0.165 C 
ATOM      9  C   UNL     1      -0.128   2.902  25.394  0.00  0.00    +0.108 C 
ATOM     10  C   UNL     1      -1.110   3.994  25.785  0.00  0.00    +0.181 C 
ENDROOT
BRANCH   9   5
ATOM      5  N   UNL     1       0.516   2.281  26.540  0.00  0.00    -0.323 NA
ATOM     17  H   UNL     1       0.805   3.000  27.203  0.00  0.00    +0.119 HD
ATOM     18  H   UNL     1       1.364   1.803  26.240  0.00  0.00    +0.119 HD
ENDBRANCH   9   5
BRANCH   7   2
ATOM      2  O   UNL     1      -0.300   1.116  23.738  0.00  0.00    -0.388 OA
ATOM     19  H   UNL     1      -0.361   1.486  22.841  0.00  0.00    +0.210 HD
ENDBRANCH   7   2
BRANCH   8  11
ATOM     11  C   UNL     1      -3.250   2.370  23.459  0.00  0.00    +0.141 C 
BRANCH  11   6
ATOM      4  O   UNL     1      -4.939   0.444  24.828  0.00  0.00    -0.226 OA
ATOM      6  N   UNL     1      -3.200   0.939  23.373  0.00  0.00    -0.279 N 
ATOM     13  C   UNL     1      -4.048   0.090  24.064  0.00  0.00    +0.401 C 
ATOM     20  H   UNL     1      -2.494   0.519  22.775  0.00  0.00    +0.152 HD
BRANCH  13   3
ATOM      3  O   UNL     1      -3.748  -1.211  23.771  0.00  0.00    -0.445 OA
BRANCH   3  12
ATOM     12  C   UNL     1      -3.039  -1.931  24.785  0.00  0.00    +0.107 C 
ATOM     14  C   UNL     1      -3.289  -1.250  26.130  0.00  0.00    +0.055 C 
ATOM     15  C   UNL     1      -1.550  -1.922  24.438  0.00  0.00    +0.055 C 
ATOM     16  C   UNL     1      -3.579  -3.360  24.798  0.00  0.00    +0.055 C 
ENDBRANCH   3  12
ENDBRANCH  13   3
ENDBRANCH  11   6
ENDBRANCH   8  11
TORSDOF 6
ENDMDL
MODEL 3
REMARK VINA RESULT:      -5.5      1.964      5.270
REMARK  Name = 75536846
REMARK  9 active torsions:
REMARK  status: ('A' for Active; 'I' for Inactive)
REMARK    1  A    between atoms: O_2  and  C_7
REMARK    2  A    between atoms: O_3  and  C_12
REMARK    3  A    between atoms: O_3  and  C_13
REMARK    4  A    between atoms: N_5  and  C_9
REMARK    5  A    between atoms: N_6  and  C_11
REMARK    6  A    between atoms: C_8  and  C_11
REMARK    7  A    between atoms: C_12  and  C_14
REMARK    8  A    between atoms: C_12  and  C_15
REMARK    9  A    between atoms: C_12  and  C_16
REMARK                            x       y       z     vdW  Elec       q    Type
REMARK                         _______ _______ _______ _____ _____    ______ ____
ROOT
ATOM      1  O   UNL     1      -4.713  -1.513  24.251  0.00  0.00    -0.371 OA
ATOM      7  C   UNL     1      -2.544  -0.949  25.008  0.00  0.00    +0.164 C 
ATOM      8  C   UNL     1      -4.029  -0.655  25.179  0.00  0.00    +0.165 C 
ATOM      9  C   UNL     1      -2.573  -2.436  24.709  0.00  0.00    +0.108 C 
ATOM     10  C   UNL     1      -3.803  -2.542  23.824  0.00  0.00    +0.181 C 
ENDROOT
BRANCH   9   5
ATOM      5  N   UNL     1      -1.366  -2.925  24.062  0.00  0.00    -0.323 NA
ATOM     17  H   UNL     1      -1.428  -2.771  23.057  0.00  0.00    +0.119 HD
ATOM     18  H   UNL     1      -1.286  -3.931  24.200  0.00  0.00    +0.119 HD
ENDBRANCH   9   5
BRANCH   7   2
ATOM      2  O   UNL     1      -1.806  -0.640  26.174  0.00  0.00    -0.388 OA
ATOM     19  H   UNL     1      -2.145  -1.187  26.902  0.00  0.00    +0.210 HD
ENDBRANCH   7   2
BRANCH   8  11
ATOM     11  C   UNL     1      -4.390   0.793  24.903  0.00  0.00    +0.141 C 
BRANCH  11   6
ATOM      4  O   UNL     1      -4.162   3.301  23.454  0.00  0.00    -0.226 OA
ATOM      6  N   UNL     1      -3.217   1.597  24.716  0.00  0.00    -0.279 N 
ATOM     13  C   UNL     1      -3.195   2.786  24.006  0.00  0.00    +0.401 C 
ATOM     20  H   UNL     1      -2.344   1.273  25.121  0.00  0.00    +0.152 HD
BRANCH  13   3
ATOM      3  O   UNL     1      -1.933   3.310  24.010  0.00  0.00    -0.445 OA
BRANCH   3  12
ATOM     12  C   UNL     1      -1.519   3.932  25.231  0.00  0.00    +0.107 C 
ATOM     14  C   UNL     1      -2.747   4.118  26.123  0.00  0.00    +0.055 C 
ATOM     15  C   UNL     1      -0.878   5.279  24.899  0.00  0.00    +0.055 C 
ATOM     16  C   UNL     1      -0.506   3.005  25.900  0.00  0.00    +0.055 C 
ENDBRANCH   3  12
ENDBRANCH  13   3
ENDBRANCH  11   6
ENDBRANCH   8  11
TORSDOF 6
ENDMDL
MODEL 4
REMARK VINA RESULT:      -5.5      2.107      2.442
REMARK  Name = 75536846
REMARK  9 active torsions:
REMARK  status: ('A' for Active; 'I' for Inactive)
REMARK    1  A    between atoms: O_2  and  C_7
REMARK    2  A    between atoms: O_3  and  C_12
REMARK    3  A    between atoms: O_3  and  C_13
REMARK    4  A    between atoms: N_5  and  C_9
REMARK    5  A    between atoms: N_6  and  C_11
REMARK    6  A    between atoms: C_8  and  C_11
REMARK    7  A    between atoms: C_12  and  C_14
REMARK    8  A    between atoms: C_12  and  C_15
REMARK    9  A    between atoms: C_12  and  C_16
REMARK                            x       y       z     vdW  Elec       q    Type
REMARK                         _______ _______ _______ _____ _____    ______ ____
ROOT
ATOM      1  O   UNL     1      -1.031   2.426  23.441  0.00  0.00    -0.371 OA
ATOM      7  C   UNL     1      -0.479   2.294  25.737  0.00  0.00    +0.164 C 
ATOM      8  C   UNL     1       0.057   2.106  24.324  0.00  0.00    +0.165 C 
ATOM      9  C   UNL     1      -1.419   3.468  25.540  0.00  0.00    +0.108 C 
ATOM     10  C   UNL     1      -2.031   3.140  24.188  0.00  0.00    +0.181 C 
ENDROOT
BRANCH   9   5
ATOM      5  N   UNL     1      -2.412   3.604  26.593  0.00  0.00    -0.323 NA
ATOM     17  H   UNL     1      -3.335   3.731  26.181  0.00  0.00    +0.119 HD
ATOM     18  H   UNL     1      -2.219   4.441  27.141  0.00  0.00    +0.119 HD
ENDBRANCH   9   5
BRANCH   7   2
ATOM      2  O   UNL     1       0.555   2.571  26.662  0.00  0.00    -0.388 OA
ATOM     19  H   UNL     1       1.334   2.046  26.413  0.00  0.00    +0.210 HD
ENDBRANCH   7   2
BRANCH   8  11
ATOM     11  C   UNL     1       0.545   0.695  24.049  0.00  0.00    +0.141 C 
BRANCH  11   6
ATOM      4  O   UNL     1      -0.463  -1.480  25.690  0.00  0.00    -0.226 OA
ATOM      6  N   UNL     1      -0.549  -0.188  23.763  0.00  0.00    -0.279 N 
ATOM     13  C   UNL     1      -0.966  -1.205  24.605  0.00  0.00    +0.401 C 
ATOM     20  H   UNL     1      -1.046  -0.067  22.885  0.00  0.00    +0.152 HD
BRANCH  13   3
ATOM      3  O   UNL     1      -2.027  -1.865  24.053  0.00  0.00    -0.445 OA
BRANCH   3  12
ATOM     12  C   UNL     1      -3.323  -1.428  24.477  0.00  0.00    +0.107 C 
ATOM     14  C   UNL     1      -3.580  -0.035  23.901  0.00  0.00    +0.055 C 
ATOM     15  C   UNL     1      -3.351  -1.399  26.005  0.00  0.00    +0.055 C 
ATOM     16  C   UNL     1      -4.345  -2.428  23.940  0.00  0.00    +0.055 C 
ENDBRANCH   3  12
ENDBRANCH  13   3
ENDBRANCH  11   6
ENDBRANCH   8  11
TORSDOF 6
ENDMDL
MODEL 5
REMARK VINA RESULT:      -5.3      1.665      2.183
REMARK  Name = 75536846
REMARK  9 active torsions:
REMARK  status: ('A' for Active; 'I' for Inactive)
REMARK    1  A    between atoms: O_2  and  C_7
REMARK    2  A    between atoms: O_3  and  C_12
REMARK    3  A    between atoms: O_3  and  C_13
REMARK    4  A    between atoms: N_5  and  C_9
REMARK    5  A    between atoms: N_6  and  C_11
REMARK    6  A    between atoms: C_8  and  C_11
REMARK    7  A    between atoms: C_12  and  C_14
REMARK    8  A    between atoms: C_12  and  C_15
REMARK    9  A    between atoms: C_12  and  C_16
REMARK                            x       y       z     vdW  Elec       q    Type
REMARK                         _______ _______ _______ _____ _____    ______ ____
ROOT
ATOM      1  O   UNL     1      -0.480   3.684  25.436  0.00  0.00    -0.371 OA
ATOM      7  C   UNL     1      -2.492   2.575  24.872  0.00  0.00    +0.164 C 
ATOM      8  C   UNL     1      -1.133   2.407  25.539  0.00  0.00    +0.165 C 
ATOM      9  C   UNL     1      -2.825   4.008  25.243  0.00  0.00    +0.108 C 
ATOM     10  C   UNL     1      -1.466   4.677  25.109  0.00  0.00    +0.181 C 
ENDROOT
BRANCH   9   5
ATOM      5  N   UNL     1      -3.839   4.610  24.393  0.00  0.00    -0.323 NA
ATOM     17  H   UNL     1      -4.362   3.880  23.912  0.00  0.00    +0.119 HD
ATOM     18  H   UNL     1      -3.391   5.172  23.670  0.00  0.00    +0.119 HD
ENDBRANCH   9   5
BRANCH   7   2
ATOM      2  O   UNL     1      -3.440   1.649  25.365  0.00  0.00    -0.388 OA
ATOM     19  H   UNL     1      -3.355   0.826  24.855  0.00  0.00    +0.210 HD
ENDBRANCH   7   2
BRANCH   8  11
ATOM     11  C   UNL     1      -0.274   1.336  24.892  0.00  0.00    +0.141 C 
BRANCH  11   6
ATOM      4  O   UNL     1      -0.399  -1.452  25.699  0.00  0.00    -0.226 OA
ATOM      6  N   UNL     1      -1.080   0.292  24.327  0.00  0.00    -0.279 N 
ATOM     13  C   UNL     1      -1.078  -1.018  24.775  0.00  0.00    +0.401 C 
ATOM     20  H   UNL     1      -1.685   0.524  23.545  0.00  0.00    +0.152 HD
BRANCH  13   3
ATOM      3  O   UNL     1      -1.950  -1.766  24.036  0.00  0.00    -0.445 OA
BRANCH   3  12
ATOM     12  C   UNL     1      -3.252  -1.949  24.602  0.00  0.00    +0.107 C 
ATOM     14  C   UNL     1      -4.257  -1.140  23.781  0.00  0.00    +0.055 C 
ATOM     15  C   UNL     1      -3.224  -1.469  26.053  0.00  0.00    +0.055 C 
ATOM     16  C   UNL     1      -3.579  -3.439  24.535  0.00  0.00    +0.055 C 
ENDBRANCH   3  12
ENDBRANCH  13   3
ENDBRANCH  11   6
ENDBRANCH   8  11
TORSDOF 6
ENDMDL
MODEL 6
REMARK VINA RESULT:      -5.2      1.845      2.999
REMARK  Name = 75536846
REMARK  9 active torsions:
REMARK  status: ('A' for Active; 'I' for Inactive)
REMARK    1  A    between atoms: O_2  and  C_7
REMARK    2  A    between atoms: O_3  and  C_12
REMARK    3  A    between atoms: O_3  and  C_13
REMARK    4  A    between atoms: N_5  and  C_9
REMARK    5  A    between atoms: N_6  and  C_11
REMARK    6  A    between atoms: C_8  and  C_11
REMARK    7  A    between atoms: C_12  and  C_14
REMARK    8  A    between atoms: C_12  and  C_15
REMARK    9  A    between atoms: C_12  and  C_16
REMARK                            x       y       z     vdW  Elec       q    Type
REMARK                         _______ _______ _______ _____ _____    ______ ____
ROOT
ATOM      1  O   UNL     1      -4.875   2.860  25.805  0.00  0.00    -0.371 OA
ATOM      7  C   UNL     1      -3.111   2.575  24.253  0.00  0.00    +0.164 C 
ATOM      8  C   UNL     1      -4.561   2.219  24.557  0.00  0.00    +0.165 C 
ATOM      9  C   UNL     1      -3.034   3.984  24.810  0.00  0.00    +0.108 C 
ATOM     10  C   UNL     1      -3.873   3.857  26.070  0.00  0.00    +0.181 C 
ENDROOT
BRANCH   9   5
ATOM      5  N   UNL     1      -1.677   4.433  25.076  0.00  0.00    -0.323 NA
ATOM     17  H   UNL     1      -1.582   4.676  26.061  0.00  0.00    +0.119 HD
ATOM     18  H   UNL     1      -1.486   5.282  24.546  0.00  0.00    +0.119 HD
ENDBRANCH   9   5
BRANCH   7   2
ATOM      2  O   UNL     1      -2.833   2.518  22.868  0.00  0.00    -0.388 OA
ATOM     19  H   UNL     1      -2.525   1.621  22.657  0.00  0.00    +0.210 HD
ENDBRANCH   7   2
BRANCH   8  11
ATOM     11  C   UNL     1      -4.801   0.724  24.672  0.00  0.00    +0.141 C 
BRANCH  11   6
ATOM      4  O   UNL     1      -3.572  -1.527  26.037  0.00  0.00    -0.226 OA
ATOM      6  N   UNL     1      -3.644  -0.022  24.271  0.00  0.00    -0.279 N 
ATOM     13  C   UNL     1      -3.122  -1.088  24.984  0.00  0.00    +0.401 C 
ATOM     20  H   UNL     1      -3.172   0.250  23.413  0.00  0.00    +0.152 HD
BRANCH  13   3
ATOM      3  O   UNL     1      -2.022  -1.586  24.343  0.00  0.00    -0.445 OA
BRANCH   3  12
ATOM     12  C   UNL     1      -0.758  -1.081  24.789  0.00  0.00    +0.107 C 
ATOM     14  C   UNL     1      -1.010   0.011  25.828  0.00  0.00    +0.055 C 
ATOM     15  C   UNL     1      -0.005  -0.521  23.582  0.00  0.00    +0.055 C 
ATOM     16  C   UNL     1       0.010  -2.247  25.409  0.00  0.00    +0.055 C 
ENDBRANCH   3  12
ENDBRANCH  13   3
ENDBRANCH  11   6
ENDBRANCH   8  11
TORSDOF 6
ENDMDL
MODEL 7
REMARK VINA RESULT:      -5.1      2.371      5.205
REMARK  Name = 75536846
REMARK  9 active torsions:
REMARK  status: ('A' for Active; 'I' for Inactive)
REMARK    1  A    between atoms: O_2  and  C_7
REMARK    2  A    between atoms: O_3  and  C_12
REMARK    3  A    between atoms: O_3  and  C_13
REMARK    4  A    between atoms: N_5  and  C_9
REMARK    5  A    between atoms: N_6  and  C_11
REMARK    6  A    between atoms: C_8  and  C_11
REMARK    7  A    between atoms: C_12  and  C_14
REMARK    8  A    between atoms: C_12  and  C_15
REMARK    9  A    between atoms: C_12  and  C_16
REMARK                            x       y       z     vdW  Elec       q    Type
REMARK                         _______ _______ _______ _____ _____    ______ ____
ROOT
ATOM      1  O   UNL     1      -2.726  -0.526  26.060  0.00  0.00    -0.371 OA
ATOM      7  C   UNL     1      -2.201  -1.926  24.227  0.00  0.00    +0.164 C 
ATOM      8  C   UNL     1      -1.641  -1.273  25.485  0.00  0.00    +0.165 C 
ATOM      9  C   UNL     1      -3.626  -2.219  24.659  0.00  0.00    +0.108 C 
ATOM     10  C   UNL     1      -3.956  -0.977  25.470  0.00  0.00    +0.181 C 
ENDROOT
BRANCH   9   5
ATOM      5  N   UNL     1      -4.540  -2.431  23.549  0.00  0.00    -0.323 NA
ATOM     17  H   UNL     1      -5.475  -2.120  23.810  0.00  0.00    +0.119 HD
ATOM     18  H   UNL     1      -4.610  -3.428  23.347  0.00  0.00    +0.119 HD
ENDBRANCH   9   5
BRANCH   7   2
ATOM      2  O   UNL     1      -1.485  -3.093  23.874  0.00  0.00    -0.388 OA
ATOM     19  H   UNL     1      -0.713  -2.829  23.346  0.00  0.00    +0.210 HD
ENDBRANCH   7   2
BRANCH   8  11
ATOM     11  C   UNL     1      -0.468  -0.350  25.211  0.00  0.00    +0.141 C 
BRANCH  11   6
ATOM      4  O   UNL     1       0.660   2.151  24.257  0.00  0.00    -0.226 OA
ATOM      6  N   UNL     1      -0.719   0.973  25.706  0.00  0.00    -0.279 N 
ATOM     13  C   UNL     1      -0.136   2.118  25.190  0.00  0.00    +0.401 C 
ATOM     20  H   UNL     1      -1.358   1.079  26.488  0.00  0.00    +0.152 HD
BRANCH  13   3
ATOM      3  O   UNL     1      -0.576   3.216  25.874  0.00  0.00    -0.445 OA
BRANCH   3  12
ATOM     12  C   UNL     1      -1.680   3.915  25.288  0.00  0.00    +0.107 C 
ATOM     14  C   UNL     1      -2.149   3.138  24.058  0.00  0.00    +0.055 C 
ATOM     15  C   UNL     1      -1.216   5.319  24.901  0.00  0.00    +0.055 C 
ATOM     16  C   UNL     1      -2.789   3.985  26.335  0.00  0.00    +0.055 C 
ENDBRANCH   3  12
ENDBRANCH  13   3
ENDBRANCH  11   6
ENDBRANCH   8  11
TORSDOF 6
ENDMDL
MODEL 8
REMARK VINA RESULT:      -4.8      1.922      2.898
REMARK  Name = 75536846
REMARK  9 active torsions:
REMARK  status: ('A' for Active; 'I' for Inactive)
REMARK    1  A    between atoms: O_2  and  C_7
REMARK    2  A    between atoms: O_3  and  C_12
REMARK    3  A    between atoms: O_3  and  C_13
REMARK    4  A    between atoms: N_5  and  C_9
REMARK    5  A    between atoms: N_6  and  C_11
REMARK    6  A    between atoms: C_8  and  C_11
REMARK    7  A    between atoms: C_12  and  C_14
REMARK    8  A    between atoms: C_12  and  C_15
REMARK    9  A    between atoms: C_12  and  C_16
REMARK                            x       y       z     vdW  Elec       q    Type
REMARK                         _______ _______ _______ _____ _____    ______ ____
ROOT
ATOM      1  O   UNL     1      -3.638   2.333  24.647  0.00  0.00    -0.371 OA
ATOM      7  C   UNL     1      -5.852   2.211  25.474  0.00  0.00    +0.164 C 
ATOM      8  C   UNL     1      -4.570   1.418  25.248  0.00  0.00    +0.165 C 
ATOM      9  C   UNL     1      -5.292   3.582  25.808  0.00  0.00    +0.108 C 
ATOM     10  C   UNL     1      -4.122   3.672  24.842  0.00  0.00    +0.181 C 
ENDROOT
BRANCH   9   5
ATOM      5  N   UNL     1      -6.252   4.661  25.638  0.00  0.00    -0.323 NA
ATOM     17  H   UNL     1      -5.992   5.448  26.231  0.00  0.00    +0.119 HD
ATOM     18  H   UNL     1      -7.172   4.353  25.947  0.00  0.00    +0.119 HD
ENDBRANCH   9   5
BRANCH   7   2
ATOM      2  O   UNL     1      -6.631   1.669  26.522  0.00  0.00    -0.388 OA
ATOM     19  H   UNL     1      -7.559   1.652  26.234  0.00  0.00    +0.210 HD
ENDBRANCH   7   2
BRANCH   8  11
ATOM     11  C   UNL     1      -4.762   0.212  24.347  0.00  0.00    +0.141 C 
BRANCH  11   6
ATOM      4  O   UNL     1      -3.583  -2.118  25.621  0.00  0.00    -0.226 OA
ATOM      6  N   UNL     1      -3.508  -0.416  24.043  0.00  0.00    -0.279 N 
ATOM     13  C   UNL     1      -3.019  -1.531  24.704  0.00  0.00    +0.401 C 
ATOM     20  H   UNL     1      -2.939  -0.017  23.303  0.00  0.00    +0.152 HD
BRANCH  13   3
ATOM      3  O   UNL     1      -1.806  -1.887  24.185  0.00  0.00    -0.445 OA
BRANCH   3  12
ATOM     12  C   UNL     1      -0.663  -1.280  24.797  0.00  0.00    +0.107 C 
ATOM     14  C   UNL     1       0.205  -2.381  25.406  0.00  0.00    +0.055 C 
ATOM     15  C   UNL     1      -1.145  -0.308  25.873  0.00  0.00    +0.055 C 
ATOM     16  C   UNL     1       0.103  -0.535  23.704  0.00  0.00    +0.055 C 
ENDBRANCH   3  12
ENDBRANCH  13   3
ENDBRANCH  11   6
ENDBRANCH   8  11
TORSDOF 6
ENDMDL
MODEL 9
REMARK VINA RESULT:      -4.3      1.905      5.087
REMARK  Name = 75536846
REMARK  9 active torsions:
REMARK  status: ('A' for Active; 'I' for Inactive)
REMARK    1  A    between atoms: O_2  and  C_7
REMARK    2  A    between atoms: O_3  and  C_12
REMARK    3  A    between atoms: O_3  and  C_13
REMARK    4  A    between atoms: N_5  and  C_9
REMARK    5  A    between atoms: N_6  and  C_11
REMARK    6  A    between atoms: C_8  and  C_11
REMARK    7  A    between atoms: C_12  and  C_14
REMARK    8  A    between atoms: C_12  and  C_15
REMARK    9  A    between atoms: C_12  and  C_16
REMARK                            x       y       z     vdW  Elec       q    Type
REMARK                         _______ _______ _______ _____ _____    ______ ____
ROOT
ATOM      1  O   UNL     1      -2.393   0.699  23.349  0.00  0.00    -0.371 OA
ATOM      7  C   UNL     1      -1.296   0.165  25.376  0.00  0.00    +0.164 C 
ATOM      8  C   UNL     1      -2.369  -0.288  24.394  0.00  0.00    +0.165 C 
ATOM      9  C   UNL     1      -0.282   0.787  24.434  0.00  0.00    +0.108 C 
ATOM     10  C   UNL     1      -1.189   1.480  23.431  0.00  0.00    +0.181 C 
ENDROOT
BRANCH   9   5
ATOM      5  N   UNL     1       0.640   1.700  25.090  0.00  0.00    -0.323 NA
ATOM     17  H   UNL     1       0.188   2.604  25.229  0.00  0.00    +0.119 HD
ATOM     18  H   UNL     1       1.445   1.866  24.488  0.00  0.00    +0.119 HD
ENDBRANCH   9   5
BRANCH   7   2
ATOM      2  O   UNL     1      -0.764  -0.918  26.114  0.00  0.00    -0.388 OA
ATOM     19  H   UNL     1      -1.499  -1.498  26.376  0.00  0.00    +0.210 HD
ENDBRANCH   7   2
BRANCH   8  11
ATOM     11  C   UNL     1      -3.746  -0.406  25.022  0.00  0.00    +0.141 C 
BRANCH  11   6
ATOM      4  O   UNL     1      -6.170   1.114  24.517  0.00  0.00    -0.226 OA
ATOM      6  N   UNL     1      -4.151   0.830  25.627  0.00  0.00    -0.279 N 
ATOM     13  C   UNL     1      -5.330   1.491  25.327  0.00  0.00    +0.401 C 
ATOM     20  H   UNL     1      -3.533   1.253  26.314  0.00  0.00    +0.152 HD
BRANCH  13   3
ATOM      3  O   UNL     1      -5.426   2.635  26.068  0.00  0.00    -0.445 OA
BRANCH   3  12
ATOM     12  C   UNL     1      -4.808   3.798  25.504  0.00  0.00    +0.107 C 
ATOM     14  C   UNL     1      -5.825   4.940  25.509  0.00  0.00    +0.055 C 
ATOM     15  C   UNL     1      -4.364   3.470  24.079  0.00  0.00    +0.055 C 
ATOM     16  C   UNL     1      -3.603   4.147  26.376  0.00  0.00    +0.055 C 
ENDBRANCH   3  12
ENDBRANCH  13   3
ENDBRANCH  11   6
ENDBRANCH   8  11
TORSDOF 6
ENDMDL
MODEL 10
REMARK VINA RESULT:      -4.1      1.679      2.886
REMARK  Name = 75536846
REMARK  9 active torsions:
REMARK  status: ('A' for Active; 'I' for Inactive)
REMARK    1  A    between atoms: O_2  and  C_7
REMARK    2  A    between atoms: O_3  and  C_12
REMARK    3  A    between atoms: O_3  and  C_13
REMARK    4  A    between atoms: N_5  and  C_9
REMARK    5  A    between atoms: N_6  and  C_11
REMARK    6  A    between atoms: C_8  and  C_11
REMARK    7  A    between atoms: C_12  and  C_14
REMARK    8  A    between atoms: C_12  and  C_15
REMARK    9  A    between atoms: C_12  and  C_16
REMARK                            x       y       z     vdW  Elec       q    Type
REMARK                         _______ _______ _______ _____ _____    ______ ____
ROOT
ATOM      1  O   UNL     1      -4.469   3.609  26.438  0.00  0.00    -0.371 OA
ATOM      7  C   UNL     1      -3.316   3.544  24.374  0.00  0.00    +0.164 C 
ATOM      8  C   UNL     1      -4.666   3.320  25.044  0.00  0.00    +0.165 C 
ATOM      9  C   UNL     1      -2.775   4.706  25.186  0.00  0.00    +0.108 C 
ATOM     10  C   UNL     1      -3.238   4.336  26.585  0.00  0.00    +0.181 C 
ENDROOT
BRANCH   9   5
ATOM      5  N   UNL     1      -1.333   4.864  25.089  0.00  0.00    -0.323 NA
ATOM     17  H   UNL     1      -1.092   5.853  25.142  0.00  0.00    +0.119 HD
ATOM     18  H   UNL     1      -1.012   4.534  24.180  0.00  0.00    +0.119 HD
ENDBRANCH   9   5
BRANCH   7   2
ATOM      2  O   UNL     1      -3.453   3.853  23.001  0.00  0.00    -0.388 OA
ATOM     19  H   UNL     1      -3.305   4.807  22.888  0.00  0.00    +0.210 HD
ENDBRANCH   7   2
BRANCH   8  11
ATOM     11  C   UNL     1      -5.191   1.905  24.880  0.00  0.00    +0.141 C 
BRANCH  11   6
ATOM      4  O   UNL     1      -3.385   0.929  22.825  0.00  0.00    -0.226 OA
ATOM      6  N   UNL     1      -4.139   0.940  25.020  0.00  0.00    -0.279 N 
ATOM     13  C   UNL     1      -3.320   0.528  23.982  0.00  0.00    +0.401 C 
ATOM     20  H   UNL     1      -3.988   0.525  25.935  0.00  0.00    +0.152 HD
BRANCH  13   3
ATOM      3  O   UNL     1      -2.421  -0.396  24.434  0.00  0.00    -0.445 OA
BRANCH   3  12
ATOM     12  C   UNL     1      -2.956  -1.687  24.745  0.00  0.00    +0.107 C 
ATOM     14  C   UNL     1      -3.367  -1.701  26.217  0.00  0.00    +0.055 C 
ATOM     15  C   UNL     1      -1.882  -2.739  24.469  0.00  0.00    +0.055 C 
ATOM     16  C   UNL     1      -4.171  -1.911  23.846  0.00  0.00    +0.055 C 
ENDBRANCH   3  12
ENDBRANCH  13   3
ENDBRANCH  11   6
ENDBRANCH   8  11
TORSDOF 6
ENDMDL
