MODEL 1
REMARK VINA RESULT:       4.0      0.000      0.000
REMARK  Name = 11912496
REMARK  9 active torsions:
REMARK  status: ('A' for Active; 'I' for Inactive)
REMARK    1  A    between atoms: O_3  and  C_14
REMARK    2  A    between atoms: O_3  and  C_18
REMARK    3  A    between atoms: O_5  and  C_33
REMARK    4  A    between atoms: O_5  and  C_36
REMARK    5  A    between atoms: N_7  and  C_13
REMARK    6  A    between atoms: N_10  and  C_22
REMARK    7  A    between atoms: C_19  and  C_23
REMARK    8  A    between atoms: C_30  and  C_34
REMARK    9  A    between atoms: C_34  and  C_35
REMARK                            x       y       z     vdW  Elec       q    Type
REMARK                         _______ _______ _______ _____ _____    ______ ____
ROOT
ATOM      1  O   UNL     1      -1.640   1.938  25.539  0.00  0.00    -0.368 OA
ATOM      2  O   UNL     1      -0.170   4.089  23.920  0.00  0.00    -0.368 OA
ATOM     11  C   UNL     1      -1.570   3.902  24.210  0.00  0.00    +0.173 C 
ATOM     12  C   UNL     1      -1.826   2.408  24.193  0.00  0.00    +0.192 C 
ATOM     13  C   UNL     1      -1.861   4.306  25.637  0.00  0.00    +0.130 C 
ATOM     14  C   UNL     1      -0.743   1.902  23.270  0.00  0.00    +0.235 C 
ATOM     15  C   UNL     1      -1.461   3.063  26.414  0.00  0.00    +0.185 C 
ATOM     16  C   UNL     1       0.413   2.817  23.603  0.00  0.00    +0.207 C 
ENDROOT
BRANCH  13   7
ATOM      7  N   UNL     1      -3.274   4.571  25.807  0.00  0.00    -0.306 N 
ATOM      8  N   UNL     1      -3.832   2.346  25.443  0.00  0.00    -0.214 NA
ATOM      9  N   UNL     1      -5.523   4.001  25.899  0.00  0.00    -0.223 NA
ATOM     17  C   UNL     1      -4.252   3.597  25.713  0.00  0.00    +0.216 A 
ATOM     19  C   UNL     1      -4.811   1.422  25.358  0.00  0.00    +0.076 A 
ATOM     20  C   UNL     1      -6.451   3.027  25.799  0.00  0.00    +0.116 A 
ATOM     21  C   UNL     1      -6.151   1.707  25.529  0.00  0.00    +0.048 A 
ATOM     37  H   UNL     1      -3.578   5.504  26.061  0.00  0.00    +0.149 HD
BRANCH  19  23
ATOM     23  C   UNL     1      -4.365   0.080  25.071  0.00  0.00    +0.001 A 
ATOM     26  C   UNL     1      -4.665  -0.505  23.841  0.00  0.00    +0.013 A 
ATOM     27  C   UNL     1      -3.634  -0.632  26.022  0.00  0.00    +0.013 A 
ATOM     31  C   UNL     1      -4.236  -1.803  23.564  0.00  0.00    +0.046 A 
ATOM     32  C   UNL     1      -3.204  -1.929  25.745  0.00  0.00    +0.046 A 
ATOM     33  C   UNL     1      -3.506  -2.515  24.516  0.00  0.00    +0.120 A 
BRANCH  33   5
ATOM      5  O   UNL     1      -3.085  -3.780  24.243  0.00  0.00    -0.495 OA
ATOM     36  C   UNL     1      -1.916  -3.916  23.437  0.00  0.00    +0.277 C 
ENDBRANCH  33   5
ENDBRANCH  19  23
ENDBRANCH  13   7
BRANCH  14   3
ATOM      3  O   UNL     1      -0.420   0.544  23.473  0.00  0.00    -0.442 OA
BRANCH   3  18
ATOM      4  O   UNL     1       0.774  -0.521  21.839  0.00  0.00    -0.226 OA
ATOM     10  N   UNL     1       1.820   0.432  23.703  0.00  0.00    -0.251 N 
ATOM     18  C   UNL     1       0.750   0.090  22.901  0.00  0.00    +0.405 C 
ATOM     38  H   UNL     1       1.599   0.943  24.555  0.00  0.00    +0.158 HD
BRANCH  10  22
ATOM     22  C   UNL     1       3.191   0.161  23.489  0.00  0.00    +0.036 A 
ATOM     24  C   UNL     1       3.728  -1.067  23.876  0.00  0.00    +0.024 A 
ATOM     25  C   UNL     1       4.007   1.121  22.892  0.00  0.00    +0.024 A 
ATOM     28  C   UNL     1       5.081  -1.334  23.666  0.00  0.00    +0.013 A 
ATOM     29  C   UNL     1       5.360   0.854  22.682  0.00  0.00    +0.013 A 
ATOM     30  C   UNL     1       5.897  -0.373  23.069  0.00  0.00    +0.017 A 
BRANCH  30  34
ATOM      6  O   UNL     1       7.678  -1.542  22.057  0.00  0.00    -0.292 OA
ATOM     34  C   UNL     1       7.306  -0.653  22.849  0.00  0.00    +0.160 C 
ATOM     35  C   UNL     1       8.374   0.145  23.589  0.00  0.00    +0.091 C 
ENDBRANCH  30  34
ENDBRANCH  10  22
ENDBRANCH   3  18
ENDBRANCH  14   3
TORSDOF 7
ENDMDL
MODEL 2
REMARK VINA RESULT:       6.4      1.613      4.337
REMARK  Name = 11912496
REMARK  9 active torsions:
REMARK  status: ('A' for Active; 'I' for Inactive)
REMARK    1  A    between atoms: O_3  and  C_14
REMARK    2  A    between atoms: O_3  and  C_18
REMARK    3  A    between atoms: O_5  and  C_33
REMARK    4  A    between atoms: O_5  and  C_36
REMARK    5  A    between atoms: N_7  and  C_13
REMARK    6  A    between atoms: N_10  and  C_22
REMARK    7  A    between atoms: C_19  and  C_23
REMARK    8  A    between atoms: C_30  and  C_34
REMARK    9  A    between atoms: C_34  and  C_35
REMARK                            x       y       z     vdW  Elec       q    Type
REMARK                         _______ _______ _______ _____ _____    ______ ____
ROOT
ATOM      1  O   UNL     1      -2.878  -1.673  23.750  0.00  0.00    -0.368 OA
ATOM      2  O   UNL     1      -1.061  -0.969  26.120  0.00  0.00    -0.368 OA
ATOM     11  C   UNL     1      -2.333  -0.433  25.698  0.00  0.00    +0.173 C 
ATOM     12  C   UNL     1      -2.321  -0.420  24.182  0.00  0.00    +0.192 C 
ATOM     13  C   UNL     1      -3.441  -1.399  26.046  0.00  0.00    +0.130 C 
ATOM     14  C   UNL     1      -0.848  -0.325  23.867  0.00  0.00    +0.235 C 
ATOM     15  C   UNL     1      -3.391  -2.382  24.889  0.00  0.00    +0.185 C 
ATOM     16  C   UNL     1      -0.232  -1.162  24.964  0.00  0.00    +0.207 C 
ENDROOT
BRANCH  13   7
ATOM      7  N   UNL     1      -4.716  -0.714  26.068  0.00  0.00    -0.306 N 
ATOM      8  N   UNL     1      -3.754   1.298  25.420  0.00  0.00    -0.214 NA
ATOM      9  N   UNL     1      -6.123   1.116  25.819  0.00  0.00    -0.223 NA
ATOM     17  C   UNL     1      -4.871   0.625  25.755  0.00  0.00    +0.216 A 
ATOM     19  C   UNL     1      -3.941   2.600  25.121  0.00  0.00    +0.076 A 
ATOM     20  C   UNL     1      -6.239   2.424  25.509  0.00  0.00    +0.116 A 
ATOM     21  C   UNL     1      -5.173   3.224  25.148  0.00  0.00    +0.048 A 
ATOM     37  H   UNL     1      -5.560  -1.239  26.270  0.00  0.00    +0.149 HD
BRANCH  19  23
ATOM     23  C   UNL     1      -2.747   3.325  24.760  0.00  0.00    +0.001 A 
ATOM     26  C   UNL     1      -2.487   4.569  25.334  0.00  0.00    +0.013 A 
ATOM     27  C   UNL     1      -1.852   2.782  23.837  0.00  0.00    +0.013 A 
ATOM     31  C   UNL     1      -1.334   5.271  24.984  0.00  0.00    +0.046 A 
ATOM     32  C   UNL     1      -0.699   3.483  23.487  0.00  0.00    +0.046 A 
ATOM     33  C   UNL     1      -0.440   4.728  24.061  0.00  0.00    +0.120 A 
BRANCH  33   5
ATOM      5  O   UNL     1       0.687   5.413  23.722  0.00  0.00    -0.495 OA
ATOM     36  C   UNL     1       0.920   5.631  22.332  0.00  0.00    +0.277 C 
ENDBRANCH  33   5
ENDBRANCH  19  23
ENDBRANCH  13   7
BRANCH  14   3
ATOM      3  O   UNL     1      -0.515  -0.805  22.583  0.00  0.00    -0.442 OA
BRANCH   3  18
ATOM      4  O   UNL     1       1.117  -0.581  20.996  0.00  0.00    -0.226 OA
ATOM     10  N   UNL     1       1.616  -0.563  23.284  0.00  0.00    -0.251 N 
ATOM     18  C   UNL     1       0.793  -0.641  22.177  0.00  0.00    +0.405 C 
ATOM     38  H   UNL     1       1.159  -0.634  24.190  0.00  0.00    +0.158 HD
BRANCH  10  22
ATOM     22  C   UNL     1       3.019  -0.395  23.316  0.00  0.00    +0.036 A 
ATOM     24  C   UNL     1       3.832  -1.415  23.811  0.00  0.00    +0.024 A 
ATOM     25  C   UNL     1       3.591   0.790  22.854  0.00  0.00    +0.024 A 
ATOM     28  C   UNL     1       5.217  -1.249  23.844  0.00  0.00    +0.013 A 
ATOM     29  C   UNL     1       4.975   0.956  22.887  0.00  0.00    +0.013 A 
ATOM     30  C   UNL     1       5.788  -0.064  23.382  0.00  0.00    +0.017 A 
BRANCH  30  34
ATOM      6  O   UNL     1       7.761   1.047  24.042  0.00  0.00    -0.292 OA
ATOM     34  C   UNL     1       7.232   0.108  23.415  0.00  0.00    +0.160 C 
ATOM     35  C   UNL     1       8.139  -0.870  22.678  0.00  0.00    +0.091 C 
ENDBRANCH  30  34
ENDBRANCH  10  22
ENDBRANCH   3  18
ENDBRANCH  14   3
TORSDOF 7
ENDMDL
MODEL 3
REMARK VINA RESULT:       7.5      1.911      4.347
REMARK  Name = 11912496
REMARK  9 active torsions:
REMARK  status: ('A' for Active; 'I' for Inactive)
REMARK    1  A    between atoms: O_3  and  C_14
REMARK    2  A    between atoms: O_3  and  C_18
REMARK    3  A    between atoms: O_5  and  C_33
REMARK    4  A    between atoms: O_5  and  C_36
REMARK    5  A    between atoms: N_7  and  C_13
REMARK    6  A    between atoms: N_10  and  C_22
REMARK    7  A    between atoms: C_19  and  C_23
REMARK    8  A    between atoms: C_30  and  C_34
REMARK    9  A    between atoms: C_34  and  C_35
REMARK                            x       y       z     vdW  Elec       q    Type
REMARK                         _______ _______ _______ _____ _____    ______ ____
ROOT
ATOM      1  O   UNL     1      -3.719  -0.169  23.406  0.00  0.00    -0.368 OA
ATOM      2  O   UNL     1      -3.870  -1.147  26.310  0.00  0.00    -0.368 OA
ATOM     11  C   UNL     1      -4.075   0.158  25.729  0.00  0.00    +0.173 C 
ATOM     12  C   UNL     1      -3.071   0.298  24.601  0.00  0.00    +0.192 C 
ATOM     13  C   UNL     1      -5.415   0.208  25.033  0.00  0.00    +0.130 C 
ATOM     14  C   UNL     1      -1.962  -0.630  25.035  0.00  0.00    +0.235 C 
ATOM     15  C   UNL     1      -5.105  -0.422  23.685  0.00  0.00    +0.185 C 
ATOM     16  C   UNL     1      -2.726  -1.755  25.694  0.00  0.00    +0.207 C 
ENDROOT
BRANCH  13   7
ATOM      7  N   UNL     1      -5.840   1.581  24.859  0.00  0.00    -0.306 N 
ATOM      8  N   UNL     1      -3.793   2.406  25.581  0.00  0.00    -0.214 NA
ATOM      9  N   UNL     1      -5.573   3.887  24.914  0.00  0.00    -0.223 NA
ATOM     17  C   UNL     1      -5.034   2.672  25.129  0.00  0.00    +0.216 A 
ATOM     19  C   UNL     1      -3.034   3.492  25.835  0.00  0.00    +0.076 A 
ATOM     20  C   UNL     1      -4.761   4.928  25.189  0.00  0.00    +0.116 A 
ATOM     21  C   UNL     1      -3.469   4.790  25.655  0.00  0.00    +0.048 A 
ATOM     37  H   UNL     1      -6.757   1.772  24.469  0.00  0.00    +0.149 HD
BRANCH  19  23
ATOM     23  C   UNL     1      -1.703   3.211  26.317  0.00  0.00    +0.001 A 
ATOM     26  C   UNL     1      -1.462   3.133  27.689  0.00  0.00    +0.013 A 
ATOM     27  C   UNL     1      -0.659   3.018  25.413  0.00  0.00    +0.013 A 
ATOM     31  C   UNL     1      -0.176   2.863  28.156  0.00  0.00    +0.046 A 
ATOM     32  C   UNL     1       0.627   2.749  25.880  0.00  0.00    +0.046 A 
ATOM     33  C   UNL     1       0.869   2.671  27.252  0.00  0.00    +0.120 A 
BRANCH  33   5
ATOM      5  O   UNL     1       2.123   2.405  27.709  0.00  0.00    -0.495 OA
ATOM     36  C   UNL     1       2.408   2.753  29.062  0.00  0.00    +0.277 C 
ENDBRANCH  33   5
ENDBRANCH  19  23
ENDBRANCH  13   7
BRANCH  14   3
ATOM      3  O   UNL     1      -1.161  -1.086  23.968  0.00  0.00    -0.442 OA
BRANCH   3  18
ATOM      4  O   UNL     1       0.581  -2.064  25.082  0.00  0.00    -0.226 OA
ATOM     10  N   UNL     1       0.934  -0.468  23.406  0.00  0.00    -0.251 N 
ATOM     18  C   UNL     1       0.179  -1.279  24.231  0.00  0.00    +0.405 C 
ATOM     38  H   UNL     1       0.416   0.121  22.758  0.00  0.00    +0.158 HD
BRANCH  10  22
ATOM     22  C   UNL     1       2.342  -0.355  23.347  0.00  0.00    +0.036 A 
ATOM     24  C   UNL     1       3.145  -1.413  23.770  0.00  0.00    +0.024 A 
ATOM     25  C   UNL     1       2.928   0.816  22.867  0.00  0.00    +0.024 A 
ATOM     28  C   UNL     1       4.535  -1.301  23.714  0.00  0.00    +0.013 A 
ATOM     29  C   UNL     1       4.317   0.929  22.811  0.00  0.00    +0.013 A 
ATOM     30  C   UNL     1       5.120  -0.130  23.234  0.00  0.00    +0.017 A 
BRANCH  30  34
ATOM      6  O   UNL     1       7.252  -0.764  22.450  0.00  0.00    -0.292 OA
ATOM     34  C   UNL     1       6.568  -0.014  23.174  0.00  0.00    +0.160 C 
ATOM     35  C   UNL     1       7.290   1.042  24.005  0.00  0.00    +0.091 C 
ENDBRANCH  30  34
ENDBRANCH  10  22
ENDBRANCH   3  18
ENDBRANCH  14   3
TORSDOF 7
ENDMDL
MODEL 4
REMARK VINA RESULT:       7.6      2.097      4.903
REMARK  Name = 11912496
REMARK  9 active torsions:
REMARK  status: ('A' for Active; 'I' for Inactive)
REMARK    1  A    between atoms: O_3  and  C_14
REMARK    2  A    between atoms: O_3  and  C_18
REMARK    3  A    between atoms: O_5  and  C_33
REMARK    4  A    between atoms: O_5  and  C_36
REMARK    5  A    between atoms: N_7  and  C_13
REMARK    6  A    between atoms: N_10  and  C_22
REMARK    7  A    between atoms: C_19  and  C_23
REMARK    8  A    between atoms: C_30  and  C_34
REMARK    9  A    between atoms: C_34  and  C_35
REMARK                            x       y       z     vdW  Elec       q    Type
REMARK                         _______ _______ _______ _____ _____    ______ ____
ROOT
ATOM      1  O   UNL     1      -2.684   0.201  24.996  0.00  0.00    -0.368 OA
ATOM      2  O   UNL     1      -4.364  -1.762  23.342  0.00  0.00    -0.368 OA
ATOM     11  C   UNL     1      -4.726  -0.566  24.064  0.00  0.00    +0.173 C 
ATOM     12  C   UNL     1      -3.874  -0.537  25.318  0.00  0.00    +0.192 C 
ATOM     13  C   UNL     1      -4.284   0.656  23.294  0.00  0.00    +0.130 C 
ATOM     14  C   UNL     1      -3.580  -2.000  25.548  0.00  0.00    +0.235 C 
ATOM     15  C   UNL     1      -2.821   0.776  23.687  0.00  0.00    +0.185 C 
ATOM     16  C   UNL     1      -3.442  -2.523  24.136  0.00  0.00    +0.207 C 
ENDROOT
BRANCH  13   7
ATOM      7  N   UNL     1      -5.020   1.822  23.736  0.00  0.00    -0.306 N 
ATOM      8  N   UNL     1      -3.284   2.512  25.115  0.00  0.00    -0.214 NA
ATOM      9  N   UNL     1      -5.327   3.778  24.948  0.00  0.00    -0.223 NA
ATOM     17  C   UNL     1      -4.522   2.744  24.639  0.00  0.00    +0.216 A 
ATOM     19  C   UNL     1      -2.830   3.430  25.994  0.00  0.00    +0.076 A 
ATOM     20  C   UNL     1      -4.812   4.657  25.832  0.00  0.00    +0.116 A 
ATOM     21  C   UNL     1      -3.556   4.534  26.392  0.00  0.00    +0.048 A 
ATOM     37  H   UNL     1      -5.930   2.018  23.333  0.00  0.00    +0.149 HD
BRANCH  19  23
ATOM     23  C   UNL     1      -1.503   3.186  26.505  0.00  0.00    +0.001 A 
ATOM     26  C   UNL     1      -0.432   3.044  25.622  0.00  0.00    +0.013 A 
ATOM     27  C   UNL     1      -1.290   3.091  27.880  0.00  0.00    +0.013 A 
ATOM     31  C   UNL     1       0.850   2.806  26.115  0.00  0.00    +0.046 A 
ATOM     32  C   UNL     1      -0.007   2.854  28.373  0.00  0.00    +0.046 A 
ATOM     33  C   UNL     1       1.063   2.711  27.490  0.00  0.00    +0.120 A 
BRANCH  33   5
ATOM      5  O   UNL     1       2.316   2.481  27.970  0.00  0.00    -0.495 OA
ATOM     36  C   UNL     1       2.484   2.511  29.386  0.00  0.00    +0.277 C 
ENDBRANCH  33   5
ENDBRANCH  19  23
ENDBRANCH  13   7
BRANCH  14   3
ATOM      3  O   UNL     1      -2.417  -2.226  26.313  0.00  0.00    -0.442 OA
BRANCH   3  18
ATOM      4  O   UNL     1      -1.050  -0.459  26.802  0.00  0.00    -0.226 OA
ATOM     10  N   UNL     1      -0.693  -1.808  24.921  0.00  0.00    -0.251 N 
ATOM     18  C   UNL     1      -1.340  -1.399  26.071  0.00  0.00    +0.405 C 
ATOM     38  H   UNL     1      -1.086  -2.617  24.446  0.00  0.00    +0.158 HD
BRANCH  10  22
ATOM     22  C   UNL     1       0.453  -1.240  24.319  0.00  0.00    +0.036 A 
ATOM     24  C   UNL     1       0.347  -0.047  23.604  0.00  0.00    +0.024 A 
ATOM     25  C   UNL     1       1.690  -1.873  24.438  0.00  0.00    +0.024 A 
ATOM     28  C   UNL     1       1.477   0.512  23.008  0.00  0.00    +0.013 A 
ATOM     29  C   UNL     1       2.820  -1.313  23.842  0.00  0.00    +0.013 A 
ATOM     30  C   UNL     1       2.714  -0.121  23.128  0.00  0.00    +0.017 A 
BRANCH  30  34
ATOM      6  O   UNL     1       3.853   0.940  21.355  0.00  0.00    -0.292 OA
ATOM     34  C   UNL     1       3.892   0.464  22.508  0.00  0.00    +0.160 C 
ATOM     35  C   UNL     1       5.216   0.511  23.263  0.00  0.00    +0.091 C 
ENDBRANCH  30  34
ENDBRANCH  10  22
ENDBRANCH   3  18
ENDBRANCH  14   3
TORSDOF 7
ENDMDL
