MODEL 1
REMARK VINA RESULT:       9.7      0.000      0.000
REMARK  Name = 7155417
REMARK  3 active torsions:
REMARK  status: ('A' for Active; 'I' for Inactive)
REMARK    1  A    between atoms: C_13  and  C_18
REMARK    2  A    between atoms: C_15  and  C_19
REMARK    3  A    between atoms: C_29  and  C_30
REMARK                            x       y       z     vdW  Elec       q    Type
REMARK                         _______ _______ _______ _____ _____    ______ ____
ROOT
ATOM      1  O   UNL     1       0.325   0.037  21.645  0.00  0.00    -0.268 OA
ATOM      2  O   UNL     1      -4.309  -1.318  23.207  0.00  0.00    -0.270 OA
ATOM      3  N   UNL     1      -2.932  -1.384  25.097  0.00  0.00    -0.297 N 
ATOM      4  N   UNL     1      -0.211  -0.324  23.896  0.00  0.00    -0.311 N 
ATOM      6  C   UNL     1      -0.827  -2.656  24.771  0.00  0.00    +0.027 C 
ATOM      7  C   UNL     1      -0.856  -0.723  26.292  0.00  0.00    +0.054 C 
ATOM      8  C   UNL     1      -0.303  -2.135  26.102  0.00  0.00    +0.018 C 
ATOM      9  C   UNL     1      -2.364  -2.690  24.769  0.00  0.00    +0.113 C 
ATOM     10  C   UNL     1      -0.271  -1.773  23.652  0.00  0.00    +0.130 C 
ATOM     11  C   UNL     1      -2.399  -0.771  26.322  0.00  0.00    +0.117 C 
ATOM     12  C   UNL     1      -0.384   0.221  25.184  0.00  0.00    +0.034 A 
ATOM     13  C   UNL     1      -0.165   1.546  25.394  0.00  0.00    +0.002 A 
ATOM     14  C   UNL     1       0.149   0.462  22.787  0.00  0.00    +0.252 A 
ATOM     15  C   UNL     1      -3.864  -0.802  24.232  0.00  0.00    +0.247 C 
ATOM     16  C   UNL     1       0.203   2.388  24.272  0.00  0.00    +0.015 A 
ATOM     17  C   UNL     1       0.342   1.909  23.036  0.00  0.00    +0.071 A 
ENDROOT
BRANCH  13  18
ATOM     18  C   UNL     1      -0.311   2.157  26.733  0.00  0.00    -0.016 A 
ATOM     20  C   UNL     1      -1.477   2.844  27.056  0.00  0.00    +0.008 A 
ATOM     21  C   UNL     1       0.720   2.040  27.662  0.00  0.00    +0.008 A 
ATOM     24  C   UNL     1      -1.614   3.419  28.320  0.00  0.00    +0.001 A 
ATOM     25  C   UNL     1       0.583   2.615  28.925  0.00  0.00    +0.001 A 
ATOM     26  C   UNL     1      -0.584   3.305  29.254  0.00  0.00    +0.000 A 
ENDBRANCH  13  18
BRANCH  15  19
ATOM     19  C   UNL     1      -4.354   0.544  24.544  0.00  0.00    +0.037 A 
ATOM     22  C   UNL     1      -5.475   0.703  25.355  0.00  0.00    +0.014 A 
ATOM     23  C   UNL     1      -3.696   1.659  24.030  0.00  0.00    +0.014 A 
ATOM     27  C   UNL     1      -5.942   1.983  25.653  0.00  0.00    +0.019 A 
ATOM     28  C   UNL     1      -4.161   2.939  24.328  0.00  0.00    +0.019 A 
ATOM     29  C   UNL     1      -5.284   3.102  25.139  0.00  0.00    +0.052 A 
BRANCH  29  30
ATOM      5  N   UNL     1      -6.153   5.479  25.692  0.00  0.00    -0.191 NA
ATOM     30  C   UNL     1      -5.763   4.413  25.443  0.00  0.00    +0.099 C 
ENDBRANCH  29  30
ENDBRANCH  15  19
TORSDOF 3
ENDMDL
MODEL 2
REMARK VINA RESULT:       9.8      2.517      5.680
REMARK  Name = 7155417
REMARK  3 active torsions:
REMARK  status: ('A' for Active; 'I' for Inactive)
REMARK    1  A    between atoms: C_13  and  C_18
REMARK    2  A    between atoms: C_15  and  C_19
REMARK    3  A    between atoms: C_29  and  C_30
REMARK                            x       y       z     vdW  Elec       q    Type
REMARK                         _______ _______ _______ _____ _____    ______ ____
ROOT
ATOM      1  O   UNL     1      -1.750   3.765  28.478  0.00  0.00    -0.268 OA
ATOM      2  O   UNL     1      -5.581   2.421  25.434  0.00  0.00    -0.270 OA
ATOM      3  N   UNL     1      -3.796   2.986  24.033  0.00  0.00    -0.297 N 
ATOM      4  N   UNL     1      -1.532   3.579  26.153  0.00  0.00    -0.311 N 
ATOM      6  C   UNL     1      -2.752   5.176  24.559  0.00  0.00    +0.027 C 
ATOM      7  C   UNL     1      -1.367   3.354  23.656  0.00  0.00    +0.054 C 
ATOM      8  C   UNL     1      -1.609   4.862  23.604  0.00  0.00    +0.018 C 
ATOM      9  C   UNL     1      -4.028   4.425  24.141  0.00  0.00    +0.113 C 
ATOM     10  C   UNL     1      -2.312   4.813  25.979  0.00  0.00    +0.130 C 
ATOM     11  C   UNL     1      -2.642   2.610  23.203  0.00  0.00    +0.117 C 
ATOM     12  C   UNL     1      -0.964   2.896  25.059  0.00  0.00    +0.034 A 
ATOM     13  C   UNL     1      -0.122   1.851  25.275  0.00  0.00    +0.002 A 
ATOM     14  C   UNL     1      -1.291   3.198  27.485  0.00  0.00    +0.252 A 
ATOM     15  C   UNL     1      -4.616   2.103  24.740  0.00  0.00    +0.247 C 
ATOM     16  C   UNL     1       0.145   1.428  26.636  0.00  0.00    +0.015 A 
ATOM     17  C   UNL     1      -0.402   2.033  27.691  0.00  0.00    +0.071 A 
ENDROOT
BRANCH  13  18
ATOM     18  C   UNL     1       0.516   1.121  24.158  0.00  0.00    -0.016 A 
ATOM     20  C   UNL     1       1.803   1.462  23.754  0.00  0.00    +0.008 A 
ATOM     21  C   UNL     1      -0.177   0.098  23.517  0.00  0.00    +0.008 A 
ATOM     24  C   UNL     1       2.404   0.772  22.701  0.00  0.00    +0.001 A 
ATOM     25  C   UNL     1       0.424  -0.592  22.463  0.00  0.00    +0.001 A 
ATOM     26  C   UNL     1       1.714  -0.254  22.055  0.00  0.00    +0.000 A 
ENDBRANCH  13  18
BRANCH  15  19
ATOM     19  C   UNL     1      -4.308   0.670  24.678  0.00  0.00    +0.037 A 
ATOM     22  C   UNL     1      -4.701  -0.076  23.570  0.00  0.00    +0.014 A 
ATOM     23  C   UNL     1      -3.622   0.062  25.727  0.00  0.00    +0.014 A 
ATOM     27  C   UNL     1      -4.407  -1.438  23.510  0.00  0.00    +0.019 A 
ATOM     28  C   UNL     1      -3.328  -1.300  25.667  0.00  0.00    +0.019 A 
ATOM     29  C   UNL     1      -3.720  -2.050  24.559  0.00  0.00    +0.052 A 
BRANCH  29  30
ATOM      5  N   UNL     1      -3.178  -4.582  24.450  0.00  0.00    -0.191 NA
ATOM     30  C   UNL     1      -3.422  -3.447  24.498  0.00  0.00    +0.099 C 
ENDBRANCH  29  30
ENDBRANCH  15  19
TORSDOF 3
ENDMDL
MODEL 3
REMARK VINA RESULT:      10.0      2.691      6.416
REMARK  Name = 7155417
REMARK  3 active torsions:
REMARK  status: ('A' for Active; 'I' for Inactive)
REMARK    1  A    between atoms: C_13  and  C_18
REMARK    2  A    between atoms: C_15  and  C_19
REMARK    3  A    between atoms: C_29  and  C_30
REMARK                            x       y       z     vdW  Elec       q    Type
REMARK                         _______ _______ _______ _____ _____    ______ ____
ROOT
ATOM      1  O   UNL     1      -4.281   4.476  21.510  0.00  0.00    -0.268 OA
ATOM      2  O   UNL     1      -0.773   5.253  25.095  0.00  0.00    -0.270 OA
ATOM      3  N   UNL     1      -2.171   3.559  25.899  0.00  0.00    -0.297 N 
ATOM      4  N   UNL     1      -4.100   3.150  23.433  0.00  0.00    -0.311 N 
ATOM      6  C   UNL     1      -4.591   4.096  25.767  0.00  0.00    +0.027 C 
ATOM      7  C   UNL     1      -3.847   1.765  25.514  0.00  0.00    +0.054 C 
ATOM      8  C   UNL     1      -4.932   2.655  26.119  0.00  0.00    +0.018 C 
ATOM      9  C   UNL     1      -3.216   4.483  26.337  0.00  0.00    +0.113 C 
ATOM     10  C   UNL     1      -4.643   4.249  24.245  0.00  0.00    +0.130 C 
ATOM     11  C   UNL     1      -2.476   2.137  26.118  0.00  0.00    +0.117 C 
ATOM     12  C   UNL     1      -3.799   1.891  23.990  0.00  0.00    +0.034 A 
ATOM     13  C   UNL     1      -3.450   0.857  23.179  0.00  0.00    +0.002 A 
ATOM     14  C   UNL     1      -4.018   3.402  22.052  0.00  0.00    +0.252 A 
ATOM     15  C   UNL     1      -1.026   4.062  25.276  0.00  0.00    +0.247 C 
ATOM     16  C   UNL     1      -3.349   1.082  21.750  0.00  0.00    +0.015 A 
ATOM     17  C   UNL     1      -3.595   2.269  21.196  0.00  0.00    +0.071 A 
ENDROOT
BRANCH  13  18
ATOM     18  C   UNL     1      -3.149  -0.487  23.718  0.00  0.00    -0.016 A 
ATOM     20  C   UNL     1      -4.162  -1.435  23.816  0.00  0.00    +0.008 A 
ATOM     21  C   UNL     1      -1.853  -0.794  24.124  0.00  0.00    +0.008 A 
ATOM     24  C   UNL     1      -3.878  -2.704  24.323  0.00  0.00    +0.001 A 
ATOM     25  C   UNL     1      -1.569  -2.062  24.632  0.00  0.00    +0.001 A 
ATOM     26  C   UNL     1      -2.581  -3.016  24.732  0.00  0.00    +0.000 A 
ENDBRANCH  13  18
BRANCH  15  19
ATOM     19  C   UNL     1      -0.033   3.107  24.773  0.00  0.00    +0.037 A 
ATOM     22  C   UNL     1       0.181   1.908  25.449  0.00  0.00    +0.014 A 
ATOM     23  C   UNL     1       0.690   3.401  23.620  0.00  0.00    +0.014 A 
ATOM     27  C   UNL     1       1.124   1.000  24.970  0.00  0.00    +0.019 A 
ATOM     28  C   UNL     1       1.633   2.493  23.140  0.00  0.00    +0.019 A 
ATOM     29  C   UNL     1       1.850   1.292  23.815  0.00  0.00    +0.052 A 
BRANCH  29  30
ATOM      5  N   UNL     1       3.606  -0.395  22.928  0.00  0.00    -0.191 NA
ATOM     30  C   UNL     1       2.818   0.361  23.326  0.00  0.00    +0.099 C 
ENDBRANCH  29  30
ENDBRANCH  15  19
TORSDOF 3
ENDMDL
MODEL 4
REMARK VINA RESULT:      11.4      2.327      5.785
REMARK  Name = 7155417
REMARK  3 active torsions:
REMARK  status: ('A' for Active; 'I' for Inactive)
REMARK    1  A    between atoms: C_13  and  C_18
REMARK    2  A    between atoms: C_15  and  C_19
REMARK    3  A    between atoms: C_29  and  C_30
REMARK                            x       y       z     vdW  Elec       q    Type
REMARK                         _______ _______ _______ _____ _____    ______ ____
ROOT
ATOM      1  O   UNL     1      -2.470   4.046  27.324  0.00  0.00    -0.268 OA
ATOM      2  O   UNL     1      -5.185   0.360  25.135  0.00  0.00    -0.270 OA
ATOM      3  N   UNL     1      -3.772   1.210  23.476  0.00  0.00    -0.297 N 
ATOM      4  N   UNL     1      -2.093   3.308  25.133  0.00  0.00    -0.311 N 
ATOM      6  C   UNL     1      -3.821   3.683  23.275  0.00  0.00    +0.027 C 
ATOM      7  C   UNL     1      -1.739   2.465  22.793  0.00  0.00    +0.054 C 
ATOM      8  C   UNL     1      -2.617   3.633  22.345  0.00  0.00    +0.018 C 
ATOM      9  C   UNL     1      -4.618   2.369  23.201  0.00  0.00    +0.113 C 
ATOM     10  C   UNL     1      -3.328   3.974  24.694  0.00  0.00    +0.130 C 
ATOM     11  C   UNL     1      -2.536   1.147  22.682  0.00  0.00    +0.117 C 
ATOM     12  C   UNL     1      -1.236   2.654  24.225  0.00  0.00    +0.034 A 
ATOM     13  C   UNL     1      -0.030   2.190  24.646  0.00  0.00    +0.002 A 
ATOM     14  C   UNL     1      -1.766   3.473  26.491  0.00  0.00    +0.252 A 
ATOM     15  C   UNL     1      -4.149   0.305  24.473  0.00  0.00    +0.247 C 
ATOM     16  C   UNL     1       0.337   2.338  26.041  0.00  0.00    +0.015 A 
ATOM     17  C   UNL     1      -0.465   2.922  26.931  0.00  0.00    +0.071 A 
ENDROOT
BRANCH  13  18
ATOM     18  C   UNL     1       0.911   1.518  23.722  0.00  0.00    -0.016 A 
ATOM     20  C   UNL     1       2.179   2.053  23.518  0.00  0.00    +0.008 A 
ATOM     21  C   UNL     1       0.521   0.355  23.064  0.00  0.00    +0.008 A 
ATOM     24  C   UNL     1       3.066   1.420  22.647  0.00  0.00    +0.001 A 
ATOM     25  C   UNL     1       1.408  -0.278  22.194  0.00  0.00    +0.001 A 
ATOM     26  C   UNL     1       2.680   0.254  21.985  0.00  0.00    +0.000 A 
ENDBRANCH  13  18
BRANCH  15  19
ATOM     19  C   UNL     1      -3.240  -0.803  24.784  0.00  0.00    +0.037 A 
ATOM     22  C   UNL     1      -3.547  -2.093  24.357  0.00  0.00    +0.014 A 
ATOM     23  C   UNL     1      -2.071  -0.561  25.502  0.00  0.00    +0.014 A 
ATOM     27  C   UNL     1      -2.683  -3.147  24.653  0.00  0.00    +0.019 A 
ATOM     28  C   UNL     1      -1.206  -1.614  25.797  0.00  0.00    +0.019 A 
ATOM     29  C   UNL     1      -1.511  -2.907  25.372  0.00  0.00    +0.052 A 
BRANCH  29  30
ATOM      5  N   UNL     1       0.094  -4.865  25.923  0.00  0.00    -0.191 NA
ATOM     30  C   UNL     1      -0.627  -3.987  25.676  0.00  0.00    +0.099 C 
ENDBRANCH  29  30
ENDBRANCH  15  19
TORSDOF 3
ENDMDL
MODEL 5
REMARK VINA RESULT:      13.0      2.164      5.189
REMARK  Name = 7155417
REMARK  3 active torsions:
REMARK  status: ('A' for Active; 'I' for Inactive)
REMARK    1  A    between atoms: C_13  and  C_18
REMARK    2  A    between atoms: C_15  and  C_19
REMARK    3  A    between atoms: C_29  and  C_30
REMARK                            x       y       z     vdW  Elec       q    Type
REMARK                         _______ _______ _______ _____ _____    ______ ____
ROOT
ATOM      1  O   UNL     1      -0.967   3.406  21.207  0.00  0.00    -0.268 OA
ATOM      2  O   UNL     1       0.472  -0.722  23.785  0.00  0.00    -0.270 OA
ATOM      3  N   UNL     1      -0.549   0.699  25.336  0.00  0.00    -0.297 N 
ATOM      4  N   UNL     1      -1.506   3.051  23.459  0.00  0.00    -0.311 N 
ATOM      6  C   UNL     1       0.299   3.031  25.283  0.00  0.00    +0.027 C 
ATOM      7  C   UNL     1      -2.051   2.606  25.871  0.00  0.00    +0.054 C 
ATOM      8  C   UNL     1      -0.833   3.466  26.203  0.00  0.00    +0.018 C 
ATOM      9  C   UNL     1       0.632   1.545  25.498  0.00  0.00    +0.113 C 
ATOM     10  C   UNL     1      -0.111   3.323  23.838  0.00  0.00    +0.130 C 
ATOM     11  C   UNL     1      -1.718   1.119  26.122  0.00  0.00    +0.117 C 
ATOM     12  C   UNL     1      -2.504   2.803  24.423  0.00  0.00    +0.034 A 
ATOM     13  C   UNL     1      -3.805   2.712  24.042  0.00  0.00    +0.002 A 
ATOM     14  C   UNL     1      -1.796   3.176  22.089  0.00  0.00    +0.252 A 
ATOM     15  C   UNL     1      -0.509  -0.373  24.441  0.00  0.00    +0.247 C 
ATOM     16  C   UNL     1      -4.141   2.831  22.636  0.00  0.00    +0.015 A 
ATOM     17  C   UNL     1      -3.216   3.034  21.697  0.00  0.00    +0.071 A 
ENDROOT
BRANCH  13  18
ATOM     18  C   UNL     1      -4.888   2.476  25.022  0.00  0.00    -0.016 A 
ATOM     20  C   UNL     1      -5.268   1.174  25.332  0.00  0.00    +0.008 A 
ATOM     21  C   UNL     1      -5.520   3.559  25.627  0.00  0.00    +0.008 A 
ATOM     24  C   UNL     1      -6.289   0.952  26.256  0.00  0.00    +0.001 A 
ATOM     25  C   UNL     1      -6.541   3.337  26.552  0.00  0.00    +0.001 A 
ATOM     26  C   UNL     1      -6.926   2.034  26.865  0.00  0.00    +0.000 A 
ENDBRANCH  13  18
BRANCH  15  19
ATOM     19  C   UNL     1      -1.734  -1.154  24.238  0.00  0.00    +0.037 A 
ATOM     22  C   UNL     1      -2.838  -0.564  23.628  0.00  0.00    +0.014 A 
ATOM     23  C   UNL     1      -1.787  -2.482  24.653  0.00  0.00    +0.014 A 
ATOM     27  C   UNL     1      -4.003  -1.307  23.434  0.00  0.00    +0.019 A 
ATOM     28  C   UNL     1      -2.951  -3.225  24.459  0.00  0.00    +0.019 A 
ATOM     29  C   UNL     1      -4.059  -2.638  23.849  0.00  0.00    +0.052 A 
BRANCH  29  30
ATOM      5  N   UNL     1      -6.225  -4.014  23.490  0.00  0.00    -0.191 NA
ATOM     30  C   UNL     1      -5.253  -3.397  23.651  0.00  0.00    +0.099 C 
ENDBRANCH  29  30
ENDBRANCH  15  19
TORSDOF 3
ENDMDL
MODEL 6
REMARK VINA RESULT:      13.2      2.569      6.252
REMARK  Name = 7155417
REMARK  3 active torsions:
REMARK  status: ('A' for Active; 'I' for Inactive)
REMARK    1  A    between atoms: C_13  and  C_18
REMARK    2  A    between atoms: C_15  and  C_19
REMARK    3  A    between atoms: C_29  and  C_30
REMARK                            x       y       z     vdW  Elec       q    Type
REMARK                         _______ _______ _______ _____ _____    ______ ____
ROOT
ATOM      1  O   UNL     1      -3.492   4.058  28.115  0.00  0.00    -0.268 OA
ATOM      2  O   UNL     1      -2.934  -0.918  27.293  0.00  0.00    -0.270 OA
ATOM      3  N   UNL     1      -4.359  -0.131  25.615  0.00  0.00    -0.297 N 
ATOM      4  N   UNL     1      -4.371   2.965  26.240  0.00  0.00    -0.311 N 
ATOM      6  C   UNL     1      -6.254   1.235  26.455  0.00  0.00    +0.027 C 
ATOM      7  C   UNL     1      -5.282   1.730  24.250  0.00  0.00    +0.054 C 
ATOM      8  C   UNL     1      -6.594   1.643  25.029  0.00  0.00    +0.018 C 
ATOM      9  C   UNL     1      -5.542  -0.129  26.473  0.00  0.00    +0.113 C 
ATOM     10  C   UNL     1      -5.398   2.336  27.084  0.00  0.00    +0.130 C 
ATOM     11  C   UNL     1      -4.592   0.349  24.244  0.00  0.00    +0.117 C 
ATOM     12  C   UNL     1      -4.343   2.782  24.842  0.00  0.00    +0.034 A 
ATOM     13  C   UNL     1      -3.477   3.503  24.082  0.00  0.00    +0.002 A 
ATOM     14  C   UNL     1      -3.503   3.850  26.901  0.00  0.00    +0.252 A 
ATOM     15  C   UNL     1      -3.126  -0.517  26.146  0.00  0.00    +0.247 C 
ATOM     16  C   UNL     1      -2.563   4.423  24.732  0.00  0.00    +0.015 A 
ATOM     17  C   UNL     1      -2.543   4.593  26.054  0.00  0.00    +0.071 A 
ENDROOT
BRANCH  13  18
ATOM     18  C   UNL     1      -3.429   3.362  22.610  0.00  0.00    -0.016 A 
ATOM     20  C   UNL     1      -4.258   4.145  21.813  0.00  0.00    +0.008 A 
ATOM     21  C   UNL     1      -2.555   2.445  22.033  0.00  0.00    +0.008 A 
ATOM     24  C   UNL     1      -4.211   4.012  20.425  0.00  0.00    +0.001 A 
ATOM     25  C   UNL     1      -2.509   2.311  20.645  0.00  0.00    +0.001 A 
ATOM     26  C   UNL     1      -3.337   3.094  19.842  0.00  0.00    +0.000 A 
ENDBRANCH  13  18
BRANCH  15  19
ATOM     19  C   UNL     1      -1.941  -0.430  25.285  0.00  0.00    +0.037 A 
ATOM     22  C   UNL     1      -1.292   0.791  25.121  0.00  0.00    +0.014 A 
ATOM     23  C   UNL     1      -1.469  -1.569  24.637  0.00  0.00    +0.014 A 
ATOM     27  C   UNL     1      -0.165   0.874  24.303  0.00  0.00    +0.019 A 
ATOM     28  C   UNL     1      -0.342  -1.487  23.820  0.00  0.00    +0.019 A 
ATOM     29  C   UNL     1       0.310  -0.266  23.653  0.00  0.00    +0.052 A 
BRANCH  29  30
ATOM      5  N   UNL     1       2.402  -0.108  22.132  0.00  0.00    -0.191 NA
ATOM     30  C   UNL     1       1.464  -0.179  22.813  0.00  0.00    +0.099 C 
ENDBRANCH  29  30
ENDBRANCH  15  19
TORSDOF 3
ENDMDL
