MODEL 1
REMARK VINA RESULT:      -6.3      0.000      0.000
REMARK  Name = 56775668
REMARK  11 active torsions:
REMARK  status: ('A' for Active; 'I' for Inactive)
REMARK    1  A    between atoms: N_3  and  C_5
REMARK    2  A    between atoms: N_3  and  C_9
REMARK    3  A    between atoms: N_3  and  C_10
REMARK    4  A    between atoms: C_5  and  C_8
REMARK    5  A    between atoms: C_8  and  C_11
REMARK    6  A    between atoms: C_9  and  C_12
REMARK    7  A    between atoms: C_10  and  C_13
REMARK    8  A    between atoms: C_15  and  C_16
REMARK    9  A    between atoms: C_16  and  C_17
REMARK   10  A    between atoms: C_17  and  C_18
REMARK   11  A    between atoms: C_17  and  C_19
REMARK                            x       y       z     vdW  Elec       q    Type
REMARK                         _______ _______ _______ _____ _____    ______ ____
ROOT
ATOM      8  C   UNL     1      -0.400   2.276  25.712  0.00  0.00    +0.085 C 
ENDROOT
BRANCH   8  11
ATOM      2  O   UNL     1      -0.252  -0.727  23.785  0.00  0.00    -0.359 OA
ATOM      4  N   UNL     1       0.156   0.571  24.073  0.00  0.00    -0.083 NA
ATOM     11  C   UNL     1      -0.575   0.936  25.129  0.00  0.00    +0.086 A 
ATOM     14  C   UNL     1      -1.454  -0.078  25.549  0.00  0.00    +0.071 A 
ATOM     15  C   UNL     1      -1.211  -1.102  24.671  0.00  0.00    +0.138 A 
BRANCH  15  16
ATOM     16  C   UNL     1      -1.773  -2.492  24.507  0.00  0.00    +0.080 C 
BRANCH  16  17
ATOM     17  C   UNL     1      -3.263  -2.611  24.881  0.00  0.00    -0.010 C 
ATOM     18  C   UNL     1      -4.131  -2.184  23.694  0.00  0.00    +0.007 C 
ATOM     19  C   UNL     1      -3.617  -1.767  26.108  0.00  0.00    +0.007 C 
ENDBRANCH  16  17
ENDBRANCH  15  16
ENDBRANCH   8  11
BRANCH   8   5
ATOM      1  O   UNL     1      -1.734   5.359  25.332  0.00  0.00    -0.376 OA
ATOM      5  C   UNL     1      -1.487   3.241  25.221  0.00  0.00    +0.074 C 
ATOM      6  C   UNL     1      -2.072   4.253  26.200  0.00  0.00    +0.184 C 
ATOM      7  C   UNL     1      -1.078   4.463  24.406  0.00  0.00    +0.184 C 
BRANCH   5   3
ATOM      3  N   UNL     1      -2.580   2.565  24.537  0.00  0.00    -0.293 NA
BRANCH   3   9
ATOM      9  C   UNL     1      -3.846   2.846  25.224  0.00  0.00    +0.082 C 
ATOM     12  C   UNL     1      -4.813   1.680  25.092  0.00  0.00    +0.020 C 
ENDBRANCH   3   9
BRANCH   3  10
ATOM     10  C   UNL     1      -2.653   3.024  23.144  0.00  0.00    +0.082 C 
ATOM     13  C   UNL     1      -2.569   1.856  22.176  0.00  0.00    +0.020 C 
ENDBRANCH   3  10
ENDBRANCH   5   3
ENDBRANCH   8   5
TORSDOF 7
ENDMDL
MODEL 2
REMARK VINA RESULT:      -5.8      1.754      3.366
REMARK  Name = 56775668
REMARK  11 active torsions:
REMARK  status: ('A' for Active; 'I' for Inactive)
REMARK    1  A    between atoms: N_3  and  C_5
REMARK    2  A    between atoms: N_3  and  C_9
REMARK    3  A    between atoms: N_3  and  C_10
REMARK    4  A    between atoms: C_5  and  C_8
REMARK    5  A    between atoms: C_8  and  C_11
REMARK    6  A    between atoms: C_9  and  C_12
REMARK    7  A    between atoms: C_10  and  C_13
REMARK    8  A    between atoms: C_15  and  C_16
REMARK    9  A    between atoms: C_16  and  C_17
REMARK   10  A    between atoms: C_17  and  C_18
REMARK   11  A    between atoms: C_17  and  C_19
REMARK                            x       y       z     vdW  Elec       q    Type
REMARK                         _______ _______ _______ _____ _____    ______ ____
ROOT
ATOM      8  C   UNL     1      -2.982   3.159  23.461  0.00  0.00    +0.085 C 
ENDROOT
BRANCH   8  11
ATOM      2  O   UNL     1      -4.975   0.491  24.752  0.00  0.00    -0.359 OA
ATOM      4  N   UNL     1      -4.653   1.838  24.631  0.00  0.00    -0.083 NA
ATOM     11  C   UNL     1      -3.597   1.869  23.816  0.00  0.00    +0.086 A 
ATOM     14  C   UNL     1      -3.209   0.585  23.393  0.00  0.00    +0.071 A 
ATOM     15  C   UNL     1      -4.108  -0.245  24.010  0.00  0.00    +0.138 A 
BRANCH  15  16
ATOM     16  C   UNL     1      -4.311  -1.739  24.023  0.00  0.00    +0.080 C 
BRANCH  16  17
ATOM     17  C   UNL     1      -3.361  -2.489  24.978  0.00  0.00    -0.010 C 
ATOM     18  C   UNL     1      -3.218  -1.708  26.286  0.00  0.00    +0.007 C 
ATOM     19  C   UNL     1      -1.979  -2.710  24.357  0.00  0.00    +0.007 C 
ENDBRANCH  16  17
ENDBRANCH  15  16
ENDBRANCH   8  11
BRANCH   8   5
ATOM      1  O   UNL     1      -1.192   5.425  25.218  0.00  0.00    -0.376 OA
ATOM      5  C   UNL     1      -1.898   3.553  24.472  0.00  0.00    +0.074 C 
ATOM      6  C   UNL     1      -0.865   4.602  24.075  0.00  0.00    +0.184 C 
ATOM      7  C   UNL     1      -2.253   4.519  25.598  0.00  0.00    +0.184 C 
BRANCH   5   3
ATOM      3  N   UNL     1      -1.205   2.405  25.040  0.00  0.00    -0.293 NA
BRANCH   3   9
ATOM      9  C   UNL     1       0.083   2.217  24.361  0.00  0.00    +0.082 C 
ATOM     12  C   UNL     1       0.196   0.819  23.775  0.00  0.00    +0.020 C 
ENDBRANCH   3   9
BRANCH   3  10
ATOM     10  C   UNL     1      -0.989   2.616  26.477  0.00  0.00    +0.082 C 
ATOM     13  C   UNL     1       0.482   2.490  26.835  0.00  0.00    +0.020 C 
ENDBRANCH   3  10
ENDBRANCH   5   3
ENDBRANCH   8   5
TORSDOF 7
ENDMDL
MODEL 3
REMARK VINA RESULT:      -5.3      1.920      5.657
REMARK  Name = 56775668
REMARK  11 active torsions:
REMARK  status: ('A' for Active; 'I' for Inactive)
REMARK    1  A    between atoms: N_3  and  C_5
REMARK    2  A    between atoms: N_3  and  C_9
REMARK    3  A    between atoms: N_3  and  C_10
REMARK    4  A    between atoms: C_5  and  C_8
REMARK    5  A    between atoms: C_8  and  C_11
REMARK    6  A    between atoms: C_9  and  C_12
REMARK    7  A    between atoms: C_10  and  C_13
REMARK    8  A    between atoms: C_15  and  C_16
REMARK    9  A    between atoms: C_16  and  C_17
REMARK   10  A    between atoms: C_17  and  C_18
REMARK   11  A    between atoms: C_17  and  C_19
REMARK                            x       y       z     vdW  Elec       q    Type
REMARK                         _______ _______ _______ _____ _____    ______ ____
ROOT
ATOM      8  C   UNL     1      -3.896  -0.333  23.594  0.00  0.00    +0.085 C 
ENDROOT
BRANCH   8  11
ATOM      2  O   UNL     1      -4.903   2.865  24.825  0.00  0.00    -0.359 OA
ATOM      4  N   UNL     1      -5.072   1.492  24.687  0.00  0.00    -0.083 NA
ATOM     11  C   UNL     1      -4.039   1.091  23.942  0.00  0.00    +0.086 A 
ATOM     14  C   UNL     1      -3.193   2.154  23.583  0.00  0.00    +0.071 A 
ATOM     15  C   UNL     1      -3.780   3.248  24.163  0.00  0.00    +0.138 A 
BRANCH  15  16
ATOM     16  C   UNL     1      -3.440   4.716  24.207  0.00  0.00    +0.080 C 
BRANCH  16  17
ATOM     17  C   UNL     1      -2.476   5.099  25.348  0.00  0.00    -0.010 C 
ATOM     18  C   UNL     1      -1.028   4.960  24.872  0.00  0.00    +0.007 C 
ATOM     19  C   UNL     1      -2.692   4.239  26.596  0.00  0.00    +0.007 C 
ENDBRANCH  16  17
ENDBRANCH  15  16
ENDBRANCH   8  11
BRANCH   8   5
ATOM      1  O   UNL     1      -2.949  -2.778  25.726  0.00  0.00    -0.376 OA
ATOM      5  C   UNL     1      -2.878  -1.027  24.507  0.00  0.00    +0.074 C 
ATOM      6  C   UNL     1      -3.288  -1.387  25.931  0.00  0.00    +0.184 C 
ATOM      7  C   UNL     1      -2.634  -2.523  24.339  0.00  0.00    +0.184 C 
BRANCH   5   3
ATOM      3  N   UNL     1      -1.592  -0.344  24.547  0.00  0.00    -0.293 NA
BRANCH   3   9
ATOM      9  C   UNL     1      -1.268   0.022  25.931  0.00  0.00    +0.082 C 
ATOM     12  C   UNL     1      -0.595   1.383  25.996  0.00  0.00    +0.020 C 
ENDBRANCH   3   9
BRANCH   3  10
ATOM     10  C   UNL     1      -0.547  -1.219  24.002  0.00  0.00    +0.082 C 
ATOM     13  C   UNL     1       0.467  -0.427  23.194  0.00  0.00    +0.020 C 
ENDBRANCH   3  10
ENDBRANCH   5   3
ENDBRANCH   8   5
TORSDOF 7
ENDMDL
MODEL 4
REMARK VINA RESULT:      -4.9      2.824      4.444
REMARK  Name = 56775668
REMARK  11 active torsions:
REMARK  status: ('A' for Active; 'I' for Inactive)
REMARK    1  A    between atoms: N_3  and  C_5
REMARK    2  A    between atoms: N_3  and  C_9
REMARK    3  A    between atoms: N_3  and  C_10
REMARK    4  A    between atoms: C_5  and  C_8
REMARK    5  A    between atoms: C_8  and  C_11
REMARK    6  A    between atoms: C_9  and  C_12
REMARK    7  A    between atoms: C_10  and  C_13
REMARK    8  A    between atoms: C_15  and  C_16
REMARK    9  A    between atoms: C_16  and  C_17
REMARK   10  A    between atoms: C_17  and  C_18
REMARK   11  A    between atoms: C_17  and  C_19
REMARK                            x       y       z     vdW  Elec       q    Type
REMARK                         _______ _______ _______ _____ _____    ______ ____
ROOT
ATOM      8  C   UNL     1      -1.321   1.709  25.422  0.00  0.00    +0.085 C 
ENDROOT
BRANCH   8  11
ATOM      2  O   UNL     1       0.556  -0.669  23.531  0.00  0.00    -0.359 OA
ATOM      4  N   UNL     1      -0.553  -0.295  24.281  0.00  0.00    -0.083 NA
ATOM     11  C   UNL     1      -0.331   0.980  24.613  0.00  0.00    +0.086 A 
ATOM     14  C   UNL     1       0.889   1.460  24.105  0.00  0.00    +0.071 A 
ATOM     15  C   UNL     1       1.407   0.385  23.433  0.00  0.00    +0.138 A 
BRANCH  15  16
ATOM     16  C   UNL     1       2.673   0.156  22.646  0.00  0.00    +0.080 C 
BRANCH  16  17
ATOM     17  C   UNL     1       3.920  -0.072  23.523  0.00  0.00    -0.010 C 
ATOM     18  C   UNL     1       5.139   0.586  22.873  0.00  0.00    +0.007 C 
ATOM     19  C   UNL     1       4.198  -1.560  23.750  0.00  0.00    +0.007 C 
ENDBRANCH  16  17
ENDBRANCH  15  16
ENDBRANCH   8  11
BRANCH   8   5
ATOM      1  O   UNL     1      -3.558   1.098  22.963  0.00  0.00    -0.376 OA
ATOM      5  C   UNL     1      -2.569   2.050  24.598  0.00  0.00    +0.074 C 
ATOM      6  C   UNL     1      -2.472   2.046  23.076  0.00  0.00    +0.184 C 
ATOM      7  C   UNL     1      -3.640   0.983  24.402  0.00  0.00    +0.184 C 
BRANCH   5   3
ATOM      3  N   UNL     1      -3.211   3.286  25.024  0.00  0.00    -0.293 NA
BRANCH   3   9
ATOM      9  C   UNL     1      -4.440   2.978  25.763  0.00  0.00    +0.082 C 
ATOM     12  C   UNL     1      -5.542   3.973  25.437  0.00  0.00    +0.020 C 
ENDBRANCH   3   9
BRANCH   3  10
ATOM     10  C   UNL     1      -2.293   4.054  25.874  0.00  0.00    +0.082 C 
ATOM     13  C   UNL     1      -1.565   5.121  25.074  0.00  0.00    +0.020 C 
ENDBRANCH   3  10
ENDBRANCH   5   3
ENDBRANCH   8   5
TORSDOF 7
ENDMDL
MODEL 5
REMARK VINA RESULT:      -4.8      1.368      2.553
REMARK  Name = 56775668
REMARK  11 active torsions:
REMARK  status: ('A' for Active; 'I' for Inactive)
REMARK    1  A    between atoms: N_3  and  C_5
REMARK    2  A    between atoms: N_3  and  C_9
REMARK    3  A    between atoms: N_3  and  C_10
REMARK    4  A    between atoms: C_5  and  C_8
REMARK    5  A    between atoms: C_8  and  C_11
REMARK    6  A    between atoms: C_9  and  C_12
REMARK    7  A    between atoms: C_10  and  C_13
REMARK    8  A    between atoms: C_15  and  C_16
REMARK    9  A    between atoms: C_16  and  C_17
REMARK   10  A    between atoms: C_17  and  C_18
REMARK   11  A    between atoms: C_17  and  C_19
REMARK                            x       y       z     vdW  Elec       q    Type
REMARK                         _______ _______ _______ _____ _____    ______ ____
ROOT
ATOM      8  C   UNL     1      -1.900   2.518  23.335  0.00  0.00    +0.085 C 
ENDROOT
BRANCH   8  11
ATOM      2  O   UNL     1      -0.223  -0.580  23.919  0.00  0.00    -0.359 OA
ATOM      4  N   UNL     1      -0.230   0.772  23.597  0.00  0.00    -0.083 NA
ATOM     11  C   UNL     1      -1.516   1.128  23.630  0.00  0.00    +0.086 A 
ATOM     14  C   UNL     1      -2.360   0.054  23.964  0.00  0.00    +0.071 A 
ATOM     15  C   UNL     1      -1.497  -0.996  24.135  0.00  0.00    +0.138 A 
BRANCH  15  16
ATOM     16  C   UNL     1      -1.679  -2.449  24.500  0.00  0.00    +0.080 C 
BRANCH  16  17
ATOM     17  C   UNL     1      -3.057  -2.771  25.108  0.00  0.00    -0.010 C 
ATOM     18  C   UNL     1      -4.117  -2.805  24.004  0.00  0.00    +0.007 C 
ATOM     19  C   UNL     1      -3.464  -1.757  26.181  0.00  0.00    +0.007 C 
ENDBRANCH  16  17
ENDBRANCH  15  16
ENDBRANCH   8  11
BRANCH   8   5
ATOM      1  O   UNL     1      -4.804   3.258  24.899  0.00  0.00    -0.376 OA
ATOM      5  C   UNL     1      -2.714   3.125  24.485  0.00  0.00    +0.074 C 
ATOM      6  C   UNL     1      -3.865   4.069  24.156  0.00  0.00    +0.184 C 
ATOM      7  C   UNL     1      -3.779   2.274  25.167  0.00  0.00    +0.184 C 
BRANCH   5   3
ATOM      3  N   UNL     1      -1.879   3.741  25.507  0.00  0.00    -0.293 NA
BRANCH   3   9
ATOM      9  C   UNL     1      -1.401   2.715  26.441  0.00  0.00    +0.082 C 
ATOM     12  C   UNL     1       0.118   2.646  26.450  0.00  0.00    +0.020 C 
ENDBRANCH   3   9
BRANCH   3  10
ATOM     10  C   UNL     1      -0.738   4.416  24.876  0.00  0.00    +0.082 C 
ATOM     13  C   UNL     1      -0.979   5.912  24.765  0.00  0.00    +0.020 C 
ENDBRANCH   3  10
ENDBRANCH   5   3
ENDBRANCH   8   5
TORSDOF 7
ENDMDL
MODEL 6
REMARK VINA RESULT:      -4.7      2.299      3.516
REMARK  Name = 56775668
REMARK  11 active torsions:
REMARK  status: ('A' for Active; 'I' for Inactive)
REMARK    1  A    between atoms: N_3  and  C_5
REMARK    2  A    between atoms: N_3  and  C_9
REMARK    3  A    between atoms: N_3  and  C_10
REMARK    4  A    between atoms: C_5  and  C_8
REMARK    5  A    between atoms: C_8  and  C_11
REMARK    6  A    between atoms: C_9  and  C_12
REMARK    7  A    between atoms: C_10  and  C_13
REMARK    8  A    between atoms: C_15  and  C_16
REMARK    9  A    between atoms: C_16  and  C_17
REMARK   10  A    between atoms: C_17  and  C_18
REMARK   11  A    between atoms: C_17  and  C_19
REMARK                            x       y       z     vdW  Elec       q    Type
REMARK                         _______ _______ _______ _____ _____    ______ ____
ROOT
ATOM      8  C   UNL     1      -0.863   1.878  25.977  0.00  0.00    +0.085 C 
ENDROOT
BRANCH   8  11
ATOM      2  O   UNL     1       0.112  -0.794  23.816  0.00  0.00    -0.359 OA
ATOM      4  N   UNL     1      -0.620  -0.277  24.879  0.00  0.00    -0.083 NA
ATOM     11  C   UNL     1      -0.269   1.009  24.948  0.00  0.00    +0.086 A 
ATOM     14  C   UNL     1       0.673   1.360  23.965  0.00  0.00    +0.071 A 
ATOM     15  C   UNL     1       0.879   0.191  23.280  0.00  0.00    +0.138 A 
BRANCH  15  16
ATOM     16  C   UNL     1       1.745  -0.194  22.107  0.00  0.00    +0.080 C 
BRANCH  16  17
ATOM     17  C   UNL     1       3.257  -0.135  22.403  0.00  0.00    -0.010 C 
ATOM     18  C   UNL     1       3.595  -1.067  23.568  0.00  0.00    +0.007 C 
ATOM     19  C   UNL     1       3.723   1.287  22.728  0.00  0.00    +0.007 C 
ENDBRANCH  16  17
ENDBRANCH  15  16
ENDBRANCH   8  11
BRANCH   8   5
ATOM      1  O   UNL     1      -1.909   5.044  25.425  0.00  0.00    -0.376 OA
ATOM      5  C   UNL     1      -1.807   2.913  25.352  0.00  0.00    +0.074 C 
ATOM      6  C   UNL     1      -2.432   3.977  26.248  0.00  0.00    +0.184 C 
ATOM      7  C   UNL     1      -1.211   4.092  24.591  0.00  0.00    +0.184 C 
BRANCH   5   3
ATOM      3  N   UNL     1      -2.853   2.310  24.539  0.00  0.00    -0.293 NA
BRANCH   3   9
ATOM      9  C   UNL     1      -4.163   2.559  25.152  0.00  0.00    +0.082 C 
ATOM     12  C   UNL     1      -5.068   1.345  25.024  0.00  0.00    +0.020 C 
ENDBRANCH   3   9
BRANCH   3  10
ATOM     10  C   UNL     1      -2.817   2.876  23.184  0.00  0.00    +0.082 C 
ATOM     13  C   UNL     1      -2.549   1.799  22.147  0.00  0.00    +0.020 C 
ENDBRANCH   3  10
ENDBRANCH   5   3
ENDBRANCH   8   5
TORSDOF 7
ENDMDL
MODEL 7
REMARK VINA RESULT:      -4.5      2.212      3.971
REMARK  Name = 56775668
REMARK  11 active torsions:
REMARK  status: ('A' for Active; 'I' for Inactive)
REMARK    1  A    between atoms: N_3  and  C_5
REMARK    2  A    between atoms: N_3  and  C_9
REMARK    3  A    between atoms: N_3  and  C_10
REMARK    4  A    between atoms: C_5  and  C_8
REMARK    5  A    between atoms: C_8  and  C_11
REMARK    6  A    between atoms: C_9  and  C_12
REMARK    7  A    between atoms: C_10  and  C_13
REMARK    8  A    between atoms: C_15  and  C_16
REMARK    9  A    between atoms: C_16  and  C_17
REMARK   10  A    between atoms: C_17  and  C_18
REMARK   11  A    between atoms: C_17  and  C_19
REMARK                            x       y       z     vdW  Elec       q    Type
REMARK                         _______ _______ _______ _____ _____    ______ ____
ROOT
ATOM      8  C   UNL     1      -4.307   0.126  25.866  0.00  0.00    +0.085 C 
ENDROOT
BRANCH   8  11
ATOM      2  O   UNL     1      -1.935  -1.684  23.903  0.00  0.00    -0.359 OA
ATOM      4  N   UNL     1      -3.225  -1.451  24.365  0.00  0.00    -0.083 NA
ATOM     11  C   UNL     1      -3.113  -0.404  25.187  0.00  0.00    +0.086 A 
ATOM     14  C   UNL     1      -1.790   0.062  25.283  0.00  0.00    +0.071 A 
ATOM     15  C   UNL     1      -1.089  -0.777  24.457  0.00  0.00    +0.138 A 
BRANCH  15  16
ATOM     16  C   UNL     1       0.363  -0.882  24.064  0.00  0.00    +0.080 C 
BRANCH  16  17
ATOM     17  C   UNL     1       0.847   0.265  23.155  0.00  0.00    -0.010 C 
ATOM     18  C   UNL     1       2.251  -0.047  22.630  0.00  0.00    +0.007 C 
ATOM     19  C   UNL     1       0.858   1.611  23.885  0.00  0.00    +0.007 C 
ENDBRANCH  16  17
ENDBRANCH  15  16
ENDBRANCH   8  11
BRANCH   8   5
ATOM      1  O   UNL     1      -6.506   2.607  25.204  0.00  0.00    -0.376 OA
ATOM      5  C   UNL     1      -4.674   1.519  25.337  0.00  0.00    +0.074 C 
ATOM      6  C   UNL     1      -5.831   1.653  24.352  0.00  0.00    +0.184 C 
ATOM      7  C   UNL     1      -5.490   2.454  26.222  0.00  0.00    +0.184 C 
BRANCH   5   3
ATOM      3  N   UNL     1      -3.527   2.248  24.815  0.00  0.00    -0.293 NA
BRANCH   3   9
ATOM      9  C   UNL     1      -3.766   2.611  23.413  0.00  0.00    +0.082 C 
ATOM     12  C   UNL     1      -2.686   2.043  22.507  0.00  0.00    +0.020 C 
ENDBRANCH   3   9
BRANCH   3  10
ATOM     10  C   UNL     1      -3.302   3.458  25.615  0.00  0.00    +0.082 C 
ATOM     13  C   UNL     1      -1.835   3.853  25.613  0.00  0.00    +0.020 C 
ENDBRANCH   3  10
ENDBRANCH   5   3
ENDBRANCH   8   5
TORSDOF 7
ENDMDL
MODEL 8
REMARK VINA RESULT:      -4.4      1.857      3.467
REMARK  Name = 56775668
REMARK  11 active torsions:
REMARK  status: ('A' for Active; 'I' for Inactive)
REMARK    1  A    between atoms: N_3  and  C_5
REMARK    2  A    between atoms: N_3  and  C_9
REMARK    3  A    between atoms: N_3  and  C_10
REMARK    4  A    between atoms: C_5  and  C_8
REMARK    5  A    between atoms: C_8  and  C_11
REMARK    6  A    between atoms: C_9  and  C_12
REMARK    7  A    between atoms: C_10  and  C_13
REMARK    8  A    between atoms: C_15  and  C_16
REMARK    9  A    between atoms: C_16  and  C_17
REMARK   10  A    between atoms: C_17  and  C_18
REMARK   11  A    between atoms: C_17  and  C_19
REMARK                            x       y       z     vdW  Elec       q    Type
REMARK                         _______ _______ _______ _____ _____    ______ ____
ROOT
ATOM      8  C   UNL     1      -4.637   1.668  25.397  0.00  0.00    +0.085 C 
ENDROOT
BRANCH   8  11
ATOM      2  O   UNL     1      -4.315  -1.619  24.039  0.00  0.00    -0.359 OA
ATOM      4  N   UNL     1      -4.996  -0.418  24.203  0.00  0.00    -0.083 NA
ATOM     11  C   UNL     1      -4.219   0.312  25.006  0.00  0.00    +0.086 A 
ATOM     14  C   UNL     1      -3.045  -0.368  25.379  0.00  0.00    +0.071 A 
ATOM     15  C   UNL     1      -3.155  -1.577  24.743  0.00  0.00    +0.138 A 
BRANCH  15  16
ATOM     16  C   UNL     1      -2.283  -2.806  24.678  0.00  0.00    +0.080 C 
BRANCH  16  17
ATOM     17  C   UNL     1      -0.799  -2.502  24.392  0.00  0.00    -0.010 C 
ATOM     18  C   UNL     1      -0.011  -2.483  25.704  0.00  0.00    +0.007 C 
ATOM     19  C   UNL     1      -0.615  -1.170  23.661  0.00  0.00    +0.007 C 
ENDBRANCH  16  17
ENDBRANCH  15  16
ENDBRANCH   8  11
BRANCH   8   5
ATOM      1  O   UNL     1      -3.884   3.811  22.893  0.00  0.00    -0.376 OA
ATOM      5  C   UNL     1      -3.756   2.734  24.732  0.00  0.00    +0.074 C 
ATOM      6  C   UNL     1      -3.325   2.535  23.283  0.00  0.00    +0.184 C 
ATOM      7  C   UNL     1      -4.403   4.018  24.227  0.00  0.00    +0.184 C 
BRANCH   5   3
ATOM      3  N   UNL     1      -2.586   3.079  25.527  0.00  0.00    -0.293 NA
BRANCH   3   9
ATOM      9  C   UNL     1      -1.366   2.693  24.808  0.00  0.00    +0.082 C 
ATOM     12  C   UNL     1      -0.344   2.080  25.751  0.00  0.00    +0.020 C 
ENDBRANCH   3   9
BRANCH   3  10
ATOM     10  C   UNL     1      -2.575   4.523  25.793  0.00  0.00    +0.082 C 
ATOM     13  C   UNL     1      -1.394   5.197  25.116  0.00  0.00    +0.020 C 
ENDBRANCH   3  10
ENDBRANCH   5   3
ENDBRANCH   8   5
TORSDOF 7
ENDMDL
MODEL 9
REMARK VINA RESULT:      -4.0      1.200      2.065
REMARK  Name = 56775668
REMARK  11 active torsions:
REMARK  status: ('A' for Active; 'I' for Inactive)
REMARK    1  A    between atoms: N_3  and  C_5
REMARK    2  A    between atoms: N_3  and  C_9
REMARK    3  A    between atoms: N_3  and  C_10
REMARK    4  A    between atoms: C_5  and  C_8
REMARK    5  A    between atoms: C_8  and  C_11
REMARK    6  A    between atoms: C_9  and  C_12
REMARK    7  A    between atoms: C_10  and  C_13
REMARK    8  A    between atoms: C_15  and  C_16
REMARK    9  A    between atoms: C_16  and  C_17
REMARK   10  A    between atoms: C_17  and  C_18
REMARK   11  A    between atoms: C_17  and  C_19
REMARK                            x       y       z     vdW  Elec       q    Type
REMARK                         _______ _______ _______ _____ _____    ______ ____
ROOT
ATOM      8  C   UNL     1      -0.980   2.364  24.280  0.00  0.00    +0.085 C 
ENDROOT
BRANCH   8  11
ATOM      2  O   UNL     1      -1.286  -0.501  26.391  0.00  0.00    -0.359 OA
ATOM      4  N   UNL     1      -0.634   0.654  25.972  0.00  0.00    -0.083 NA
ATOM     11  C   UNL     1      -1.380   1.127  24.971  0.00  0.00    +0.086 A 
ATOM     14  C   UNL     1      -2.505   0.323  24.715  0.00  0.00    +0.071 A 
ATOM     15  C   UNL     1      -2.399  -0.687  25.635  0.00  0.00    +0.138 A 
BRANCH  15  16
ATOM     16  C   UNL     1      -3.234  -1.901  25.954  0.00  0.00    +0.080 C 
BRANCH  16  17
ATOM     17  C   UNL     1      -3.400  -2.873  24.770  0.00  0.00    -0.010 C 
ATOM     18  C   UNL     1      -2.044  -3.112  24.101  0.00  0.00    +0.007 C 
ATOM     19  C   UNL     1      -4.400  -2.353  23.734  0.00  0.00    +0.007 C 
ENDBRANCH  16  17
ENDBRANCH  15  16
ENDBRANCH   8  11
BRANCH   8   5
ATOM      1  O   UNL     1      -1.921   5.146  25.954  0.00  0.00    -0.376 OA
ATOM      5  C   UNL     1      -1.955   3.509  24.584  0.00  0.00    +0.074 C 
ATOM      6  C   UNL     1      -2.360   3.770  26.031  0.00  0.00    +0.184 C 
ATOM      7  C   UNL     1      -1.429   4.940  24.610  0.00  0.00    +0.184 C 
BRANCH   5   3
ATOM      3  N   UNL     1      -3.156   3.466  23.761  0.00  0.00    -0.293 NA
BRANCH   3   9
ATOM      9  C   UNL     1      -3.194   2.209  23.004  0.00  0.00    +0.082 C 
ATOM     12  C   UNL     1      -2.764   2.424  21.562  0.00  0.00    +0.020 C 
ENDBRANCH   3   9
BRANCH   3  10
ATOM     10  C   UNL     1      -4.346   3.573  24.615  0.00  0.00    +0.082 C 
ATOM     13  C   UNL     1      -5.176   2.301  24.562  0.00  0.00    +0.020 C 
ENDBRANCH   3  10
ENDBRANCH   5   3
ENDBRANCH   8   5
TORSDOF 7
ENDMDL
MODEL 10
REMARK VINA RESULT:      -3.9      1.472      2.301
REMARK  Name = 56775668
REMARK  11 active torsions:
REMARK  status: ('A' for Active; 'I' for Inactive)
REMARK    1  A    between atoms: N_3  and  C_5
REMARK    2  A    between atoms: N_3  and  C_9
REMARK    3  A    between atoms: N_3  and  C_10
REMARK    4  A    between atoms: C_5  and  C_8
REMARK    5  A    between atoms: C_8  and  C_11
REMARK    6  A    between atoms: C_9  and  C_12
REMARK    7  A    between atoms: C_10  and  C_13
REMARK    8  A    between atoms: C_15  and  C_16
REMARK    9  A    between atoms: C_16  and  C_17
REMARK   10  A    between atoms: C_17  and  C_18
REMARK   11  A    between atoms: C_17  and  C_19
REMARK                            x       y       z     vdW  Elec       q    Type
REMARK                         _______ _______ _______ _____ _____    ______ ____
ROOT
ATOM      8  C   UNL     1      -1.039   2.337  23.793  0.00  0.00    +0.085 C 
ENDROOT
BRANCH   8  11
ATOM      2  O   UNL     1      -0.120  -1.114  23.769  0.00  0.00    -0.359 OA
ATOM      4  N   UNL     1       0.164   0.235  23.589  0.00  0.00    -0.083 NA
ATOM     11  C   UNL     1      -0.975   0.869  23.878  0.00  0.00    +0.086 A 
ATOM     14  C   UNL     1      -2.004  -0.018  24.242  0.00  0.00    +0.071 A 
ATOM     15  C   UNL     1      -1.414  -1.252  24.158  0.00  0.00    +0.138 A 
BRANCH  15  16
ATOM     16  C   UNL     1      -1.897  -2.660  24.401  0.00  0.00    +0.080 C 
BRANCH  16  17
ATOM     17  C   UNL     1      -3.335  -2.739  24.949  0.00  0.00    -0.010 C 
ATOM     18  C   UNL     1      -4.336  -2.508  23.815  0.00  0.00    +0.007 C 
ATOM     19  C   UNL     1      -3.581  -1.724  26.068  0.00  0.00    +0.007 C 
ENDBRANCH  16  17
ENDBRANCH  15  16
ENDBRANCH   8  11
BRANCH   8   5
ATOM      1  O   UNL     1       0.549   2.644  26.761  0.00  0.00    -0.376 OA
ATOM      5  C   UNL     1      -0.834   2.982  25.170  0.00  0.00    +0.074 C 
ATOM      6  C   UNL     1      -0.733   2.083  26.398  0.00  0.00    +0.184 C 
ATOM      7  C   UNL     1       0.561   3.455  25.564  0.00  0.00    +0.184 C 
BRANCH   5   3
ATOM      3  N   UNL     1      -1.787   4.047  25.446  0.00  0.00    -0.293 NA
BRANCH   3   9
ATOM      9  C   UNL     1      -1.203   5.343  25.080  0.00  0.00    +0.082 C 
ATOM     12  C   UNL     1      -2.282   6.348  24.713  0.00  0.00    +0.020 C 
ENDBRANCH   3   9
BRANCH   3  10
ATOM     10  C   UNL     1      -3.021   3.820  24.683  0.00  0.00    +0.082 C 
ATOM     13  C   UNL     1      -4.161   3.401  25.596  0.00  0.00    +0.020 C 
ENDBRANCH   3  10
ENDBRANCH   5   3
ENDBRANCH   8   5
TORSDOF 7
ENDMDL
