MODEL 1
REMARK VINA RESULT:      -3.4      0.000      0.000
REMARK  Name = 45783812
REMARK  7 active torsions:
REMARK  status: ('A' for Active; 'I' for Inactive)
REMARK    1  A    between atoms: N_4  and  C_13
REMARK    2  A    between atoms: N_8  and  C_27
REMARK    3  A    between atoms: N_8  and  C_28
REMARK    4  A    between atoms: N_8  and  C_29
REMARK    5  A    between atoms: C_9  and  C_14
REMARK    6  A    between atoms: C_13  and  C_15
REMARK    7  A    between atoms: C_18  and  C_22
REMARK                            x       y       z     vdW  Elec       q    Type
REMARK                         _______ _______ _______ _____ _____    ______ ____
ROOT
ATOM      4  N   UNL     1      14.989  -9.549  28.840  0.00  0.00    -0.287 NA
ATOM      9  C   UNL     1      16.180  -9.409  27.978  0.00  0.00    +0.146 C 
ATOM     10  C   UNL     1      15.801 -10.126  26.669  0.00  0.00    +0.030 C 
ATOM     11  C   UNL     1      14.407 -10.687  26.913  0.00  0.00    +0.017 C 
ATOM     12  C   UNL     1      14.318 -10.781  28.422  0.00  0.00    +0.085 C 
ENDROOT
BRANCH   9  14
ATOM      1  O   UNL     1      17.117  -7.316  28.823  0.00  0.00    -0.336 OA
ATOM      5  N   UNL     1      16.467  -7.227  26.682  0.00  0.00    -0.190 NA
ATOM      6  N   UNL     1      17.395  -6.016  28.386  0.00  0.00    -0.056 NA
ATOM     14  C   UNL     1      16.574  -7.963  27.760  0.00  0.00    +0.245 A 
ATOM     18  C   UNL     1      16.983  -6.041  27.115  0.00  0.00    +0.204 A 
BRANCH  18  22
ATOM      7  N   UNL     1      17.257  -2.500  26.011  0.00  0.00    -0.240 NA
ATOM     22  C   UNL     1      17.075  -4.900  26.251  0.00  0.00    +0.041 A 
ATOM     24  C   UNL     1      17.072  -5.046  24.869  0.00  0.00    +0.016 A 
ATOM     25  C   UNL     1      17.168  -3.617  26.768  0.00  0.00    +0.124 A 
ATOM     26  C   UNL     1      17.162  -3.920  24.056  0.00  0.00    +0.044 A 
ATOM     27  C   UNL     1      17.251  -2.682  24.670  0.00  0.00    +0.121 A 
BRANCH  27   8
ATOM      8  N   UNL     1      17.343  -1.545  23.830  0.00  0.00    -0.321 N 
ATOM     28  C   UNL     1      17.405  -0.220  24.403  0.00  0.00    +0.130 C 
ATOM     29  C   UNL     1      17.369  -1.704  22.393  0.00  0.00    +0.130 C 
ENDBRANCH  27   8
ENDBRANCH  18  22
ENDBRANCH   9  14
BRANCH   4  13
ATOM     13  C   UNL     1      15.307  -9.554  30.263  0.00  0.00    +0.120 C 
BRANCH  13  15
ATOM      2  O   UNL     1      11.902  -6.063  31.104  0.00  0.00    -0.453 OA
ATOM      3  O   UNL     1      13.254  -4.982  32.781  0.00  0.00    -0.453 OA
ATOM     15  C   UNL     1      14.789  -8.324  30.958  0.00  0.00    -0.030 A 
ATOM     16  C   UNL     1      13.527  -7.821  30.628  0.00  0.00    +0.054 A 
ATOM     17  C   UNL     1      15.577  -7.692  31.935  0.00  0.00    +0.009 A 
ATOM     19  C   UNL     1      13.094  -6.692  31.292  0.00  0.00    +0.167 A 
ATOM     20  C   UNL     1      15.114  -6.551  32.595  0.00  0.00    +0.050 A 
ATOM     21  C   UNL     1      13.866  -6.074  32.250  0.00  0.00    +0.166 A 
ATOM     23  C   UNL     1      12.010  -4.981  32.051  0.00  0.00    +0.466 C 
ENDBRANCH  13  15
ENDBRANCH   4  13
TORSDOF 5
ENDMDL
MODEL 2
REMARK VINA RESULT:      -1.5     17.316     19.658
REMARK  Name = 45783812
REMARK  7 active torsions:
REMARK  status: ('A' for Active; 'I' for Inactive)
REMARK    1  A    between atoms: N_4  and  C_13
REMARK    2  A    between atoms: N_8  and  C_27
REMARK    3  A    between atoms: N_8  and  C_28
REMARK    4  A    between atoms: N_8  and  C_29
REMARK    5  A    between atoms: C_9  and  C_14
REMARK    6  A    between atoms: C_13  and  C_15
REMARK    7  A    between atoms: C_18  and  C_22
REMARK                            x       y       z     vdW  Elec       q    Type
REMARK                         _______ _______ _______ _____ _____    ______ ____
ROOT
ATOM      4  N   UNL     1      -4.667   2.133  25.463  0.00  0.00    -0.287 NA
ATOM      9  C   UNL     1      -4.490   2.715  24.118  0.00  0.00    +0.146 C 
ATOM     10  C   UNL     1      -4.546   4.238  24.341  0.00  0.00    +0.030 C 
ATOM     11  C   UNL     1      -4.818   4.412  25.828  0.00  0.00    +0.017 C 
ATOM     12  C   UNL     1      -5.455   3.098  26.232  0.00  0.00    +0.085 C 
ENDROOT
BRANCH   9  14
ATOM      1  O   UNL     1      -3.181   2.294  22.097  0.00  0.00    -0.336 OA
ATOM      5  N   UNL     1      -2.089   1.852  24.002  0.00  0.00    -0.190 NA
ATOM      6  N   UNL     1      -1.909   1.845  21.722  0.00  0.00    -0.056 NA
ATOM     14  C   UNL     1      -3.203   2.269  23.455  0.00  0.00    +0.245 A 
ATOM     18  C   UNL     1      -1.325   1.604  22.899  0.00  0.00    +0.204 A 
BRANCH  18  22
ATOM      7  N   UNL     1       2.268   1.428  23.844  0.00  0.00    -0.240 NA
ATOM     22  C   UNL     1       0.020   1.117  23.008  0.00  0.00    +0.041 A 
ATOM     24  C   UNL     1       0.397  -0.083  22.419  0.00  0.00    +0.016 A 
ATOM     25  C   UNL     1       0.984   1.830  23.703  0.00  0.00    +0.124 A 
ATOM     26  C   UNL     1       1.709  -0.530  22.540  0.00  0.00    +0.044 A 
ATOM     27  C   UNL     1       2.597   0.255  23.256  0.00  0.00    +0.121 A 
BRANCH  27   8
ATOM      8  N   UNL     1       3.929  -0.213  23.373  0.00  0.00    -0.321 N 
ATOM     28  C   UNL     1       4.189  -1.579  23.768  0.00  0.00    +0.130 C 
ATOM     29  C   UNL     1       5.038   0.675  23.103  0.00  0.00    +0.130 C 
ENDBRANCH  27   8
ENDBRANCH  18  22
ENDBRANCH   9  14
BRANCH   4  13
ATOM     13  C   UNL     1      -5.286   0.814  25.441  0.00  0.00    +0.120 C 
BRANCH  13  15
ATOM      2  O   UNL     1      -0.871  -1.398  25.758  0.00  0.00    -0.453 OA
ATOM      3  O   UNL     1      -1.505  -3.147  24.226  0.00  0.00    -0.453 OA
ATOM     15  C   UNL     1      -4.296  -0.265  25.091  0.00  0.00    -0.030 A 
ATOM     16  C   UNL     1      -3.019  -0.245  25.659  0.00  0.00    +0.054 A 
ATOM     17  C   UNL     1      -4.665  -1.285  24.197  0.00  0.00    +0.009 A 
ATOM     19  C   UNL     1      -2.147  -1.255  25.309  0.00  0.00    +0.167 A 
ATOM     20  C   UNL     1      -3.763  -2.297  23.860  0.00  0.00    +0.050 A 
ATOM     21  C   UNL     1      -2.509  -2.254  24.434  0.00  0.00    +0.166 A 
ATOM     23  C   UNL     1      -0.470  -2.600  25.068  0.00  0.00    +0.466 C 
ENDBRANCH  13  15
ENDBRANCH   4  13
TORSDOF 5
ENDMDL
