MODEL 1
REMARK VINA RESULT:      -1.5      0.000      0.000
REMARK  Name = 45784266
REMARK  6 active torsions:
REMARK  status: ('A' for Active; 'I' for Inactive)
REMARK    1  A    between atoms: O_4  and  C_17
REMARK    2  A    between atoms: O_4  and  C_27
REMARK    3  A    between atoms: N_5  and  C_13
REMARK    4  A    between atoms: C_8  and  C_12
REMARK    5  A    between atoms: C_13  and  C_14
REMARK    6  A    between atoms: C_21  and  C_26
REMARK                            x       y       z     vdW  Elec       q    Type
REMARK                         _______ _______ _______ _____ _____    ______ ____
ROOT
ATOM      5  N   UNL     1      -3.901  -1.108  24.696  0.00  0.00    -0.297 NA
ATOM      8  C   UNL     1      -1.610  -1.592  24.566  0.00  0.00    +0.070 C 
ATOM      9  C   UNL     1      -2.005  -1.361  26.035  0.00  0.00    +0.028 C 
ATOM     10  C   UNL     1      -2.783  -1.023  23.755  0.00  0.00    +0.096 C 
ATOM     11  C   UNL     1      -3.354  -0.655  25.974  0.00  0.00    +0.085 C 
ENDROOT
BRANCH   8  12
ATOM      6  N   UNL     1       0.894  -1.659  24.424  0.00  0.00    -0.342 N 
ATOM      7  N   UNL     1      -0.075   0.143  23.558  0.00  0.00    -0.232 NA
ATOM     12  C   UNL     1      -0.277  -1.003  24.167  0.00  0.00    +0.113 A 
ATOM     15  C   UNL     1       1.921  -0.883  23.949  0.00  0.00    +0.067 A 
ATOM     16  C   UNL     1       1.291   0.236  23.413  0.00  0.00    +0.089 A 
ATOM     18  C   UNL     1       3.305  -1.060  23.942  0.00  0.00    +0.040 A 
ATOM     20  C   UNL     1       2.071   1.250  22.832  0.00  0.00    +0.030 A 
ATOM     21  C   UNL     1       4.067  -0.041  23.360  0.00  0.00    +0.057 A 
ATOM     22  C   UNL     1       3.463   1.094  22.814  0.00  0.00    +0.014 A 
ATOM     28  H   UNL     1       0.991  -2.555  24.882  0.00  0.00    +0.167 HD
BRANCH  21  26
ATOM      1  F   UNL     1       5.996  -1.305  23.936  0.00  0.00    -0.166 F 
ATOM      2  F   UNL     1       6.064  -0.216  22.055  0.00  0.00    -0.166 F 
ATOM      3  F   UNL     1       6.207   0.859  23.933  0.00  0.00    -0.166 F 
ATOM     26  C   UNL     1       5.554  -0.171  23.321  0.00  0.00    +0.417 C 
ENDBRANCH  21  26
ENDBRANCH   8  12
BRANCH   5  13
ATOM     13  C   UNL     1      -5.045  -0.315  24.271  0.00  0.00    +0.123 C 
BRANCH  13  14
ATOM     14  C   UNL     1      -4.883   1.139  24.629  0.00  0.00    +0.008 A 
ATOM     17  C   UNL     1      -3.982   1.946  23.938  0.00  0.00    +0.124 A 
ATOM     19  C   UNL     1      -5.646   1.674  25.667  0.00  0.00    +0.008 A 
ATOM     23  C   UNL     1      -3.843   3.291  24.283  0.00  0.00    +0.046 A 
ATOM     24  C   UNL     1      -5.508   3.018  26.013  0.00  0.00    +0.001 A 
ATOM     25  C   UNL     1      -4.606   3.827  25.321  0.00  0.00    +0.004 A 
BRANCH  17   4
ATOM      4  O   UNL     1      -3.228   1.440  22.922  0.00  0.00    -0.495 OA
ATOM     27  C   UNL     1      -2.565   2.378  22.076  0.00  0.00    +0.277 C 
ENDBRANCH  17   4
ENDBRANCH  13  14
ENDBRANCH   5  13
TORSDOF 5
ENDMDL
MODEL 2
REMARK VINA RESULT:      -0.8      1.280      2.080
REMARK  Name = 45784266
REMARK  6 active torsions:
REMARK  status: ('A' for Active; 'I' for Inactive)
REMARK    1  A    between atoms: O_4  and  C_17
REMARK    2  A    between atoms: O_4  and  C_27
REMARK    3  A    between atoms: N_5  and  C_13
REMARK    4  A    between atoms: C_8  and  C_12
REMARK    5  A    between atoms: C_13  and  C_14
REMARK    6  A    between atoms: C_21  and  C_26
REMARK                            x       y       z     vdW  Elec       q    Type
REMARK                         _______ _______ _______ _____ _____    ______ ____
ROOT
ATOM      5  N   UNL     1      -3.452  -0.464  24.486  0.00  0.00    -0.297 NA
ATOM      8  C   UNL     1      -1.318  -1.147  23.793  0.00  0.00    +0.070 C 
ATOM      9  C   UNL     1      -1.611  -1.715  25.192  0.00  0.00    +0.028 C 
ATOM     10  C   UNL     1      -2.370  -0.046  23.593  0.00  0.00    +0.096 C 
ATOM     11  C   UNL     1      -2.783  -0.893  25.714  0.00  0.00    +0.085 C 
ENDROOT
BRANCH   8  12
ATOM      6  N   UNL     1       1.172  -1.430  23.922  0.00  0.00    -0.342 N 
ATOM      7  N   UNL     1       0.460   0.508  23.099  0.00  0.00    -0.232 NA
ATOM     12  C   UNL     1       0.096  -0.655  23.590  0.00  0.00    +0.113 A 
ATOM     15  C   UNL     1       2.307  -0.718  23.626  0.00  0.00    +0.067 A 
ATOM     16  C   UNL     1       1.837   0.487  23.113  0.00  0.00    +0.089 A 
ATOM     18  C   UNL     1       3.663  -1.018  23.758  0.00  0.00    +0.040 A 
ATOM     20  C   UNL     1       2.760   1.464  22.703  0.00  0.00    +0.030 A 
ATOM     21  C   UNL     1       4.568  -0.034  23.344  0.00  0.00    +0.057 A 
ATOM     22  C   UNL     1       4.126   1.186  22.827  0.00  0.00    +0.014 A 
ATOM     28  H   UNL     1       1.141  -2.360  24.317  0.00  0.00    +0.167 HD
BRANCH  21  26
ATOM      1  F   UNL     1       6.728   0.797  23.890  0.00  0.00    -0.166 F 
ATOM      2  F   UNL     1       6.343  -1.296  24.335  0.00  0.00    -0.166 F 
ATOM      3  F   UNL     1       6.616  -0.660  22.280  0.00  0.00    -0.166 F 
ATOM     26  C   UNL     1       6.034  -0.295  23.459  0.00  0.00    +0.417 C 
ENDBRANCH  21  26
ENDBRANCH   8  12
BRANCH   5  13
ATOM     13  C   UNL     1      -4.417   0.600  24.724  0.00  0.00    +0.123 C 
BRANCH  13  14
ATOM     14  C   UNL     1      -3.743   1.896  25.088  0.00  0.00    +0.008 A 
ATOM     17  C   UNL     1      -4.493   3.008  25.467  0.00  0.00    +0.124 A 
ATOM     19  C   UNL     1      -2.351   1.977  25.039  0.00  0.00    +0.008 A 
ATOM     23  C   UNL     1      -3.852   4.201  25.801  0.00  0.00    +0.046 A 
ATOM     24  C   UNL     1      -1.710   3.170  25.372  0.00  0.00    +0.001 A 
ATOM     25  C   UNL     1      -2.461   4.283  25.753  0.00  0.00    +0.004 A 
BRANCH  17   4
ATOM      4  O   UNL     1      -5.853   2.946  25.519  0.00  0.00    -0.495 OA
ATOM     27  C   UNL     1      -6.427   2.089  26.505  0.00  0.00    +0.277 C 
ENDBRANCH  17   4
ENDBRANCH  13  14
ENDBRANCH   5  13
TORSDOF 5
ENDMDL
MODEL 3
REMARK VINA RESULT:      -0.1      1.814      3.445
REMARK  Name = 45784266
REMARK  6 active torsions:
REMARK  status: ('A' for Active; 'I' for Inactive)
REMARK    1  A    between atoms: O_4  and  C_17
REMARK    2  A    between atoms: O_4  and  C_27
REMARK    3  A    between atoms: N_5  and  C_13
REMARK    4  A    between atoms: C_8  and  C_12
REMARK    5  A    between atoms: C_13  and  C_14
REMARK    6  A    between atoms: C_21  and  C_26
REMARK                            x       y       z     vdW  Elec       q    Type
REMARK                         _______ _______ _______ _____ _____    ______ ____
ROOT
ATOM      5  N   UNL     1      -3.629   1.723  24.748  0.00  0.00    -0.297 NA
ATOM      8  C   UNL     1      -1.440   2.233  24.082  0.00  0.00    +0.070 C 
ATOM      9  C   UNL     1      -2.411   2.520  22.923  0.00  0.00    +0.028 C 
ATOM     10  C   UNL     1      -2.244   1.361  25.055  0.00  0.00    +0.096 C 
ATOM     11  C   UNL     1      -3.690   1.778  23.288  0.00  0.00    +0.085 C 
ENDROOT
BRANCH   8  12
ATOM      6  N   UNL     1       1.033   1.886  24.330  0.00  0.00    -0.342 N 
ATOM      7  N   UNL     1       0.058   0.751  22.687  0.00  0.00    -0.232 NA
ATOM     12  C   UNL     1      -0.130   1.603  23.670  0.00  0.00    +0.113 A 
ATOM     15  C   UNL     1       2.039   1.170  23.732  0.00  0.00    +0.067 A 
ATOM     16  C   UNL     1       1.405   0.469  22.710  0.00  0.00    +0.089 A 
ATOM     18  C   UNL     1       3.407   1.077  23.991  0.00  0.00    +0.040 A 
ATOM     20  C   UNL     1       2.165  -0.378  21.887  0.00  0.00    +0.030 A 
ATOM     21  C   UNL     1       4.148   0.229  23.162  0.00  0.00    +0.057 A 
ATOM     22  C   UNL     1       3.541  -0.487  22.127  0.00  0.00    +0.014 A 
ATOM     28  H   UNL     1       1.138   2.511  25.118  0.00  0.00    +0.167 HD
BRANCH  21  26
ATOM      1  F   UNL     1       5.911  -0.813  24.372  0.00  0.00    -0.166 F 
ATOM      2  F   UNL     1       6.300  -0.340  22.285  0.00  0.00    -0.166 F 
ATOM      3  F   UNL     1       6.227   1.249  23.759  0.00  0.00    -0.166 F 
ATOM     26  C   UNL     1       5.618   0.086  23.389  0.00  0.00    +0.417 C 
ENDBRANCH  21  26
ENDBRANCH   8  12
BRANCH   5  13
ATOM     13  C   UNL     1      -4.587   0.779  25.307  0.00  0.00    +0.123 C 
BRANCH  13  14
ATOM     14  C   UNL     1      -4.259  -0.641  24.928  0.00  0.00    +0.008 A 
ATOM     17  C   UNL     1      -3.307  -1.367  25.640  0.00  0.00    +0.124 A 
ATOM     19  C   UNL     1      -4.920  -1.227  23.848  0.00  0.00    +0.008 A 
ATOM     23  C   UNL     1      -3.015  -2.682  25.275  0.00  0.00    +0.046 A 
ATOM     24  C   UNL     1      -4.629  -2.541  23.482  0.00  0.00    +0.001 A 
ATOM     25  C   UNL     1      -3.676  -3.269  24.196  0.00  0.00    +0.004 A 
BRANCH  17   4
ATOM      4  O   UNL     1      -2.651  -0.810  26.696  0.00  0.00    -0.495 OA
ATOM     27  C   UNL     1      -1.227  -0.890  26.691  0.00  0.00    +0.277 C 
ENDBRANCH  17   4
ENDBRANCH  13  14
ENDBRANCH   5  13
TORSDOF 5
ENDMDL
MODEL 4
REMARK VINA RESULT:       0.3      1.356      2.134
REMARK  Name = 45784266
REMARK  6 active torsions:
REMARK  status: ('A' for Active; 'I' for Inactive)
REMARK    1  A    between atoms: O_4  and  C_17
REMARK    2  A    between atoms: O_4  and  C_27
REMARK    3  A    between atoms: N_5  and  C_13
REMARK    4  A    between atoms: C_8  and  C_12
REMARK    5  A    between atoms: C_13  and  C_14
REMARK    6  A    between atoms: C_21  and  C_26
REMARK                            x       y       z     vdW  Elec       q    Type
REMARK                         _______ _______ _______ _____ _____    ______ ____
ROOT
ATOM      5  N   UNL     1      -4.869   0.446  24.802  0.00  0.00    -0.297 NA
ATOM      8  C   UNL     1      -3.018  -0.926  24.368  0.00  0.00    +0.070 C 
ATOM      9  C   UNL     1      -3.465  -1.111  25.829  0.00  0.00    +0.028 C 
ATOM     10  C   UNL     1      -3.711   0.365  23.910  0.00  0.00    +0.096 C 
ATOM     11  C   UNL     1      -4.354   0.090  26.124  0.00  0.00    +0.085 C 
ENDROOT
BRANCH   8  12
ATOM      6  N   UNL     1      -0.913   0.146  23.522  0.00  0.00    -0.342 N 
ATOM      7  N   UNL     1      -0.659  -1.812  24.541  0.00  0.00    -0.232 NA
ATOM     12  C   UNL     1      -1.522  -0.898  24.160  0.00  0.00    +0.113 A 
ATOM     15  C   UNL     1       0.434  -0.112  23.488  0.00  0.00    +0.067 A 
ATOM     16  C   UNL     1       0.568  -1.340  24.131  0.00  0.00    +0.089 A 
ATOM     18  C   UNL     1       1.513   0.601  22.967  0.00  0.00    +0.040 A 
ATOM     20  C   UNL     1       1.846  -1.905  24.270  0.00  0.00    +0.030 A 
ATOM     21  C   UNL     1       2.780   0.024  23.115  0.00  0.00    +0.057 A 
ATOM     22  C   UNL     1       2.945  -1.207  23.754  0.00  0.00    +0.014 A 
ATOM     28  H   UNL     1      -1.369   0.964  23.141  0.00  0.00    +0.167 HD
BRANCH  21  26
ATOM      1  F   UNL     1       4.143   0.549  21.239  0.00  0.00    -0.166 F 
ATOM      2  F   UNL     1       3.926   2.093  22.755  0.00  0.00    -0.166 F 
ATOM      3  F   UNL     1       5.149   0.347  23.155  0.00  0.00    -0.166 F 
ATOM     26  C   UNL     1       3.976   0.740  22.579  0.00  0.00    +0.417 C 
ENDBRANCH  21  26
ENDBRANCH   8  12
BRANCH   5  13
ATOM     13  C   UNL     1      -5.491   1.763  24.786  0.00  0.00    +0.123 C 
BRANCH  13  14
ATOM     14  C   UNL     1      -4.489   2.858  25.039  0.00  0.00    +0.008 A 
ATOM     17  C   UNL     1      -3.769   3.423  23.988  0.00  0.00    +0.124 A 
ATOM     19  C   UNL     1      -4.283   3.304  26.345  0.00  0.00    +0.008 A 
ATOM     23  C   UNL     1      -2.844   4.436  24.241  0.00  0.00    +0.046 A 
ATOM     24  C   UNL     1      -3.358   4.317  26.599  0.00  0.00    +0.001 A 
ATOM     25  C   UNL     1      -2.638   4.883  25.546  0.00  0.00    +0.004 A 
BRANCH  17   4
ATOM      4  O   UNL     1      -3.956   2.998  22.707  0.00  0.00    -0.495 OA
ATOM     27  C   UNL     1      -2.794   2.603  21.979  0.00  0.00    +0.277 C 
ENDBRANCH  17   4
ENDBRANCH  13  14
ENDBRANCH   5  13
TORSDOF 5
ENDMDL
