MODEL 1
REMARK VINA RESULT:       0.2      0.000      0.000
REMARK  Name = 11865813
REMARK  8 active torsions:
REMARK  status: ('A' for Active; 'I' for Inactive)
REMARK    1  A    between atoms: O_3  and  C_28
REMARK    2  A    between atoms: O_3  and  C_34
REMARK    3  A    between atoms: N_8  and  C_12
REMARK    4  A    between atoms: N_9  and  C_20
REMARK    5  A    between atoms: N_10  and  C_33
REMARK    6  A    between atoms: C_11  and  C_15
REMARK    7  A    between atoms: C_16  and  C_28
REMARK    8  A    between atoms: C_21  and  C_29
REMARK                            x       y       z     vdW  Elec       q    Type
REMARK                         _______ _______ _______ _____ _____    ______ ____
ROOT
ATOM      2  O   UNL     1      -2.321  -0.395  26.913  0.00  0.00    -0.268 OA
ATOM      6  N   UNL     1      -1.879   0.670  24.914  0.00  0.00    -0.283 N 
ATOM     11  C   UNL     1      -1.330   1.880  25.519  0.00  0.00    +0.183 C 
ATOM     12  C   UNL     1      -0.652   2.624  24.368  0.00  0.00    +0.105 C 
ATOM     13  C   UNL     1      -1.450   2.179  23.140  0.00  0.00    +0.043 C 
ATOM     14  C   UNL     1      -1.816   0.734  23.453  0.00  0.00    +0.111 C 
ATOM     21  C   UNL     1      -2.297  -0.421  25.682  0.00  0.00    +0.264 C 
ENDROOT
BRANCH  11  15
ATOM      1  O   UNL     1      -2.318   3.564  26.883  0.00  0.00    -0.273 OA
ATOM      7  N   UNL     1      -3.742   2.299  25.567  0.00  0.00    -0.286 N 
ATOM     15  C   UNL     1      -2.500   2.663  26.062  0.00  0.00    +0.239 C 
ATOM     16  C   UNL     1      -4.985   2.841  26.100  0.00  0.00    +0.185 C 
ATOM     17  C   UNL     1      -4.002   1.240  24.596  0.00  0.00    +0.109 C 
ATOM     18  C   UNL     1      -6.064   1.872  25.627  0.00  0.00    +0.035 C 
ATOM     19  C   UNL     1      -5.496   1.320  24.322  0.00  0.00    +0.021 C 
BRANCH  16  28
ATOM      5  O   UNL     1      -6.167   4.889  25.649  0.00  0.00    -0.249 OA
ATOM     28  C   UNL     1      -5.163   4.205  25.505  0.00  0.00    +0.328 C 
BRANCH  28   3
ATOM      3  O   UNL     1      -4.048   4.542  24.796  0.00  0.00    -0.467 OA
ATOM     34  C   UNL     1      -4.203   4.547  23.373  0.00  0.00    +0.280 C 
ENDBRANCH  28   3
ENDBRANCH  16  28
ENDBRANCH  11  15
BRANCH  12   8
ATOM      4  O   UNL     1       0.480   0.820  22.437  0.00  0.00    -0.253 OA
ATOM      8  N   UNL     1       0.736   2.248  24.248  0.00  0.00    -0.294 N 
ATOM      9  N   UNL     1       2.572   1.171  23.380  0.00  0.00    -0.297 N 
ATOM     27  C   UNL     1       1.197   1.363  23.277  0.00  0.00    +0.300 C 
ATOM     35  H   UNL     1       1.395   2.589  24.941  0.00  0.00    +0.151 HD
ATOM     36  H   UNL     1       3.056   1.612  24.156  0.00  0.00    +0.151 HD
BRANCH   9  20
ATOM     20  C   UNL     1       3.319   0.301  22.498  0.00  0.00    +0.074 C 
ATOM     22  C   UNL     1       3.192  -1.163  22.932  0.00  0.00    +0.022 C 
ATOM     23  C   UNL     1       4.787   0.731  22.414  0.00  0.00    +0.022 C 
ATOM     24  C   UNL     1       3.967  -1.463  24.215  0.00  0.00    +0.002 C 
ATOM     25  C   UNL     1       5.559   0.428  23.698  0.00  0.00    +0.002 C 
ATOM     26  C   UNL     1       5.427  -1.037  24.104  0.00  0.00    +0.000 C 
ENDBRANCH   9  20
ENDBRANCH  12   8
BRANCH  21  29
ATOM     10  N   UNL     1      -1.913  -2.607  24.521  0.00  0.00    -0.346 N 
ATOM     29  C   UNL     1      -2.739  -1.600  24.948  0.00  0.00    +0.104 A 
ATOM     30  C   UNL     1      -4.022  -1.915  24.557  0.00  0.00    +0.032 A 
ATOM     31  C   UNL     1      -2.648  -3.559  23.865  0.00  0.00    +0.086 A 
ATOM     32  C   UNL     1      -3.964  -3.153  23.872  0.00  0.00    +0.020 A 
ATOM     33  C   UNL     1      -0.482  -2.672  24.725  0.00  0.00    +0.149 C 
ENDBRANCH  21  29
TORSDOF 6
ENDMDL
MODEL 2
REMARK VINA RESULT:       2.5      1.231      1.948
REMARK  Name = 11865813
REMARK  8 active torsions:
REMARK  status: ('A' for Active; 'I' for Inactive)
REMARK    1  A    between atoms: O_3  and  C_28
REMARK    2  A    between atoms: O_3  and  C_34
REMARK    3  A    between atoms: N_8  and  C_12
REMARK    4  A    between atoms: N_9  and  C_20
REMARK    5  A    between atoms: N_10  and  C_33
REMARK    6  A    between atoms: C_11  and  C_15
REMARK    7  A    between atoms: C_16  and  C_28
REMARK    8  A    between atoms: C_21  and  C_29
REMARK                            x       y       z     vdW  Elec       q    Type
REMARK                         _______ _______ _______ _____ _____    ______ ____
ROOT
ATOM      2  O   UNL     1      -3.218   0.257  26.007  0.00  0.00    -0.268 OA
ATOM      6  N   UNL     1      -2.151   0.501  23.976  0.00  0.00    -0.283 N 
ATOM     11  C   UNL     1      -1.587   1.815  24.272  0.00  0.00    +0.183 C 
ATOM     12  C   UNL     1      -0.547   2.053  23.176  0.00  0.00    +0.105 C 
ATOM     13  C   UNL     1      -1.085   1.241  21.995  0.00  0.00    +0.043 C 
ATOM     14  C   UNL     1      -1.731   0.030  22.655  0.00  0.00    +0.111 C 
ATOM     21  C   UNL     1      -2.903  -0.214  24.913  0.00  0.00    +0.264 C 
ENDROOT
BRANCH  11  15
ATOM      1  O   UNL     1      -3.329   2.954  23.115  0.00  0.00    -0.273 OA
ATOM      7  N   UNL     1      -3.006   3.498  25.341  0.00  0.00    -0.286 N 
ATOM     15  C   UNL     1      -2.719   2.806  24.175  0.00  0.00    +0.239 C 
ATOM     16  C   UNL     1      -3.958   4.601  25.382  0.00  0.00    +0.185 C 
ATOM     17  C   UNL     1      -2.310   3.356  26.617  0.00  0.00    +0.109 C 
ATOM     18  C   UNL     1      -3.632   5.347  26.672  0.00  0.00    +0.035 C 
ATOM     19  C   UNL     1      -3.071   4.255  27.580  0.00  0.00    +0.021 C 
BRANCH  16  28
ATOM      5  O   UNL     1      -6.324   4.585  25.824  0.00  0.00    -0.249 OA
ATOM     28  C   UNL     1      -5.330   3.999  25.419  0.00  0.00    +0.328 C 
BRANCH  28   3
ATOM      3  O   UNL     1      -5.281   2.723  24.940  0.00  0.00    -0.467 OA
ATOM     34  C   UNL     1      -6.213   1.810  25.527  0.00  0.00    +0.280 C 
ENDBRANCH  28   3
ENDBRANCH  16  28
ENDBRANCH  11  15
BRANCH  12   8
ATOM      4  O   UNL     1       1.103   0.158  21.779  0.00  0.00    -0.253 OA
ATOM      8  N   UNL     1       0.756   1.580  23.580  0.00  0.00    -0.294 N 
ATOM      9  N   UNL     1       2.706   0.370  23.446  0.00  0.00    -0.297 N 
ATOM     27  C   UNL     1       1.486   0.657  22.837  0.00  0.00    +0.300 C 
ATOM     35  H   UNL     1       1.127   1.881  24.475  0.00  0.00    +0.151 HD
ATOM     36  H   UNL     1       2.891   0.783  24.354  0.00  0.00    +0.151 HD
BRANCH   9  20
ATOM     20  C   UNL     1       3.668  -0.557  22.893  0.00  0.00    +0.074 C 
ATOM     22  C   UNL     1       4.247  -1.465  23.984  0.00  0.00    +0.022 C 
ATOM     23  C   UNL     1       4.778   0.184  22.141  0.00  0.00    +0.022 C 
ATOM     24  C   UNL     1       5.197  -0.721  24.922  0.00  0.00    +0.002 C 
ATOM     25  C   UNL     1       5.728   0.926  23.082  0.00  0.00    +0.002 C 
ATOM     26  C   UNL     1       6.299  -0.001  24.152  0.00  0.00    +0.000 C 
ENDBRANCH   9  20
ENDBRANCH  12   8
BRANCH  21  29
ATOM     10  N   UNL     1      -2.553  -2.675  24.616  0.00  0.00    -0.346 N 
ATOM     29  C   UNL     1      -3.330  -1.550  24.520  0.00  0.00    +0.104 A 
ATOM     30  C   UNL     1      -4.548  -1.923  23.996  0.00  0.00    +0.032 A 
ATOM     31  C   UNL     1      -3.256  -3.760  24.163  0.00  0.00    +0.086 A 
ATOM     32  C   UNL     1      -4.501  -3.321  23.769  0.00  0.00    +0.020 A 
ATOM     33  C   UNL     1      -1.197  -2.728  25.119  0.00  0.00    +0.149 C 
ENDBRANCH  21  29
TORSDOF 6
ENDMDL
MODEL 3
REMARK VINA RESULT:       3.8      1.623      2.179
REMARK  Name = 11865813
REMARK  8 active torsions:
REMARK  status: ('A' for Active; 'I' for Inactive)
REMARK    1  A    between atoms: O_3  and  C_28
REMARK    2  A    between atoms: O_3  and  C_34
REMARK    3  A    between atoms: N_8  and  C_12
REMARK    4  A    between atoms: N_9  and  C_20
REMARK    5  A    between atoms: N_10  and  C_33
REMARK    6  A    between atoms: C_11  and  C_15
REMARK    7  A    between atoms: C_16  and  C_28
REMARK    8  A    between atoms: C_21  and  C_29
REMARK                            x       y       z     vdW  Elec       q    Type
REMARK                         _______ _______ _______ _____ _____    ______ ____
ROOT
ATOM      2  O   UNL     1      -1.924  -0.980  26.571  0.00  0.00    -0.268 OA
ATOM      6  N   UNL     1      -1.525  -0.015  24.513  0.00  0.00    -0.283 N 
ATOM     11  C   UNL     1      -0.443   0.851  24.973  0.00  0.00    +0.183 C 
ATOM     12  C   UNL     1       0.219   1.369  23.695  0.00  0.00    +0.105 C 
ATOM     13  C   UNL     1      -0.921   1.349  22.674  0.00  0.00    +0.043 C 
ATOM     14  C   UNL     1      -1.741   0.129  23.073  0.00  0.00    +0.111 C 
ATOM     21  C   UNL     1      -2.164  -0.922  25.364  0.00  0.00    +0.264 C 
ENDROOT
BRANCH  11  15
ATOM      1  O   UNL     1      -0.613   2.335  26.828  0.00  0.00    -0.273 OA
ATOM      7  N   UNL     1      -2.200   2.545  25.157  0.00  0.00    -0.286 N 
ATOM     15  C   UNL     1      -1.085   1.974  25.749  0.00  0.00    +0.239 C 
ATOM     16  C   UNL     1      -3.032   3.528  25.841  0.00  0.00    +0.185 C 
ATOM     17  C   UNL     1      -2.794   2.149  23.883  0.00  0.00    +0.109 C 
ATOM     18  C   UNL     1      -4.344   3.533  25.064  0.00  0.00    +0.035 C 
ATOM     19  C   UNL     1      -3.920   3.145  23.650  0.00  0.00    +0.021 C 
BRANCH  16  28
ATOM      5  O   UNL     1      -2.855   5.925  25.971  0.00  0.00    -0.249 OA
ATOM     28  C   UNL     1      -2.325   4.846  25.747  0.00  0.00    +0.328 C 
BRANCH  28   3
ATOM      3  O   UNL     1      -1.027   4.642  25.380  0.00  0.00    -0.467 OA
ATOM     34  C   UNL     1      -0.601   5.351  24.212  0.00  0.00    +0.280 C 
ENDBRANCH  28   3
ENDBRANCH  16  28
ENDBRANCH  11  15
BRANCH  12   8
ATOM      4  O   UNL     1       2.968   2.121  23.319  0.00  0.00    -0.253 OA
ATOM      8  N   UNL     1       1.301   0.507  23.281  0.00  0.00    -0.294 N 
ATOM      9  N   UNL     1       3.454  -0.069  22.719  0.00  0.00    -0.297 N 
ATOM     27  C   UNL     1       2.608   0.960  23.124  0.00  0.00    +0.300 C 
ATOM     35  H   UNL     1       1.090  -0.453  23.029  0.00  0.00    +0.151 HD
ATOM     36  H   UNL     1       3.039  -0.973  22.518  0.00  0.00    +0.151 HD
BRANCH   9  20
ATOM     20  C   UNL     1       4.868   0.116  22.479  0.00  0.00    +0.074 C 
ATOM     22  C   UNL     1       5.607  -1.227  22.477  0.00  0.00    +0.022 C 
ATOM     23  C   UNL     1       5.478   1.083  23.498  0.00  0.00    +0.022 C 
ATOM     24  C   UNL     1       5.715  -1.838  23.874  0.00  0.00    +0.002 C 
ATOM     25  C   UNL     1       5.587   0.469  24.894  0.00  0.00    +0.002 C 
ATOM     26  C   UNL     1       6.335  -0.861  24.868  0.00  0.00    +0.000 C 
ENDBRANCH   9  20
ENDBRANCH  12   8
BRANCH  21  29
ATOM     10  N   UNL     1      -4.435  -1.401  24.425  0.00  0.00    -0.346 N 
ATOM     29  C   UNL     1      -3.163  -1.790  24.755  0.00  0.00    +0.104 A 
ATOM     30  C   UNL     1      -3.026  -3.117  24.411  0.00  0.00    +0.032 A 
ATOM     31  C   UNL     1      -5.111  -2.458  23.874  0.00  0.00    +0.086 A 
ATOM     32  C   UNL     1      -4.259  -3.539  23.854  0.00  0.00    +0.020 A 
ATOM     33  C   UNL     1      -4.994  -0.080  24.618  0.00  0.00    +0.149 C 
ENDBRANCH  21  29
TORSDOF 6
ENDMDL
