MODEL 1
REMARK VINA RESULT:       4.4      0.000      0.000
REMARK  Name = 11941199
REMARK  15 active torsions:
REMARK  status: ('A' for Active; 'I' for Inactive)
REMARK    1  A    between atoms: O_3  and  C_30
REMARK    2  A    between atoms: O_3  and  C_34
REMARK    3  A    between atoms: O_4  and  C_32
REMARK    4  A    between atoms: O_4  and  C_35
REMARK    5  A    between atoms: O_5  and  C_33
REMARK    6  A    between atoms: O_5  and  C_36
REMARK    7  A    between atoms: N_8  and  C_20
REMARK    8  A    between atoms: N_9  and  C_21
REMARK    9  A    between atoms: C_10  and  C_16
REMARK   10  A    between atoms: C_11  and  C_15
REMARK   11  A    between atoms: C_15  and  C_17
REMARK   12  A    between atoms: C_16  and  C_19
REMARK   13  A    between atoms: C_20  and  C_22
REMARK   14  A    between atoms: C_27  and  C_33
REMARK   15  A    between atoms: C_36  and  C_37
REMARK                            x       y       z     vdW  Elec       q    Type
REMARK                         _______ _______ _______ _____ _____    ______ ____
ROOT
ATOM      1  O   UNL     1      -0.578  -1.187  25.932  0.00  0.00    -0.252 OA
ATOM      7  N   UNL     1      -2.559  -1.077  24.745  0.00  0.00    -0.285 N 
ATOM      9  N   UNL     1      -0.490  -0.846  23.639  0.00  0.00    -0.269 N 
ATOM     10  C   UNL     1      -5.190   0.125  24.854  0.00  0.00    +0.004 C 
ATOM     11  C   UNL     1      -4.306   0.243  23.584  0.00  0.00    +0.010 C 
ATOM     12  C   UNL     1      -4.343  -0.094  26.122  0.00  0.00    +0.023 C 
ATOM     13  C   UNL     1      -3.348  -0.957  23.510  0.00  0.00    +0.113 C 
ATOM     14  C   UNL     1      -3.369  -1.259  25.951  0.00  0.00    +0.109 C 
ATOM     18  C   UNL     1      -1.152  -1.056  24.847  0.00  0.00    +0.306 C 
ATOM     39  H   UNL     1      -0.932  -1.161  22.784  0.00  0.00    +0.156 HD
ENDROOT
BRANCH   9  21
ATOM     21  C   UNL     1       0.763  -0.210  23.444  0.00  0.00    +0.036 A 
ATOM     23  C   UNL     1       1.939  -0.958  23.493  0.00  0.00    +0.038 A 
ATOM     24  C   UNL     1       0.818   1.162  23.204  0.00  0.00    +0.023 A 
ATOM     27  C   UNL     1       3.171  -0.332  23.302  0.00  0.00    +0.061 A 
ATOM     28  C   UNL     1       2.049   1.789  23.012  0.00  0.00    +0.003 A 
ATOM     29  C   UNL     1       3.226   1.041  23.061  0.00  0.00    +0.015 A 
BRANCH  27  33
ATOM      6  O   UNL     1       4.509  -2.206  23.918  0.00  0.00    -0.245 OA
ATOM     33  C   UNL     1       4.398  -1.110  23.352  0.00  0.00    +0.339 C 
BRANCH  33   5
ATOM      5  O   UNL     1       5.420  -0.482  22.695  0.00  0.00    -0.461 OA
BRANCH   5  36
ATOM     36  C   UNL     1       6.562  -0.112  23.476  0.00  0.00    +0.229 C 
ATOM     37  C   UNL     1       6.124   0.844  24.566  0.00  0.00    +0.048 C 
ENDBRANCH   5  36
ENDBRANCH  33   5
ENDBRANCH  27  33
ENDBRANCH   9  21
BRANCH  11  15
ATOM     15  C   UNL     1      -3.527   1.560  23.487  0.00  0.00    +0.002 C 
ATOM     17  C   UNL     1      -2.647   1.584  22.254  0.00  0.00    +0.004 C 
ENDBRANCH  11  15
BRANCH  10  16
ATOM     16  C   UNL     1      -6.140   1.308  25.038  0.00  0.00    +0.099 C 
BRANCH  16  19
ATOM      2  O   UNL     1      -5.128   3.338  24.196  0.00  0.00    -0.276 OA
ATOM      8  N   UNL     1      -5.078   2.899  26.477  0.00  0.00    -0.311 N 
ATOM     19  C   UNL     1      -5.400   2.624  25.157  0.00  0.00    +0.214 C 
ATOM     38  H   UNL     1      -5.363   2.249  27.203  0.00  0.00    +0.149 HD
BRANCH   8  20
ATOM     20  C   UNL     1      -4.367   4.090  26.885  0.00  0.00    +0.139 C 
BRANCH  20  22
ATOM     22  C   UNL     1      -3.070   4.250  26.145  0.00  0.00    -0.027 A 
ATOM     25  C   UNL     1      -2.059   3.301  26.297  0.00  0.00    +0.054 A 
ATOM     26  C   UNL     1      -2.876   5.349  25.309  0.00  0.00    +0.009 A 
ATOM     30  C   UNL     1      -0.854   3.451  25.611  0.00  0.00    +0.162 A 
ATOM     31  C   UNL     1      -1.671   5.498  24.623  0.00  0.00    +0.050 A 
ATOM     32  C   UNL     1      -0.659   4.550  24.774  0.00  0.00    +0.162 A 
BRANCH  30   3
ATOM      3  O   UNL     1       0.127   2.518  25.767  0.00  0.00    -0.491 OA
ATOM     34  C   UNL     1       0.605   2.297  27.093  0.00  0.00    +0.277 C 
ENDBRANCH  30   3
BRANCH  32   4
ATOM      4  O   UNL     1       0.512   4.707  24.099  0.00  0.00    -0.491 OA
ATOM     35  C   UNL     1       0.427   5.127  22.738  0.00  0.00    +0.277 C 
ENDBRANCH  32   4
ENDBRANCH  20  22
ENDBRANCH   8  20
ENDBRANCH  16  19
ENDBRANCH  10  16
TORSDOF 11
ENDMDL
MODEL 2
REMARK VINA RESULT:       5.1     17.267     19.867
REMARK  Name = 11941199
REMARK  15 active torsions:
REMARK  status: ('A' for Active; 'I' for Inactive)
REMARK    1  A    between atoms: O_3  and  C_30
REMARK    2  A    between atoms: O_3  and  C_34
REMARK    3  A    between atoms: O_4  and  C_32
REMARK    4  A    between atoms: O_4  and  C_35
REMARK    5  A    between atoms: O_5  and  C_33
REMARK    6  A    between atoms: O_5  and  C_36
REMARK    7  A    between atoms: N_8  and  C_20
REMARK    8  A    between atoms: N_9  and  C_21
REMARK    9  A    between atoms: C_10  and  C_16
REMARK   10  A    between atoms: C_11  and  C_15
REMARK   11  A    between atoms: C_15  and  C_17
REMARK   12  A    between atoms: C_16  and  C_19
REMARK   13  A    between atoms: C_20  and  C_22
REMARK   14  A    between atoms: C_27  and  C_33
REMARK   15  A    between atoms: C_36  and  C_37
REMARK                            x       y       z     vdW  Elec       q    Type
REMARK                         _______ _______ _______ _____ _____    ______ ____
ROOT
ATOM      1  O   UNL     1      12.341  -9.316  27.785  0.00  0.00    -0.252 OA
ATOM      7  N   UNL     1      14.208  -9.929  26.568  0.00  0.00    -0.285 N 
ATOM      9  N   UNL     1      13.864 -10.781  28.740  0.00  0.00    -0.269 N 
ATOM     10  C   UNL     1      16.290  -8.796  24.908  0.00  0.00    +0.004 C 
ATOM     11  C   UNL     1      16.634  -9.734  26.096  0.00  0.00    +0.010 C 
ATOM     12  C   UNL     1      14.937  -8.089  25.109  0.00  0.00    +0.023 C 
ATOM     13  C   UNL     1      15.453 -10.684  26.359  0.00  0.00    +0.113 C 
ATOM     14  C   UNL     1      13.826  -9.088  25.433  0.00  0.00    +0.109 C 
ATOM     18  C   UNL     1      13.383  -9.971  27.713  0.00  0.00    +0.306 C 
ATOM     39  H   UNL     1      14.438 -11.581  28.497  0.00  0.00    +0.156 HD
ENDROOT
BRANCH   9  21
ATOM     21  C   UNL     1      13.660 -10.616  30.133  0.00  0.00    +0.036 A 
ATOM     23  C   UNL     1      12.381 -10.349  30.623  0.00  0.00    +0.038 A 
ATOM     24  C   UNL     1      14.737 -10.719  31.013  0.00  0.00    +0.023 A 
ATOM     27  C   UNL     1      12.181 -10.185  31.994  0.00  0.00    +0.061 A 
ATOM     28  C   UNL     1      14.537 -10.556  32.383  0.00  0.00    +0.003 A 
ATOM     29  C   UNL     1      13.258 -10.289  32.873  0.00  0.00    +0.015 A 
BRANCH  27  33
ATOM      6  O   UNL     1       9.966 -10.763  32.660  0.00  0.00    -0.245 OA
ATOM     33  C   UNL     1      10.848  -9.908  32.506  0.00  0.00    +0.339 C 
BRANCH  33   5
ATOM      5  O   UNL     1      10.687  -8.581  32.799  0.00  0.00    -0.461 OA
BRANCH   5  36
ATOM     36  C   UNL     1      10.867  -7.655  31.722  0.00  0.00    +0.229 C 
ATOM     37  C   UNL     1      12.243  -7.033  31.831  0.00  0.00    +0.048 C 
ENDBRANCH   5  36
ENDBRANCH  33   5
ENDBRANCH  27  33
ENDBRANCH   9  21
BRANCH  11  15
ATOM     15  C   UNL     1      17.026  -8.995  27.381  0.00  0.00    +0.002 C 
ATOM     17  C   UNL     1      17.233  -9.963  28.526  0.00  0.00    +0.004 C 
ENDBRANCH  11  15
BRANCH  10  16
ATOM     16  C   UNL     1      17.391  -7.778  24.609  0.00  0.00    +0.099 C 
BRANCH  16  19
ATOM      2  O   UNL     1      16.261  -5.708  24.071  0.00  0.00    -0.276 OA
ATOM      8  N   UNL     1      17.395  -5.897  26.090  0.00  0.00    -0.311 N 
ATOM     19  C   UNL     1      16.940  -6.355  24.863  0.00  0.00    +0.214 C 
ATOM     38  H   UNL     1      17.938  -6.520  26.681  0.00  0.00    +0.149 HD
BRANCH   8  20
ATOM     20  C   UNL     1      17.116  -4.571  26.591  0.00  0.00    +0.139 C 
BRANCH  20  22
ATOM     22  C   UNL     1      16.967  -4.554  28.085  0.00  0.00    -0.027 A 
ATOM     25  C   UNL     1      16.398  -5.646  28.742  0.00  0.00    +0.054 A 
ATOM     26  C   UNL     1      17.396  -3.446  28.816  0.00  0.00    +0.009 A 
ATOM     30  C   UNL     1      16.260  -5.630  30.130  0.00  0.00    +0.162 A 
ATOM     31  C   UNL     1      17.257  -3.431  30.203  0.00  0.00    +0.050 A 
ATOM     32  C   UNL     1      16.689  -4.522  30.860  0.00  0.00    +0.162 A 
BRANCH  30   3
ATOM      3  O   UNL     1      15.702  -6.701  30.760  0.00  0.00    -0.491 OA
ATOM     34  C   UNL     1      16.205  -7.024  32.056  0.00  0.00    +0.277 C 
ENDBRANCH  30   3
BRANCH  32   4
ATOM      4  O   UNL     1      16.559  -4.494  32.216  0.00  0.00    -0.491 OA
ATOM     35  C   UNL     1      16.385  -3.217  32.826  0.00  0.00    +0.277 C 
ENDBRANCH  32   4
ENDBRANCH  20  22
ENDBRANCH   8  20
ENDBRANCH  16  19
ENDBRANCH  10  16
TORSDOF 11
ENDMDL
MODEL 3
REMARK VINA RESULT:       5.3      1.919      4.454
REMARK  Name = 11941199
REMARK  15 active torsions:
REMARK  status: ('A' for Active; 'I' for Inactive)
REMARK    1  A    between atoms: O_3  and  C_30
REMARK    2  A    between atoms: O_3  and  C_34
REMARK    3  A    between atoms: O_4  and  C_32
REMARK    4  A    between atoms: O_4  and  C_35
REMARK    5  A    between atoms: O_5  and  C_33
REMARK    6  A    between atoms: O_5  and  C_36
REMARK    7  A    between atoms: N_8  and  C_20
REMARK    8  A    between atoms: N_9  and  C_21
REMARK    9  A    between atoms: C_10  and  C_16
REMARK   10  A    between atoms: C_11  and  C_15
REMARK   11  A    between atoms: C_15  and  C_17
REMARK   12  A    between atoms: C_16  and  C_19
REMARK   13  A    between atoms: C_20  and  C_22
REMARK   14  A    between atoms: C_27  and  C_33
REMARK   15  A    between atoms: C_36  and  C_37
REMARK                            x       y       z     vdW  Elec       q    Type
REMARK                         _______ _______ _______ _____ _____    ______ ____
ROOT
ATOM      1  O   UNL     1      -1.894   1.935  21.786  0.00  0.00    -0.252 OA
ATOM      7  N   UNL     1      -2.365   3.527  23.394  0.00  0.00    -0.285 N 
ATOM      9  N   UNL     1      -0.224   2.546  23.275  0.00  0.00    -0.269 N 
ATOM     10  C   UNL     1      -4.395   4.250  25.326  0.00  0.00    +0.004 C 
ATOM     11  C   UNL     1      -2.904   4.131  25.737  0.00  0.00    +0.010 C 
ATOM     12  C   UNL     1      -4.719   3.390  24.090  0.00  0.00    +0.023 C 
ATOM     13  C   UNL     1      -2.010   4.408  24.517  0.00  0.00    +0.113 C 
ATOM     14  C   UNL     1      -3.750   3.671  22.942  0.00  0.00    +0.109 C 
ATOM     18  C   UNL     1      -1.508   2.618  22.738  0.00  0.00    +0.306 C 
ATOM     39  H   UNL     1       0.158   3.368  23.727  0.00  0.00    +0.156 HD
ENDROOT
BRANCH   9  21
ATOM     21  C   UNL     1       0.642   1.423  23.284  0.00  0.00    +0.036 A 
ATOM     23  C   UNL     1       2.005   1.592  23.038  0.00  0.00    +0.038 A 
ATOM     24  C   UNL     1       0.131   0.151  23.539  0.00  0.00    +0.023 A 
ATOM     27  C   UNL     1       2.856   0.487  23.047  0.00  0.00    +0.061 A 
ATOM     28  C   UNL     1       0.982  -0.954  23.548  0.00  0.00    +0.003 A 
ATOM     29  C   UNL     1       2.345  -0.786  23.302  0.00  0.00    +0.015 A 
BRANCH  27  33
ATOM      6  O   UNL     1       4.801   0.587  21.672  0.00  0.00    -0.245 OA
ATOM     33  C   UNL     1       4.277   0.661  22.792  0.00  0.00    +0.339 C 
BRANCH  33   5
ATOM      5  O   UNL     1       4.968   0.918  23.944  0.00  0.00    -0.461 OA
BRANCH   5  36
ATOM     36  C   UNL     1       6.015   0.005  24.288  0.00  0.00    +0.229 C 
ATOM     37  C   UNL     1       5.480  -1.409  24.217  0.00  0.00    +0.048 C 
ENDBRANCH   5  36
ENDBRANCH  33   5
ENDBRANCH  27  33
ENDBRANCH   9  21
BRANCH  11  15
ATOM     15  C   UNL     1      -2.538   2.786  26.377  0.00  0.00    +0.002 C 
ATOM     17  C   UNL     1      -1.037   2.620  26.478  0.00  0.00    +0.004 C 
ENDBRANCH  11  15
BRANCH  10  16
ATOM     16  C   UNL     1      -5.360   3.937  26.469  0.00  0.00    +0.099 C 
BRANCH  16  19
ATOM      2  O   UNL     1      -6.629   2.027  27.241  0.00  0.00    -0.276 OA
ATOM      8  N   UNL     1      -5.564   1.931  25.178  0.00  0.00    -0.311 N 
ATOM     19  C   UNL     1      -5.933   2.539  26.369  0.00  0.00    +0.214 C 
ATOM     38  H   UNL     1      -4.997   2.448  24.512  0.00  0.00    +0.149 HD
BRANCH   8  20
ATOM     20  C   UNL     1      -5.967   0.591  24.817  0.00  0.00    +0.139 C 
BRANCH  20  22
ATOM     22  C   UNL     1      -4.797  -0.345  24.735  0.00  0.00    -0.027 A 
ATOM     25  C   UNL     1      -3.599  -0.022  25.373  0.00  0.00    +0.054 A 
ATOM     26  C   UNL     1      -4.907  -1.538  24.020  0.00  0.00    +0.009 A 
ATOM     30  C   UNL     1      -2.511  -0.892  25.296  0.00  0.00    +0.162 A 
ATOM     31  C   UNL     1      -3.819  -2.407  23.943  0.00  0.00    +0.050 A 
ATOM     32  C   UNL     1      -2.621  -2.084  24.581  0.00  0.00    +0.162 A 
BRANCH  30   3
ATOM      3  O   UNL     1      -1.346  -0.565  25.923  0.00  0.00    -0.491 OA
ATOM     34  C   UNL     1      -1.204  -0.976  27.281  0.00  0.00    +0.277 C 
ENDBRANCH  30   3
BRANCH  32   4
ATOM      4  O   UNL     1      -1.566  -2.942  24.499  0.00  0.00    -0.491 OA
ATOM     35  C   UNL     1      -1.428  -3.686  23.290  0.00  0.00    +0.277 C 
ENDBRANCH  32   4
ENDBRANCH  20  22
ENDBRANCH   8  20
ENDBRANCH  16  19
ENDBRANCH  10  16
TORSDOF 11
ENDMDL
MODEL 4
REMARK VINA RESULT:       5.7      1.983      4.716
REMARK  Name = 11941199
REMARK  15 active torsions:
REMARK  status: ('A' for Active; 'I' for Inactive)
REMARK    1  A    between atoms: O_3  and  C_30
REMARK    2  A    between atoms: O_3  and  C_34
REMARK    3  A    between atoms: O_4  and  C_32
REMARK    4  A    between atoms: O_4  and  C_35
REMARK    5  A    between atoms: O_5  and  C_33
REMARK    6  A    between atoms: O_5  and  C_36
REMARK    7  A    between atoms: N_8  and  C_20
REMARK    8  A    between atoms: N_9  and  C_21
REMARK    9  A    between atoms: C_10  and  C_16
REMARK   10  A    between atoms: C_11  and  C_15
REMARK   11  A    between atoms: C_15  and  C_17
REMARK   12  A    between atoms: C_16  and  C_19
REMARK   13  A    between atoms: C_20  and  C_22
REMARK   14  A    between atoms: C_27  and  C_33
REMARK   15  A    between atoms: C_36  and  C_37
REMARK                            x       y       z     vdW  Elec       q    Type
REMARK                         _______ _______ _______ _____ _____    ______ ____
ROOT
ATOM      1  O   UNL     1      -1.894   2.031  21.767  0.00  0.00    -0.252 OA
ATOM      7  N   UNL     1      -2.323   3.602  23.408  0.00  0.00    -0.285 N 
ATOM      9  N   UNL     1      -0.200   2.586  23.253  0.00  0.00    -0.269 N 
ATOM     10  C   UNL     1      -4.323   4.326  25.370  0.00  0.00    +0.004 C 
ATOM     11  C   UNL     1      -2.830   4.173  25.766  0.00  0.00    +0.010 C 
ATOM     12  C   UNL     1      -4.672   3.493  24.123  0.00  0.00    +0.023 C 
ATOM     13  C   UNL     1      -1.942   4.457  24.543  0.00  0.00    +0.113 C 
ATOM     14  C   UNL     1      -3.708   3.778  22.971  0.00  0.00    +0.109 C 
ATOM     18  C   UNL     1      -1.487   2.690  22.728  0.00  0.00    +0.306 C 
ATOM     39  H   UNL     1       0.200   3.393  23.716  0.00  0.00    +0.156 HD
ENDROOT
BRANCH   9  21
ATOM     21  C   UNL     1       0.646   1.448  23.234  0.00  0.00    +0.036 A 
ATOM     23  C   UNL     1       2.019   1.603  23.044  0.00  0.00    +0.038 A 
ATOM     24  C   UNL     1       0.105   0.174  23.406  0.00  0.00    +0.023 A 
ATOM     27  C   UNL     1       2.851   0.483  23.025  0.00  0.00    +0.061 A 
ATOM     28  C   UNL     1       0.936  -0.945  23.388  0.00  0.00    +0.003 A 
ATOM     29  C   UNL     1       2.309  -0.790  23.198  0.00  0.00    +0.015 A 
BRANCH  27  33
ATOM      6  O   UNL     1       4.844   0.618  21.723  0.00  0.00    -0.245 OA
ATOM     33  C   UNL     1       4.282   0.644  22.827  0.00  0.00    +0.339 C 
BRANCH  33   5
ATOM      5  O   UNL     1       4.937   0.827  24.014  0.00  0.00    -0.461 OA
BRANCH   5  36
ATOM     36  C   UNL     1       5.957  -0.122  24.344  0.00  0.00    +0.229 C 
ATOM     37  C   UNL     1       5.400  -1.520  24.179  0.00  0.00    +0.048 C 
ENDBRANCH   5  36
ENDBRANCH  33   5
ENDBRANCH  27  33
ENDBRANCH   9  21
BRANCH  11  15
ATOM     15  C   UNL     1      -2.483   2.811  26.378  0.00  0.00    +0.002 C 
ATOM     17  C   UNL     1      -0.984   2.609  26.448  0.00  0.00    +0.004 C 
ENDBRANCH  11  15
BRANCH  10  16
ATOM     16  C   UNL     1      -5.284   4.009  26.516  0.00  0.00    +0.099 C 
BRANCH  16  19
ATOM      2  O   UNL     1      -6.660   2.147  27.217  0.00  0.00    -0.276 OA
ATOM      8  N   UNL     1      -5.333   1.935  25.321  0.00  0.00    -0.311 N 
ATOM     19  C   UNL     1      -5.850   2.608  26.418  0.00  0.00    +0.214 C 
ATOM     38  H   UNL     1      -4.680   2.413  24.709  0.00  0.00    +0.149 HD
BRANCH   8  20
ATOM     20  C   UNL     1      -5.698   0.578  24.984  0.00  0.00    +0.139 C 
BRANCH  20  22
ATOM     22  C   UNL     1      -4.509  -0.339  24.979  0.00  0.00    -0.027 A 
ATOM     25  C   UNL     1      -4.554  -1.536  24.263  0.00  0.00    +0.054 A 
ATOM     26  C   UNL     1      -3.361   0.005  25.692  0.00  0.00    +0.009 A 
ATOM     30  C   UNL     1      -3.450  -2.387  24.259  0.00  0.00    +0.162 A 
ATOM     31  C   UNL     1      -2.257  -0.848  25.688  0.00  0.00    +0.050 A 
ATOM     32  C   UNL     1      -2.301  -2.044  24.972  0.00  0.00    +0.162 A 
BRANCH  30   3
ATOM      3  O   UNL     1      -3.505  -3.553  23.557  0.00  0.00    -0.491 OA
ATOM     34  C   UNL     1      -4.674  -3.782  22.772  0.00  0.00    +0.277 C 
ENDBRANCH  30   3
BRANCH  32   4
ATOM      4  O   UNL     1      -1.217  -2.867  24.976  0.00  0.00    -0.491 OA
ATOM     35  C   UNL     1      -0.101  -2.468  25.772  0.00  0.00    +0.277 C 
ENDBRANCH  32   4
ENDBRANCH  20  22
ENDBRANCH   8  20
ENDBRANCH  16  19
ENDBRANCH  10  16
TORSDOF 11
ENDMDL
