MODEL 1
REMARK VINA RESULT:      -4.9      0.000      0.000
REMARK  Name = 51137879
REMARK  4 active torsions:
REMARK  status: ('A' for Active; 'I' for Inactive)
REMARK    1  A    between atoms: N_1  and  C_9
REMARK    2  A    between atoms: N_2  and  C_13
REMARK    3  A    between atoms: C_4  and  C_8
REMARK    4  A    between atoms: C_9  and  C_11
REMARK                            x       y       z     vdW  Elec       q    Type
REMARK                         _______ _______ _______ _____ _____    ______ ____
ROOT
ATOM      1  N   UNL     1      11.081  -8.423  31.809  0.00  0.00    -0.297 NA
ATOM      4  C   UNL     1      12.761  -7.253  30.665  0.00  0.00    +0.070 C 
ATOM      5  C   UNL     1      13.295  -8.630  31.098  0.00  0.00    +0.028 C 
ATOM      6  C   UNL     1      11.488  -7.051  31.498  0.00  0.00    +0.096 C 
ATOM      7  C   UNL     1      12.321  -9.114  32.163  0.00  0.00    +0.085 C 
ENDROOT
BRANCH   4   8
ATOM      2  N   UNL     1      14.785  -5.939  29.939  0.00  0.00    -0.330 N 
ATOM      3  N   UNL     1      13.726  -5.193  31.745  0.00  0.00    -0.232 NA
ATOM      8  C   UNL     1      13.746  -6.116  30.808  0.00  0.00    +0.115 A 
ATOM     10  C   UNL     1      15.484  -4.830  30.341  0.00  0.00    +0.069 A 
ATOM     12  C   UNL     1      14.804  -4.383  31.471  0.00  0.00    +0.089 A 
ATOM     13  C   UNL     1      15.098  -6.771  28.799  0.00  0.00    +0.150 C 
ATOM     14  C   UNL     1      16.619  -4.198  29.830  0.00  0.00    +0.028 A 
ATOM     15  C   UNL     1      15.268  -3.240  32.142  0.00  0.00    +0.030 A 
ATOM     18  C   UNL     1      17.067  -3.062  30.511  0.00  0.00    +0.002 A 
ATOM     19  C   UNL     1      16.405  -2.589  31.647  0.00  0.00    +0.002 A 
ENDBRANCH   4   8
BRANCH   1   9
ATOM      9  C   UNL     1      10.091  -8.481  32.873  0.00  0.00    +0.119 C 
BRANCH   9  11
ATOM     11  C   UNL     1       8.686  -8.406  32.337  0.00  0.00    -0.033 A 
ATOM     16  C   UNL     1       7.782  -7.490  32.873  0.00  0.00    +0.005 A 
ATOM     17  C   UNL     1       8.288  -9.254  31.302  0.00  0.00    +0.005 A 
ATOM     20  C   UNL     1       6.480  -7.421  32.376  0.00  0.00    +0.000 A 
ATOM     21  C   UNL     1       6.987  -9.185  30.805  0.00  0.00    +0.000 A 
ATOM     22  C   UNL     1       6.083  -8.269  31.343  0.00  0.00    +0.000 A 
ENDBRANCH   9  11
ENDBRANCH   1   9
TORSDOF 3
ENDMDL
MODEL 2
REMARK VINA RESULT:      -4.8     14.487     17.978
REMARK  Name = 51137879
REMARK  4 active torsions:
REMARK  status: ('A' for Active; 'I' for Inactive)
REMARK    1  A    between atoms: N_1  and  C_9
REMARK    2  A    between atoms: N_2  and  C_13
REMARK    3  A    between atoms: C_4  and  C_8
REMARK    4  A    between atoms: C_9  and  C_11
REMARK                            x       y       z     vdW  Elec       q    Type
REMARK                         _______ _______ _______ _____ _____    ______ ____
ROOT
ATOM      1  N   UNL     1       0.670  -0.530  23.787  0.00  0.00    -0.297 NA
ATOM      4  C   UNL     1      -1.122   0.080  25.171  0.00  0.00    +0.070 C 
ATOM      5  C   UNL     1      -1.309  -1.371  24.696  0.00  0.00    +0.028 C 
ATOM      6  C   UNL     1      -0.055   0.661  24.233  0.00  0.00    +0.096 C 
ATOM      7  C   UNL     1      -0.368  -1.522  23.508  0.00  0.00    +0.085 C 
ENDROOT
BRANCH   4   8
ATOM      2  N   UNL     1      -2.374   2.248  25.459  0.00  0.00    -0.330 N 
ATOM      3  N   UNL     1      -3.606   0.454  25.009  0.00  0.00    -0.232 NA
ATOM      8  C   UNL     1      -2.387   0.905  25.207  0.00  0.00    +0.115 A 
ATOM     10  C   UNL     1      -3.670   2.694  25.422  0.00  0.00    +0.069 A 
ATOM     12  C   UNL     1      -4.420   1.556  25.140  0.00  0.00    +0.089 A 
ATOM     13  C   UNL     1      -1.206   3.059  25.720  0.00  0.00    +0.150 C 
ATOM     14  C   UNL     1      -4.234   3.958  25.606  0.00  0.00    +0.028 A 
ATOM     15  C   UNL     1      -5.816   1.664  25.030  0.00  0.00    +0.030 A 
ATOM     18  C   UNL     1      -5.626   4.048  25.493  0.00  0.00    +0.002 A 
ATOM     19  C   UNL     1      -6.404   2.923  25.210  0.00  0.00    +0.002 A 
ENDBRANCH   4   8
BRANCH   1   9
ATOM      9  C   UNL     1       1.510  -0.268  22.628  0.00  0.00    +0.119 C 
BRANCH   9  11
ATOM     11  C   UNL     1       2.969  -0.212  22.995  0.00  0.00    -0.033 A 
ATOM     16  C   UNL     1       3.708   0.944  22.746  0.00  0.00    +0.005 A 
ATOM     17  C   UNL     1       3.584  -1.318  23.584  0.00  0.00    +0.005 A 
ATOM     20  C   UNL     1       5.061   0.995  23.086  0.00  0.00    +0.000 A 
ATOM     21  C   UNL     1       4.935  -1.268  23.923  0.00  0.00    +0.000 A 
ATOM     22  C   UNL     1       5.673  -0.111  23.674  0.00  0.00    +0.000 A 
ENDBRANCH   9  11
ENDBRANCH   1   9
TORSDOF 3
ENDMDL
MODEL 3
REMARK VINA RESULT:      -4.4     14.439     17.991
REMARK  Name = 51137879
REMARK  4 active torsions:
REMARK  status: ('A' for Active; 'I' for Inactive)
REMARK    1  A    between atoms: N_1  and  C_9
REMARK    2  A    between atoms: N_2  and  C_13
REMARK    3  A    between atoms: C_4  and  C_8
REMARK    4  A    between atoms: C_9  and  C_11
REMARK                            x       y       z     vdW  Elec       q    Type
REMARK                         _______ _______ _______ _____ _____    ______ ____
ROOT
ATOM      1  N   UNL     1       0.721  -0.516  23.627  0.00  0.00    -0.297 NA
ATOM      4  C   UNL     1      -1.072   0.056  25.027  0.00  0.00    +0.070 C 
ATOM      5  C   UNL     1      -1.349  -1.306  24.366  0.00  0.00    +0.028 C 
ATOM      6  C   UNL     1       0.070   0.663  24.201  0.00  0.00    +0.096 C 
ATOM      7  C   UNL     1      -0.377  -1.380  23.195  0.00  0.00    +0.085 C 
ENDROOT
BRANCH   4   8
ATOM      2  N   UNL     1      -3.547   0.484  25.223  0.00  0.00    -0.330 N 
ATOM      3  N   UNL     1      -2.243   2.281  25.150  0.00  0.00    -0.232 NA
ATOM      8  C   UNL     1      -2.273   0.967  25.132  0.00  0.00    +0.115 A 
ATOM     10  C   UNL     1      -4.398   1.556  25.304  0.00  0.00    +0.069 A 
ATOM     12  C   UNL     1      -3.560   2.667  25.256  0.00  0.00    +0.089 A 
ATOM     13  C   UNL     1      -3.936  -0.909  25.232  0.00  0.00    +0.150 C 
ATOM     14  C   UNL     1      -5.786   1.648  25.413  0.00  0.00    +0.028 A 
ATOM     15  C   UNL     1      -4.122   3.952  25.318  0.00  0.00    +0.030 A 
ATOM     18  C   UNL     1      -6.329   2.936  25.473  0.00  0.00    +0.002 A 
ATOM     19  C   UNL     1      -5.513   4.069  25.428  0.00  0.00    +0.002 A 
ENDBRANCH   4   8
BRANCH   1   9
ATOM      9  C   UNL     1       1.622  -0.178  22.536  0.00  0.00    +0.119 C 
BRANCH   9  11
ATOM     11  C   UNL     1       3.062  -0.183  22.976  0.00  0.00    -0.033 A 
ATOM     16  C   UNL     1       3.850   0.953  22.796  0.00  0.00    +0.005 A 
ATOM     17  C   UNL     1       3.608  -1.324  23.564  0.00  0.00    +0.005 A 
ATOM     20  C   UNL     1       5.185   0.948  23.204  0.00  0.00    +0.000 A 
ATOM     21  C   UNL     1       4.941  -1.329  23.972  0.00  0.00    +0.000 A 
ATOM     22  C   UNL     1       5.730  -0.193  23.791  0.00  0.00    +0.000 A 
ENDBRANCH   9  11
ENDBRANCH   1   9
TORSDOF 3
ENDMDL
MODEL 4
REMARK VINA RESULT:      -3.5      3.407      8.642
REMARK  Name = 51137879
REMARK  4 active torsions:
REMARK  status: ('A' for Active; 'I' for Inactive)
REMARK    1  A    between atoms: N_1  and  C_9
REMARK    2  A    between atoms: N_2  and  C_13
REMARK    3  A    between atoms: C_4  and  C_8
REMARK    4  A    between atoms: C_9  and  C_11
REMARK                            x       y       z     vdW  Elec       q    Type
REMARK                         _______ _______ _______ _____ _____    ______ ____
ROOT
ATOM      1  N   UNL     1      17.004  -5.878  27.276  0.00  0.00    -0.297 NA
ATOM      4  C   UNL     1      15.858  -7.490  28.535  0.00  0.00    +0.070 C 
ATOM      5  C   UNL     1      15.563  -7.700  27.039  0.00  0.00    +0.028 C 
ATOM      6  C   UNL     1      16.456  -6.080  28.619  0.00  0.00    +0.096 C 
ATOM      7  C   UNL     1      15.980  -6.398  26.369  0.00  0.00    +0.085 C 
ENDROOT
BRANCH   4   8
ATOM      2  N   UNL     1      14.336  -8.904  29.963  0.00  0.00    -0.330 N 
ATOM      3  N   UNL     1      13.846  -6.740  29.849  0.00  0.00    -0.232 NA
ATOM      8  C   UNL     1      14.670  -7.682  29.449  0.00  0.00    +0.115 A 
ATOM     10  C   UNL     1      13.222  -8.740  30.745  0.00  0.00    +0.069 A 
ATOM     12  C   UNL     1      12.935  -7.380  30.658  0.00  0.00    +0.089 A 
ATOM     13  C   UNL     1      15.029 -10.150  29.725  0.00  0.00    +0.150 C 
ATOM     14  C   UNL     1      12.463  -9.636  31.499  0.00  0.00    +0.028 A 
ATOM     15  C   UNL     1      11.830  -6.866  31.357  0.00  0.00    +0.030 A 
ATOM     18  C   UNL     1      11.367  -9.108  32.188  0.00  0.00    +0.002 A 
ATOM     19  C   UNL     1      11.055  -7.748  32.121  0.00  0.00    +0.002 A 
ENDBRANCH   4   8
BRANCH   1   9
ATOM      9  C   UNL     1      17.323  -4.483  27.010  0.00  0.00    +0.119 C 
BRANCH   9  11
ATOM     11  C   UNL     1      17.284  -4.170  25.538  0.00  0.00    -0.033 A 
ATOM     16  C   UNL     1      17.405  -5.197  24.603  0.00  0.00    +0.005 A 
ATOM     17  C   UNL     1      17.127  -2.851  25.109  0.00  0.00    +0.005 A 
ATOM     20  C   UNL     1      17.370  -4.906  23.239  0.00  0.00    +0.000 A 
ATOM     21  C   UNL     1      17.092  -2.561  23.746  0.00  0.00    +0.000 A 
ATOM     22  C   UNL     1      17.214  -3.588  22.811  0.00  0.00    +0.000 A 
ENDBRANCH   9  11
ENDBRANCH   1   9
TORSDOF 3
ENDMDL
MODEL 5
REMARK VINA RESULT:      -3.3      2.566      3.934
REMARK  Name = 51137879
REMARK  4 active torsions:
REMARK  status: ('A' for Active; 'I' for Inactive)
REMARK    1  A    between atoms: N_1  and  C_9
REMARK    2  A    between atoms: N_2  and  C_13
REMARK    3  A    between atoms: C_4  and  C_8
REMARK    4  A    between atoms: C_9  and  C_11
REMARK                            x       y       z     vdW  Elec       q    Type
REMARK                         _______ _______ _______ _____ _____    ______ ____
ROOT
ATOM      1  N   UNL     1      12.357  -7.943  32.017  0.00  0.00    -0.297 NA
ATOM      4  C   UNL     1      14.211  -8.480  30.685  0.00  0.00    +0.070 C 
ATOM      5  C   UNL     1      14.656  -7.573  31.846  0.00  0.00    +0.028 C 
ATOM      6  C   UNL     1      12.684  -8.338  30.646  0.00  0.00    +0.096 C 
ATOM      7  C   UNL     1      13.370  -6.952  32.376  0.00  0.00    +0.085 C 
ENDROOT
BRANCH   4   8
ATOM      2  N   UNL     1      15.225  -9.165  28.482  0.00  0.00    -0.330 N 
ATOM      3  N   UNL     1      15.158  -6.983  28.896  0.00  0.00    -0.232 NA
ATOM      8  C   UNL     1      14.866  -8.179  29.357  0.00  0.00    +0.115 A 
ATOM     10  C   UNL     1      15.788  -8.567  27.384  0.00  0.00    +0.069 A 
ATOM     12  C   UNL     1      15.735  -7.205  27.667  0.00  0.00    +0.089 A 
ATOM     13  C   UNL     1      15.047 -10.587  28.676  0.00  0.00    +0.150 C 
ATOM     14  C   UNL     1      16.322  -9.085  26.203  0.00  0.00    +0.028 A 
ATOM     15  C   UNL     1      16.240  -6.290  26.729  0.00  0.00    +0.030 A 
ATOM     18  C   UNL     1      16.821  -8.159  25.280  0.00  0.00    +0.002 A 
ATOM     19  C   UNL     1      16.781  -6.787  25.536  0.00  0.00    +0.002 A 
ENDBRANCH   4   8
BRANCH   1   9
ATOM      9  C   UNL     1      11.004  -7.422  32.138  0.00  0.00    +0.119 C 
BRANCH   9  11
ATOM     11  C   UNL     1       9.984  -8.525  32.237  0.00  0.00    -0.033 A 
ATOM     16  C   UNL     1       8.682  -8.315  31.785  0.00  0.00    +0.005 A 
ATOM     17  C   UNL     1      10.342  -9.759  32.782  0.00  0.00    +0.005 A 
ATOM     20  C   UNL     1       7.738  -9.338  31.877  0.00  0.00    +0.000 A 
ATOM     21  C   UNL     1       9.398 -10.781  32.873  0.00  0.00    +0.000 A 
ATOM     22  C   UNL     1       8.096 -10.570  32.422  0.00  0.00    +0.000 A 
ENDBRANCH   9  11
ENDBRANCH   1   9
TORSDOF 3
ENDMDL
MODEL 6
REMARK VINA RESULT:      -2.7     14.966     18.424
REMARK  Name = 51137879
REMARK  4 active torsions:
REMARK  status: ('A' for Active; 'I' for Inactive)
REMARK    1  A    between atoms: N_1  and  C_9
REMARK    2  A    between atoms: N_2  and  C_13
REMARK    3  A    between atoms: C_4  and  C_8
REMARK    4  A    between atoms: C_9  and  C_11
REMARK                            x       y       z     vdW  Elec       q    Type
REMARK                         _______ _______ _______ _____ _____    ______ ____
ROOT
ATOM      1  N   UNL     1       0.940   1.026  23.143  0.00  0.00    -0.297 NA
ATOM      4  C   UNL     1      -0.947   2.338  23.609  0.00  0.00    +0.070 C 
ATOM      5  C   UNL     1       0.135   2.595  24.673  0.00  0.00    +0.028 C 
ATOM      6  C   UNL     1      -0.505   1.045  22.912  0.00  0.00    +0.096 C 
ATOM      7  C   UNL     1       1.104   1.428  24.540  0.00  0.00    +0.085 C 
ENDROOT
BRANCH   4   8
ATOM      2  N   UNL     1      -2.941   3.315  24.801  0.00  0.00    -0.330 N 
ATOM      3  N   UNL     1      -3.170   1.239  24.043  0.00  0.00    -0.232 NA
ATOM      8  C   UNL     1      -2.359   2.268  24.142  0.00  0.00    +0.115 A 
ATOM     10  C   UNL     1      -4.211   2.935  25.152  0.00  0.00    +0.069 A 
ATOM     12  C   UNL     1      -4.330   1.635  24.667  0.00  0.00    +0.089 A 
ATOM     13  C   UNL     1      -2.330   4.594  25.083  0.00  0.00    +0.150 C 
ATOM     14  C   UNL     1      -5.235   3.597  25.830  0.00  0.00    +0.028 A 
ATOM     15  C   UNL     1      -5.534   0.939  24.861  0.00  0.00    +0.030 A 
ATOM     18  C   UNL     1      -6.428   2.889  26.014  0.00  0.00    +0.002 A 
ATOM     19  C   UNL     1      -6.577   1.584  25.539  0.00  0.00    +0.002 A 
ENDBRANCH   4   8
BRANCH   1   9
ATOM      9  C   UNL     1       1.530  -0.275  22.868  0.00  0.00    +0.119 C 
BRANCH   9  11
ATOM     11  C   UNL     1       3.008  -0.293  23.156  0.00  0.00    -0.033 A 
ATOM     16  C   UNL     1       3.599  -1.430  23.705  0.00  0.00    +0.005 A 
ATOM     17  C   UNL     1       3.788   0.830  22.873  0.00  0.00    +0.005 A 
ATOM     20  C   UNL     1       4.969  -1.446  23.971  0.00  0.00    +0.000 A 
ATOM     21  C   UNL     1       5.156   0.814  23.138  0.00  0.00    +0.000 A 
ATOM     22  C   UNL     1       5.746  -0.323  23.689  0.00  0.00    +0.000 A 
ENDBRANCH   9  11
ENDBRANCH   1   9
TORSDOF 3
ENDMDL
MODEL 7
REMARK VINA RESULT:      -2.7      3.087      5.671
REMARK  Name = 51137879
REMARK  4 active torsions:
REMARK  status: ('A' for Active; 'I' for Inactive)
REMARK    1  A    between atoms: N_1  and  C_9
REMARK    2  A    between atoms: N_2  and  C_13
REMARK    3  A    between atoms: C_4  and  C_8
REMARK    4  A    between atoms: C_9  and  C_11
REMARK                            x       y       z     vdW  Elec       q    Type
REMARK                         _______ _______ _______ _____ _____    ______ ____
ROOT
ATOM      1  N   UNL     1      14.672  -6.351  30.762  0.00  0.00    -0.297 NA
ATOM      4  C   UNL     1      16.384  -6.313  29.161  0.00  0.00    +0.070 C 
ATOM      5  C   UNL     1      16.382  -4.988  29.944  0.00  0.00    +0.028 C 
ATOM      6  C   UNL     1      15.025  -6.951  29.474  0.00  0.00    +0.096 C 
ATOM      7  C   UNL     1      15.023  -4.937  30.628  0.00  0.00    +0.085 C 
ENDROOT
BRANCH   4   8
ATOM      2  N   UNL     1      16.772  -7.257  26.857  0.00  0.00    -0.330 N 
ATOM      3  N   UNL     1      16.768  -5.042  27.022  0.00  0.00    -0.232 NA
ATOM      8  C   UNL     1      16.642  -6.173  27.679  0.00  0.00    +0.115 A 
ATOM     10  C   UNL     1      16.998  -6.796  25.586  0.00  0.00    +0.069 A 
ATOM     12  C   UNL     1      16.991  -5.409  25.715  0.00  0.00    +0.089 A 
ATOM     13  C   UNL     1      16.688  -8.646  27.252  0.00  0.00    +0.150 C 
ATOM     14  C   UNL     1      17.200  -7.451  24.370  0.00  0.00    +0.028 A 
ATOM     15  C   UNL     1      17.198  -4.614  24.576  0.00  0.00    +0.030 A 
ATOM     18  C   UNL     1      17.404  -6.644  23.246  0.00  0.00    +0.002 A 
ATOM     19  C   UNL     1      17.403  -5.250  23.345  0.00  0.00    +0.002 A 
ENDBRANCH   4   8
BRANCH   1   9
ATOM      9  C   UNL     1      13.269  -6.544  31.100  0.00  0.00    +0.119 C 
BRANCH   9  11
ATOM     11  C   UNL     1      12.989  -7.954  31.546  0.00  0.00    -0.033 A 
ATOM     16  C   UNL     1      14.012  -8.730  32.091  0.00  0.00    +0.005 A 
ATOM     17  C   UNL     1      11.706  -8.486  31.415  0.00  0.00    +0.005 A 
ATOM     20  C   UNL     1      13.752 -10.037  32.504  0.00  0.00    +0.000 A 
ATOM     21  C   UNL     1      11.446  -9.791  31.828  0.00  0.00    +0.000 A 
ATOM     22  C   UNL     1      12.469 -10.567  32.372  0.00  0.00    +0.000 A 
ENDBRANCH   9  11
ENDBRANCH   1   9
TORSDOF 3
ENDMDL
MODEL 8
REMARK VINA RESULT:      -2.3     16.074     18.796
REMARK  Name = 51137879
REMARK  4 active torsions:
REMARK  status: ('A' for Active; 'I' for Inactive)
REMARK    1  A    between atoms: N_1  and  C_9
REMARK    2  A    between atoms: N_2  and  C_13
REMARK    3  A    between atoms: C_4  and  C_8
REMARK    4  A    between atoms: C_9  and  C_11
REMARK                            x       y       z     vdW  Elec       q    Type
REMARK                         _______ _______ _______ _____ _____    ______ ____
ROOT
ATOM      1  N   UNL     1      -0.244   3.587  25.201  0.00  0.00    -0.297 NA
ATOM      4  C   UNL     1      -0.245   1.243  25.150  0.00  0.00    +0.070 C 
ATOM      5  C   UNL     1       0.486   1.784  23.909  0.00  0.00    +0.028 C 
ATOM      6  C   UNL     1      -1.014   2.448  25.704  0.00  0.00    +0.096 C 
ATOM      7  C   UNL     1       0.070   3.246  23.814  0.00  0.00    +0.085 C 
ENDROOT
BRANCH   4   8
ATOM      2  N   UNL     1      -2.386   0.167  24.371  0.00  0.00    -0.330 N 
ATOM      3  N   UNL     1      -0.815  -1.209  25.129  0.00  0.00    -0.232 NA
ATOM      8  C   UNL     1      -1.130   0.045  24.893  0.00  0.00    +0.115 A 
ATOM     10  C   UNL     1      -2.920  -1.092  24.264  0.00  0.00    +0.069 A 
ATOM     12  C   UNL     1      -1.920  -1.934  24.743  0.00  0.00    +0.089 A 
ATOM     13  C   UNL     1      -3.042   1.400  23.999  0.00  0.00    +0.150 C 
ATOM     14  C   UNL     1      -4.153  -1.553  23.801  0.00  0.00    +0.028 A 
ATOM     15  C   UNL     1      -2.145  -3.319  24.771  0.00  0.00    +0.030 A 
ATOM     18  C   UNL     1      -4.361  -2.936  23.836  0.00  0.00    +0.002 A 
ATOM     19  C   UNL     1      -3.376  -3.805  24.312  0.00  0.00    +0.002 A 
ENDBRANCH   4   8
BRANCH   1   9
ATOM      9  C   UNL     1      -0.970   4.843  25.312  0.00  0.00    +0.119 C 
BRANCH   9  11
ATOM     11  C   UNL     1      -2.461   4.631  25.299  0.00  0.00    -0.033 A 
ATOM     16  C   UNL     1      -3.118   4.225  26.460  0.00  0.00    +0.005 A 
ATOM     17  C   UNL     1      -3.185   4.842  24.125  0.00  0.00    +0.005 A 
ATOM     20  C   UNL     1      -4.500   4.028  26.447  0.00  0.00    +0.000 A 
ATOM     21  C   UNL     1      -4.566   4.646  24.113  0.00  0.00    +0.000 A 
ATOM     22  C   UNL     1      -5.223   4.239  25.274  0.00  0.00    +0.000 A 
ENDBRANCH   9  11
ENDBRANCH   1   9
TORSDOF 3
ENDMDL
MODEL 9
REMARK VINA RESULT:      -2.3      4.724      9.221
REMARK  Name = 51137879
REMARK  4 active torsions:
REMARK  status: ('A' for Active; 'I' for Inactive)
REMARK    1  A    between atoms: N_1  and  C_9
REMARK    2  A    between atoms: N_2  and  C_13
REMARK    3  A    between atoms: C_4  and  C_8
REMARK    4  A    between atoms: C_9  and  C_11
REMARK                            x       y       z     vdW  Elec       q    Type
REMARK                         _______ _______ _______ _____ _____    ______ ____
ROOT
ATOM      1  N   UNL     1      17.405  -5.102  26.710  0.00  0.00    -0.297 NA
ATOM      4  C   UNL     1      17.182  -7.235  27.657  0.00  0.00    +0.070 C 
ATOM      5  C   UNL     1      16.785  -7.287  26.171  0.00  0.00    +0.028 C 
ATOM      6  C   UNL     1      17.180  -5.742  28.007  0.00  0.00    +0.096 C 
ATOM      7  C   UNL     1      16.554  -5.835  25.774  0.00  0.00    +0.085 C 
ENDROOT
BRANCH   4   8
ATOM      2  N   UNL     1      16.447  -8.022  29.935  0.00  0.00    -0.330 N 
ATOM      3  N   UNL     1      15.353  -8.877  28.201  0.00  0.00    -0.232 NA
ATOM      8  C   UNL     1      16.310  -8.059  28.576  0.00  0.00    +0.115 A 
ATOM     10  C   UNL     1      15.517  -8.874  30.473  0.00  0.00    +0.069 A 
ATOM     12  C   UNL     1      14.846  -9.395  29.370  0.00  0.00    +0.089 A 
ATOM     13  C   UNL     1      17.401  -7.230  30.678  0.00  0.00    +0.150 C 
ATOM     14  C   UNL     1      15.213  -9.222  31.790  0.00  0.00    +0.028 A 
ATOM     15  C   UNL     1      13.809 -10.320  29.573  0.00  0.00    +0.030 A 
ATOM     18  C   UNL     1      14.177 -10.144  31.974  0.00  0.00    +0.002 A 
ATOM     19  C   UNL     1      13.486 -10.684  30.887  0.00  0.00    +0.002 A 
ENDBRANCH   4   8
BRANCH   1   9
ATOM      9  C   UNL     1      17.105  -3.678  26.733  0.00  0.00    +0.119 C 
BRANCH   9  11
ATOM     11  C   UNL     1      17.137  -3.076  25.354  0.00  0.00    -0.033 A 
ATOM     16  C   UNL     1      17.361  -3.888  24.242  0.00  0.00    +0.005 A 
ATOM     17  C   UNL     1      16.942  -1.704  25.186  0.00  0.00    +0.005 A 
ATOM     20  C   UNL     1      17.391  -3.330  22.964  0.00  0.00    +0.000 A 
ATOM     21  C   UNL     1      16.972  -1.146  23.909  0.00  0.00    +0.000 A 
ATOM     22  C   UNL     1      17.197  -1.959  22.798  0.00  0.00    +0.000 A 
ENDBRANCH   9  11
ENDBRANCH   1   9
TORSDOF 3
ENDMDL
MODEL 10
REMARK VINA RESULT:      -2.2     15.025     17.143
REMARK  Name = 51137879
REMARK  4 active torsions:
REMARK  status: ('A' for Active; 'I' for Inactive)
REMARK    1  A    between atoms: N_1  and  C_9
REMARK    2  A    between atoms: N_2  and  C_13
REMARK    3  A    between atoms: C_4  and  C_8
REMARK    4  A    between atoms: C_9  and  C_11
REMARK                            x       y       z     vdW  Elec       q    Type
REMARK                         _______ _______ _______ _____ _____    ______ ____
ROOT
ATOM      1  N   UNL     1      -3.622   1.974  25.332  0.00  0.00    -0.297 NA
ATOM      4  C   UNL     1      -1.340   2.371  24.968  0.00  0.00    +0.070 C 
ATOM      5  C   UNL     1      -2.174   3.361  24.136  0.00  0.00    +0.028 C 
ATOM      6  C   UNL     1      -2.334   1.279  25.383  0.00  0.00    +0.096 C 
ATOM      7  C   UNL     1      -3.575   2.765  24.103  0.00  0.00    +0.085 C 
ENDROOT
BRANCH   4   8
ATOM      2  N   UNL     1      -0.165   0.682  23.513  0.00  0.00    -0.330 N 
ATOM      3  N   UNL     1       1.084   2.348  24.289  0.00  0.00    -0.232 NA
ATOM      8  C   UNL     1      -0.120   1.821  24.265  0.00  0.00    +0.115 A 
ATOM     10  C   UNL     1       1.094   0.457  23.018  0.00  0.00    +0.069 A 
ATOM     12  C   UNL     1       1.856   1.510  23.516  0.00  0.00    +0.089 A 
ATOM     13  C   UNL     1      -1.328  -0.144  23.278  0.00  0.00    +0.150 C 
ATOM     14  C   UNL     1       1.616  -0.547  22.201  0.00  0.00    +0.028 A 
ATOM     15  C   UNL     1       3.220   1.583  23.192  0.00  0.00    +0.030 A 
ATOM     18  C   UNL     1       2.977  -0.459  21.888  0.00  0.00    +0.002 A 
ATOM     19  C   UNL     1       3.766   0.586  22.373  0.00  0.00    +0.002 A 
ENDBRANCH   4   8
BRANCH   1   9
ATOM      9  C   UNL     1      -4.751   1.055  25.356  0.00  0.00    +0.119 C 
BRANCH   9  11
ATOM     11  C   UNL     1      -4.326  -0.363  25.082  0.00  0.00    -0.033 A 
ATOM     16  C   UNL     1      -4.658  -0.969  23.871  0.00  0.00    +0.005 A 
ATOM     17  C   UNL     1      -3.599  -1.071  26.040  0.00  0.00    +0.005 A 
ATOM     20  C   UNL     1      -4.264  -2.283  23.617  0.00  0.00    +0.000 A 
ATOM     21  C   UNL     1      -3.206  -2.384  25.786  0.00  0.00    +0.000 A 
ATOM     22  C   UNL     1      -3.539  -2.991  24.575  0.00  0.00    +0.000 A 
ENDBRANCH   9  11
ENDBRANCH   1   9
TORSDOF 3
ENDMDL
