MODEL 1
REMARK VINA RESULT:       3.4      0.000      0.000
REMARK  Name = 7165083
REMARK  7 active torsions:
REMARK  status: ('A' for Active; 'I' for Inactive)
REMARK    1  A    between atoms: O_4  and  C_25
REMARK    2  A    between atoms: O_4  and  C_26
REMARK    3  A    between atoms: O_5  and  C_24
REMARK    4  A    between atoms: N_9  and  C_18
REMARK    5  A    between atoms: C_15  and  C_17
REMARK    6  A    between atoms: C_17  and  C_19
REMARK    7  A    between atoms: C_19  and  C_24
REMARK                            x       y       z     vdW  Elec       q    Type
REMARK                         _______ _______ _______ _____ _____    ______ ____
ROOT
ATOM      1  O   UNL     1      -2.270   2.267  24.588  0.00  0.00    -0.273 OA
ATOM      2  O   UNL     1      -3.876   3.602  26.881  0.00  0.00    -0.276 OA
ATOM      3  O   UNL     1      -1.739  -2.404  24.699  0.00  0.00    -0.252 OA
ATOM      7  N   UNL     1      -4.801   1.980  25.514  0.00  0.00    -0.288 N 
ATOM      8  N   UNL     1      -3.717  -1.457  25.242  0.00  0.00    -0.293 N 
ATOM      9  N   UNL     1      -1.908  -0.057  24.604  0.00  0.00    -0.193 N 
ATOM     10  C   UNL     1      -4.585  -0.337  25.455  0.00  0.00    +0.105 C 
ATOM     11  C   UNL     1      -3.833   0.925  25.820  0.00  0.00    +0.183 C 
ATOM     12  C   UNL     1      -5.399   0.081  24.232  0.00  0.00    +0.043 C 
ATOM     13  C   UNL     1      -5.838   1.493  24.602  0.00  0.00    +0.110 C 
ATOM     14  C   UNL     1      -2.603   1.133  24.941  0.00  0.00    +0.250 C 
ATOM     15  C   UNL     1      -4.768   3.227  26.118  0.00  0.00    +0.217 C 
ATOM     16  C   UNL     1      -2.405  -1.371  24.818  0.00  0.00    +0.313 C 
ATOM     32  H   UNL     1      -4.098  -2.385  25.395  0.00  0.00    +0.151 HD
ENDROOT
BRANCH   9  18
ATOM     18  C   UNL     1      -0.606   0.079  23.981  0.00  0.00    +0.046 A 
ATOM     20  C   UNL     1      -0.248  -0.775  22.947  0.00  0.00    +0.027 A 
ATOM     21  C   UNL     1       0.265   1.063  24.429  0.00  0.00    +0.027 A 
ATOM     22  C   UNL     1       1.005  -0.643  22.349  0.00  0.00    +0.048 A 
ATOM     23  C   UNL     1       1.519   1.194  23.830  0.00  0.00    +0.048 A 
ATOM     25  C   UNL     1       1.888   0.341  22.791  0.00  0.00    +0.129 A 
BRANCH  25   4
ATOM      4  O   UNL     1       3.111   0.470  22.207  0.00  0.00    -0.456 OA
BRANCH   4  26
ATOM     26  C   UNL     1       4.217   0.060  22.932  0.00  0.00    +0.128 A 
ATOM     27  C   UNL     1       5.233   0.963  23.180  0.00  0.00    +0.046 A 
ATOM     28  C   UNL     1       4.276  -1.244  23.390  0.00  0.00    +0.046 A 
ATOM     29  C   UNL     1       6.348   0.549  23.910  0.00  0.00    +0.004 A 
ATOM     30  C   UNL     1       5.389  -1.659  24.120  0.00  0.00    +0.004 A 
ATOM     31  C   UNL     1       6.425  -0.762  24.381  0.00  0.00    +0.000 A 
ENDBRANCH   4  26
ENDBRANCH  25   4
ENDBRANCH   9  18
BRANCH  15  17
ATOM     17  C   UNL     1      -5.918   4.142  25.780  0.00  0.00    +0.107 C 
BRANCH  17  19
ATOM     19  C   UNL     1      -5.474   5.169  24.757  0.00  0.00    +0.129 C 
BRANCH  19  24
ATOM      6  O   UNL     1      -4.296   4.067  22.956  0.00  0.00    -0.251 OA
ATOM     24  C   UNL     1      -4.253   4.696  24.006  0.00  0.00    +0.305 C 
BRANCH  24   5
ATOM      5  O   UNL     1      -3.096   5.024  24.633  0.00  0.00    -0.481 OA
ATOM     33  H   UNL     1      -2.922   5.989  24.602  0.00  0.00    +0.295 HD
ENDBRANCH  24   5
ENDBRANCH  19  24
ENDBRANCH  17  19
ENDBRANCH  15  17
TORSDOF 7
ENDMDL
MODEL 2
REMARK VINA RESULT:       6.5      1.332      2.063
REMARK  Name = 7165083
REMARK  7 active torsions:
REMARK  status: ('A' for Active; 'I' for Inactive)
REMARK    1  A    between atoms: O_4  and  C_25
REMARK    2  A    between atoms: O_4  and  C_26
REMARK    3  A    between atoms: O_5  and  C_24
REMARK    4  A    between atoms: N_9  and  C_18
REMARK    5  A    between atoms: C_15  and  C_17
REMARK    6  A    between atoms: C_17  and  C_19
REMARK    7  A    between atoms: C_19  and  C_24
REMARK                            x       y       z     vdW  Elec       q    Type
REMARK                         _______ _______ _______ _____ _____    ______ ____
ROOT
ATOM      1  O   UNL     1      -1.543   2.385  23.980  0.00  0.00    -0.273 OA
ATOM      2  O   UNL     1      -3.169   3.986  26.081  0.00  0.00    -0.276 OA
ATOM      3  O   UNL     1      -0.813  -2.192  24.779  0.00  0.00    -0.252 OA
ATOM      7  N   UNL     1      -4.045   2.140  24.993  0.00  0.00    -0.288 N 
ATOM      8  N   UNL     1      -2.820  -1.252  25.216  0.00  0.00    -0.293 N 
ATOM      9  N   UNL     1      -1.083   0.105  24.336  0.00  0.00    -0.193 N 
ATOM     10  C   UNL     1      -3.731  -0.149  25.279  0.00  0.00    +0.105 C 
ATOM     11  C   UNL     1      -3.029   1.183  25.433  0.00  0.00    +0.183 C 
ATOM     12  C   UNL     1      -4.581   0.048  24.024  0.00  0.00    +0.043 C 
ATOM     13  C   UNL     1      -5.075   1.481  24.188  0.00  0.00    +0.110 C 
ATOM     14  C   UNL     1      -1.822   1.304  24.506  0.00  0.00    +0.250 C 
ATOM     15  C   UNL     1      -4.056   3.465  25.402  0.00  0.00    +0.217 C 
ATOM     16  C   UNL     1      -1.520  -1.179  24.756  0.00  0.00    +0.313 C 
ATOM     32  H   UNL     1      -3.159  -2.161  25.516  0.00  0.00    +0.151 HD
ENDROOT
BRANCH   9  18
ATOM     18  C   UNL     1       0.202   0.197  23.672  0.00  0.00    +0.046 A 
ATOM     20  C   UNL     1       1.155   1.092  24.140  0.00  0.00    +0.027 A 
ATOM     21  C   UNL     1       0.462  -0.613  22.575  0.00  0.00    +0.027 A 
ATOM     22  C   UNL     1       2.390   1.178  23.500  0.00  0.00    +0.048 A 
ATOM     23  C   UNL     1       1.699  -0.526  21.934  0.00  0.00    +0.048 A 
ATOM     25  C   UNL     1       2.662   0.370  22.396  0.00  0.00    +0.129 A 
BRANCH  25   4
ATOM      4  O   UNL     1       3.868   0.455  21.771  0.00  0.00    -0.456 OA
BRANCH   4  26
ATOM     26  C   UNL     1       5.001   0.181  22.519  0.00  0.00    +0.128 A 
ATOM     27  C   UNL     1       6.057  -0.483  21.923  0.00  0.00    +0.046 A 
ATOM     28  C   UNL     1       5.047   0.580  23.842  0.00  0.00    +0.046 A 
ATOM     29  C   UNL     1       7.198  -0.759  22.677  0.00  0.00    +0.004 A 
ATOM     30  C   UNL     1       6.187   0.305  24.596  0.00  0.00    +0.004 A 
ATOM     31  C   UNL     1       7.264  -0.364  24.013  0.00  0.00    +0.000 A 
ENDBRANCH   4  26
ENDBRANCH  25   4
ENDBRANCH   9  18
BRANCH  15  17
ATOM     17  C   UNL     1      -5.248   4.272  24.956  0.00  0.00    +0.107 C 
BRANCH  17  19
ATOM     19  C   UNL     1      -6.375   4.123  25.958  0.00  0.00    +0.129 C 
BRANCH  19  24
ATOM      6  O   UNL     1      -6.326   2.138  27.336  0.00  0.00    -0.251 OA
ATOM     24  C   UNL     1      -6.631   2.671  26.277  0.00  0.00    +0.305 C 
BRANCH  24   5
ATOM      5  O   UNL     1      -7.218   2.007  25.249  0.00  0.00    -0.481 OA
ATOM     33  H   UNL     1      -6.877   1.091  25.162  0.00  0.00    +0.295 HD
ENDBRANCH  24   5
ENDBRANCH  19  24
ENDBRANCH  17  19
ENDBRANCH  15  17
TORSDOF 7
ENDMDL
