MODEL 1
REMARK VINA RESULT:       0.2      0.000      0.000
REMARK  Name = 56774784
REMARK  7 active torsions:
REMARK  status: ('A' for Active; 'I' for Inactive)
REMARK    1  A    between atoms: O_3  and  C_11
REMARK    2  A    between atoms: N_6  and  C_13
REMARK    3  A    between atoms: N_8  and  C_22
REMARK    4  A    between atoms: C_10  and  C_11
REMARK    5  A    between atoms: C_11  and  C_15
REMARK    6  A    between atoms: C_13  and  C_17
REMARK    7  A    between atoms: C_27  and  C_28
REMARK                            x       y       z     vdW  Elec       q    Type
REMARK                         _______ _______ _______ _____ _____    ______ ____
ROOT
ATOM     11  C   UNL     1      -3.627   3.703  26.238  0.00  0.00    +0.167 C 
ENDROOT
BRANCH  11  10
ATOM      2  O   UNL     1      -3.684   4.241  23.354  0.00  0.00    -0.369 OA
ATOM      4  O   UNL     1      -3.493   0.640  23.163  0.00  0.00    -0.273 OA
ATOM      6  N   UNL     1      -4.556   1.970  24.749  0.00  0.00    -0.286 N 
ATOM     10  C   UNL     1      -4.760   3.323  25.281  0.00  0.00    +0.135 C 
ATOM     12  C   UNL     1      -4.870   4.323  24.136  0.00  0.00    +0.185 C 
ATOM     14  C   UNL     1      -3.846   1.748  23.570  0.00  0.00    +0.242 C 
ATOM     16  C   UNL     1      -3.583   2.986  22.721  0.00  0.00    +0.255 C 
BRANCH   6  13
ATOM     13  C   UNL     1      -4.961   0.849  25.587  0.00  0.00    +0.163 C 
BRANCH  13  17
ATOM      7  N   UNL     1      -4.856  -1.077  24.111  0.00  0.00    -0.258 NA
ATOM     17  C   UNL     1      -4.305  -0.433  25.164  0.00  0.00    +0.059 A 
ATOM     23  C   UNL     1      -3.193  -0.887  25.855  0.00  0.00    +0.025 A 
ATOM     24  C   UNL     1      -2.609  -2.078  25.438  0.00  0.00    +0.003 A 
ATOM     25  C   UNL     1      -4.262  -2.232  23.734  0.00  0.00    +0.111 A 
ATOM     26  C   UNL     1      -3.148  -2.770  24.359  0.00  0.00    +0.020 A 
ENDBRANCH  13  17
ENDBRANCH   6  13
ENDBRANCH  11  10
BRANCH  11  15
ATOM     15  C   UNL     1      -2.300   3.150  25.783  0.00  0.00    -0.017 A 
ATOM     18  C   UNL     1      -1.445   3.937  25.011  0.00  0.00    +0.008 A 
ATOM     19  C   UNL     1      -1.929   1.852  26.133  0.00  0.00    +0.008 A 
ATOM     20  C   UNL     1      -0.217   3.424  24.589  0.00  0.00    +0.023 A 
ATOM     21  C   UNL     1      -0.702   1.339  25.710  0.00  0.00    +0.023 A 
ATOM     22  C   UNL     1       0.154   2.126  24.939  0.00  0.00    +0.034 A 
BRANCH  22   8
ATOM      5  O   UNL     1       0.783   0.111  22.810  0.00  0.00    -0.270 OA
ATOM      8  N   UNL     1       1.381   1.613  24.517  0.00  0.00    -0.282 N 
ATOM     27  C   UNL     1       1.621   0.668  23.512  0.00  0.00    +0.248 C 
ATOM     34  H   UNL     1       2.181   2.024  24.991  0.00  0.00    +0.155 HD
BRANCH  27  28
ATOM      1 CL   UNL     1       5.673  -2.542  24.069  0.00  0.00    -0.062 Cl
ATOM      9  N   UNL     1       5.742  -0.272  22.821  0.00  0.00    -0.244 NA
ATOM     28  C   UNL     1       3.051   0.341  23.273  0.00  0.00    +0.041 A 
ATOM     29  C   UNL     1       3.588  -0.846  23.759  0.00  0.00    +0.053 A 
ATOM     30  C   UNL     1       3.859   1.222  22.562  0.00  0.00    +0.033 A 
ATOM     31  C   UNL     1       4.927  -1.103  23.508  0.00  0.00    +0.130 A 
ATOM     32  C   UNL     1       5.184   0.873  22.364  0.00  0.00    +0.113 A 
ENDBRANCH  27  28
ENDBRANCH  22   8
ENDBRANCH  11  15
BRANCH  11   3
ATOM      3  O   UNL     1      -3.544   5.121  26.331  0.00  0.00    -0.385 OA
ATOM     33  H   UNL     1      -2.612   5.382  26.427  0.00  0.00    +0.210 HD
ENDBRANCH  11   3
TORSDOF 7
ENDMDL
MODEL 2
REMARK VINA RESULT:       0.6      1.647      2.218
REMARK  Name = 56774784
REMARK  7 active torsions:
REMARK  status: ('A' for Active; 'I' for Inactive)
REMARK    1  A    between atoms: O_3  and  C_11
REMARK    2  A    between atoms: N_6  and  C_13
REMARK    3  A    between atoms: N_8  and  C_22
REMARK    4  A    between atoms: C_10  and  C_11
REMARK    5  A    between atoms: C_11  and  C_15
REMARK    6  A    between atoms: C_13  and  C_17
REMARK    7  A    between atoms: C_27  and  C_28
REMARK                            x       y       z     vdW  Elec       q    Type
REMARK                         _______ _______ _______ _____ _____    ______ ____
ROOT
ATOM     11  C   UNL     1      -3.081   3.587  24.189  0.00  0.00    +0.167 C 
ENDROOT
BRANCH  11  10
ATOM      2  O   UNL     1      -5.871   4.233  24.830  0.00  0.00    -0.369 OA
ATOM      4  O   UNL     1      -6.069   0.670  25.383  0.00  0.00    -0.273 OA
ATOM      6  N   UNL     1      -4.286   2.116  25.762  0.00  0.00    -0.286 N 
ATOM     10  C   UNL     1      -3.733   3.463  25.570  0.00  0.00    +0.135 C 
ATOM     12  C   UNL     1      -4.827   4.507  25.756  0.00  0.00    +0.185 C 
ATOM     14  C   UNL     1      -5.599   1.808  25.409  0.00  0.00    +0.242 C 
ATOM     16  C   UNL     1      -6.498   3.005  25.125  0.00  0.00    +0.255 C 
BRANCH   6  13
ATOM     13  C   UNL     1      -3.364   1.061  26.162  0.00  0.00    +0.163 C 
BRANCH  13  17
ATOM      7  N   UNL     1      -3.830  -0.008  24.031  0.00  0.00    -0.258 NA
ATOM     17  C   UNL     1      -3.544  -0.182  25.340  0.00  0.00    +0.059 A 
ATOM     23  C   UNL     1      -3.413  -1.421  25.946  0.00  0.00    +0.025 A 
ATOM     24  C   UNL     1      -3.586  -2.554  25.158  0.00  0.00    +0.003 A 
ATOM     25  C   UNL     1      -3.991  -1.131  23.295  0.00  0.00    +0.111 A 
ATOM     26  C   UNL     1      -3.881  -2.414  23.806  0.00  0.00    +0.020 A 
ENDBRANCH  13  17
ENDBRANCH   6  13
ENDBRANCH  11  10
BRANCH  11  15
ATOM     15  C   UNL     1      -1.797   2.802  24.104  0.00  0.00    -0.017 A 
ATOM     18  C   UNL     1      -1.644   1.820  23.124  0.00  0.00    +0.008 A 
ATOM     19  C   UNL     1      -0.763   3.056  25.004  0.00  0.00    +0.008 A 
ATOM     20  C   UNL     1      -0.456   1.093  23.044  0.00  0.00    +0.023 A 
ATOM     21  C   UNL     1       0.425   2.328  24.925  0.00  0.00    +0.023 A 
ATOM     22  C   UNL     1       0.578   1.347  23.945  0.00  0.00    +0.034 A 
BRANCH  22   8
ATOM      5  O   UNL     1       3.219   2.074  22.724  0.00  0.00    -0.270 OA
ATOM      8  N   UNL     1       1.767   0.620  23.867  0.00  0.00    -0.282 N 
ATOM     27  C   UNL     1       2.979   1.008  23.282  0.00  0.00    +0.248 C 
ATOM     34  H   UNL     1       1.726  -0.281  24.334  0.00  0.00    +0.155 HD
BRANCH  27  28
ATOM      1 CL   UNL     1       8.044  -0.147  23.069  0.00  0.00    -0.062 Cl
ATOM      9  N   UNL     1       6.156  -1.848  23.578  0.00  0.00    -0.244 NA
ATOM     28  C   UNL     1       4.082   0.018  23.385  0.00  0.00    +0.041 A 
ATOM     29  C   UNL     1       5.400   0.416  23.188  0.00  0.00    +0.053 A 
ATOM     30  C   UNL     1       3.800  -1.313  23.676  0.00  0.00    +0.033 A 
ATOM     31  C   UNL     1       6.391  -0.547  23.295  0.00  0.00    +0.130 A 
ATOM     32  C   UNL     1       4.862  -2.198  23.761  0.00  0.00    +0.113 A 
ENDBRANCH  27  28
ENDBRANCH  22   8
ENDBRANCH  11  15
BRANCH  11   3
ATOM      3  O   UNL     1      -3.989   3.123  23.197  0.00  0.00    -0.385 OA
ATOM     33  H   UNL     1      -4.831   3.602  23.283  0.00  0.00    +0.210 HD
ENDBRANCH  11   3
TORSDOF 7
ENDMDL
