MODEL 1
REMARK VINA RESULT:      -2.3      0.000      0.000
REMARK  Name = 11912229
REMARK  10 active torsions:
REMARK  status: ('A' for Active; 'I' for Inactive)
REMARK    1  A    between atoms: N_4  and  C_17
REMARK    2  A    between atoms: N_5  and  C_18
REMARK    3  A    between atoms: N_5  and  C_19
REMARK    4  A    between atoms: C_7  and  C_13
REMARK    5  A    between atoms: C_8  and  C_12
REMARK    6  A    between atoms: C_12  and  C_14
REMARK    7  A    between atoms: C_13  and  C_16
REMARK    8  A    between atoms: C_17  and  C_20
REMARK    9  A    between atoms: C_17  and  C_21
REMARK   10  A    between atoms: C_18  and  C_22
REMARK                            x       y       z     vdW  Elec       q    Type
REMARK                         _______ _______ _______ _____ _____    ______ ____
ROOT
ATOM      1  O   UNL     1      -2.877   4.057  26.406  0.00  0.00    -0.253 OA
ATOM      3  N   UNL     1      -2.171   3.015  24.459  0.00  0.00    -0.285 N 
ATOM      4  N   UNL     1      -4.429   2.926  25.154  0.00  0.00    -0.297 N 
ATOM      7  C   UNL     1      -0.044   1.319  23.471  0.00  0.00    +0.004 C 
ATOM      8  C   UNL     1      -1.534   0.941  23.259  0.00  0.00    +0.010 C 
ATOM      9  C   UNL     1       0.146   2.229  24.698  0.00  0.00    +0.023 C 
ATOM     10  C   UNL     1      -2.392   2.218  23.243  0.00  0.00    +0.113 C 
ATOM     11  C   UNL     1      -0.784   3.440  24.645  0.00  0.00    +0.109 C 
ATOM     15  C   UNL     1      -3.141   3.382  25.406  0.00  0.00    +0.302 C 
ATOM     23  H   UNL     1      -4.634   2.336  24.363  0.00  0.00    +0.150 HD
ENDROOT
BRANCH   4  17
ATOM     17  C   UNL     1      -5.534   3.214  26.042  0.00  0.00    +0.068 C 
ATOM     20  C   UNL     1      -6.244   4.493  25.613  0.00  0.00    +0.027 C 
ATOM     21  C   UNL     1      -6.498   2.036  26.085  0.00  0.00    +0.027 C 
ENDBRANCH   4  17
BRANCH   8  12
ATOM     12  C   UNL     1      -2.077  -0.057  24.288  0.00  0.00    +0.002 C 
ATOM     14  C   UNL     1      -3.546  -0.339  24.053  0.00  0.00    +0.004 C 
ENDBRANCH   8  12
BRANCH   7  13
ATOM     13  C   UNL     1       0.879   0.102  23.556  0.00  0.00    +0.100 C 
BRANCH  13  16
ATOM      2  O   UNL     1       1.146  -0.625  21.287  0.00  0.00    -0.276 OA
ATOM      5  N   UNL     1       3.006   0.307  22.311  0.00  0.00    -0.291 N 
ATOM     16  C   UNL     1       1.672  -0.111  22.278  0.00  0.00    +0.216 C 
ATOM     19  C   UNL     1       3.898   0.171  21.165  0.00  0.00    +0.133 C 
BRANCH   5  18
ATOM     18  C   UNL     1       3.609   0.913  23.497  0.00  0.00    +0.226 C 
BRANCH  18  22
ATOM      6  N   UNL     1       6.029  -0.013  23.895  0.00  0.00    -0.195 NA
ATOM     22  C   UNL     1       4.958   0.396  23.718  0.00  0.00    +0.082 C 
ENDBRANCH  18  22
ENDBRANCH   5  18
ENDBRANCH  13  16
ENDBRANCH   7  13
TORSDOF 6
ENDMDL
MODEL 2
REMARK VINA RESULT:      -1.0      1.949      7.592
REMARK  Name = 11912229
REMARK  10 active torsions:
REMARK  status: ('A' for Active; 'I' for Inactive)
REMARK    1  A    between atoms: N_4  and  C_17
REMARK    2  A    between atoms: N_5  and  C_18
REMARK    3  A    between atoms: N_5  and  C_19
REMARK    4  A    between atoms: C_7  and  C_13
REMARK    5  A    between atoms: C_8  and  C_12
REMARK    6  A    between atoms: C_12  and  C_14
REMARK    7  A    between atoms: C_13  and  C_16
REMARK    8  A    between atoms: C_17  and  C_20
REMARK    9  A    between atoms: C_17  and  C_21
REMARK   10  A    between atoms: C_18  and  C_22
REMARK                            x       y       z     vdW  Elec       q    Type
REMARK                         _______ _______ _______ _____ _____    ______ ____
ROOT
ATOM      1  O   UNL     1       2.902  -1.347  23.503  0.00  0.00    -0.253 OA
ATOM      3  N   UNL     1       0.952  -0.130  23.197  0.00  0.00    -0.285 N 
ATOM      4  N   UNL     1       3.076   0.902  23.093  0.00  0.00    -0.297 N 
ATOM      7  C   UNL     1      -1.675   0.220  24.361  0.00  0.00    +0.004 C 
ATOM      8  C   UNL     1      -0.749   1.436  24.092  0.00  0.00    +0.010 C 
ATOM      9  C   UNL     1      -0.872  -1.081  24.543  0.00  0.00    +0.023 C 
ATOM     10  C   UNL     1       0.207   1.109  22.932  0.00  0.00    +0.113 C 
ATOM     11  C   UNL     1       0.100  -1.305  23.387  0.00  0.00    +0.109 C 
ATOM     15  C   UNL     1       2.348  -0.267  23.277  0.00  0.00    +0.302 C 
ATOM     23  H   UNL     1       2.621   1.791  22.956  0.00  0.00    +0.150 HD
ENDROOT
BRANCH   4  17
ATOM     17  C   UNL     1       4.521   0.925  23.154  0.00  0.00    +0.068 C 
ATOM     20  C   UNL     1       5.005   0.457  24.522  0.00  0.00    +0.027 C 
ATOM     21  C   UNL     1       5.111   0.072  22.039  0.00  0.00    +0.027 C 
ENDBRANCH   4  17
BRANCH   8  12
ATOM     12  C   UNL     1       0.041   1.902  25.321  0.00  0.00    +0.002 C 
ATOM     14  C   UNL     1      -0.390   3.288  25.754  0.00  0.00    +0.004 C 
ENDBRANCH   8  12
BRANCH   7  13
ATOM     13  C   UNL     1      -2.624   0.436  25.540  0.00  0.00    +0.100 C 
BRANCH  13  16
ATOM      2  O   UNL     1      -4.571  -0.691  24.712  0.00  0.00    -0.276 OA
ATOM      5  N   UNL     1      -4.812   1.553  25.248  0.00  0.00    -0.291 N 
ATOM     16  C   UNL     1      -4.084   0.365  25.126  0.00  0.00    +0.216 C 
ATOM     19  C   UNL     1      -6.223   1.645  24.892  0.00  0.00    +0.133 C 
BRANCH   5  18
ATOM     18  C   UNL     1      -4.214   2.792  25.741  0.00  0.00    +0.226 C 
BRANCH  18  22
ATOM      6  N   UNL     1      -3.582   4.379  23.753  0.00  0.00    -0.195 NA
ATOM     22  C   UNL     1      -3.863   3.678  24.633  0.00  0.00    +0.082 C 
ENDBRANCH  18  22
ENDBRANCH   5  18
ENDBRANCH  13  16
ENDBRANCH   7  13
TORSDOF 6
ENDMDL
MODEL 3
REMARK VINA RESULT:      -0.8      1.786      7.467
REMARK  Name = 11912229
REMARK  10 active torsions:
REMARK  status: ('A' for Active; 'I' for Inactive)
REMARK    1  A    between atoms: N_4  and  C_17
REMARK    2  A    between atoms: N_5  and  C_18
REMARK    3  A    between atoms: N_5  and  C_19
REMARK    4  A    between atoms: C_7  and  C_13
REMARK    5  A    between atoms: C_8  and  C_12
REMARK    6  A    between atoms: C_12  and  C_14
REMARK    7  A    between atoms: C_13  and  C_16
REMARK    8  A    between atoms: C_17  and  C_20
REMARK    9  A    between atoms: C_17  and  C_21
REMARK   10  A    between atoms: C_18  and  C_22
REMARK                            x       y       z     vdW  Elec       q    Type
REMARK                         _______ _______ _______ _____ _____    ______ ____
ROOT
ATOM      1  O   UNL     1       1.214  -0.474  22.178  0.00  0.00    -0.253 OA
ATOM      3  N   UNL     1       0.425   1.519  23.061  0.00  0.00    -0.285 N 
ATOM      4  N   UNL     1       2.689   0.880  23.292  0.00  0.00    -0.297 N 
ATOM      7  C   UNL     1      -1.795   2.566  24.597  0.00  0.00    +0.004 C 
ATOM      8  C   UNL     1      -0.327   2.834  25.024  0.00  0.00    +0.010 C 
ATOM      9  C   UNL     1      -1.920   1.280  23.759  0.00  0.00    +0.023 C 
ATOM     10  C   UNL     1       0.587   2.787  23.787  0.00  0.00    +0.113 C 
ATOM     11  C   UNL     1      -0.938   1.276  22.589  0.00  0.00    +0.109 C 
ATOM     15  C   UNL     1       1.428   0.572  22.799  0.00  0.00    +0.302 C 
ATOM     23  H   UNL     1       2.853   1.711  23.839  0.00  0.00    +0.150 HD
ENDROOT
BRANCH   4  17
ATOM     17  C   UNL     1       3.823   0.000  23.110  0.00  0.00    +0.068 C 
ATOM     20  C   UNL     1       5.108   0.682  23.567  0.00  0.00    +0.027 C 
ATOM     21  C   UNL     1       3.600  -1.310  23.853  0.00  0.00    +0.027 C 
ENDBRANCH   4  17
BRANCH   8  12
ATOM     12  C   UNL     1       0.191   1.882  26.109  0.00  0.00    +0.002 C 
ATOM     14  C   UNL     1       0.600   2.642  27.353  0.00  0.00    +0.004 C 
ENDBRANCH   8  12
BRANCH   7  13
ATOM     13  C   UNL     1      -2.768   2.539  25.774  0.00  0.00    +0.100 C 
BRANCH  13  16
ATOM      2  O   UNL     1      -4.660   3.791  24.999  0.00  0.00    -0.276 OA
ATOM      5  N   UNL     1      -4.978   1.518  25.334  0.00  0.00    -0.291 N 
ATOM     16  C   UNL     1      -4.214   2.689  25.333  0.00  0.00    +0.216 C 
ATOM     19  C   UNL     1      -6.381   1.499  24.936  0.00  0.00    +0.133 C 
BRANCH   5  18
ATOM     18  C   UNL     1      -4.428   0.224  25.734  0.00  0.00    +0.226 C 
BRANCH  18  22
ATOM      6  N   UNL     1      -4.313  -1.412  23.688  0.00  0.00    -0.195 NA
ATOM     22  C   UNL     1      -4.362  -0.689  24.594  0.00  0.00    +0.082 C 
ENDBRANCH  18  22
ENDBRANCH   5  18
ENDBRANCH  13  16
ENDBRANCH   7  13
TORSDOF 6
ENDMDL
MODEL 4
REMARK VINA RESULT:      -0.3      1.968      7.361
REMARK  Name = 11912229
REMARK  10 active torsions:
REMARK  status: ('A' for Active; 'I' for Inactive)
REMARK    1  A    between atoms: N_4  and  C_17
REMARK    2  A    between atoms: N_5  and  C_18
REMARK    3  A    between atoms: N_5  and  C_19
REMARK    4  A    between atoms: C_7  and  C_13
REMARK    5  A    between atoms: C_8  and  C_12
REMARK    6  A    between atoms: C_12  and  C_14
REMARK    7  A    between atoms: C_13  and  C_16
REMARK    8  A    between atoms: C_17  and  C_20
REMARK    9  A    between atoms: C_17  and  C_21
REMARK   10  A    between atoms: C_18  and  C_22
REMARK                            x       y       z     vdW  Elec       q    Type
REMARK                         _______ _______ _______ _____ _____    ______ ____
ROOT
ATOM      1  O   UNL     1       2.474   1.726  22.550  0.00  0.00    -0.253 OA
ATOM      3  N   UNL     1       0.795   1.273  24.083  0.00  0.00    -0.285 N 
ATOM      4  N   UNL     1       2.674  -0.145  23.859  0.00  0.00    -0.297 N 
ATOM      7  C   UNL     1      -2.091   1.182  24.283  0.00  0.00    +0.004 C 
ATOM      8  C   UNL     1      -1.219  -0.024  24.720  0.00  0.00    +0.010 C 
ATOM      9  C   UNL     1      -1.375   2.054  23.235  0.00  0.00    +0.023 C 
ATOM     10  C   UNL     1       0.172   0.472  25.148  0.00  0.00    +0.113 C 
ATOM     11  C   UNL     1       0.023   2.455  23.701  0.00  0.00    +0.109 C 
ATOM     15  C   UNL     1       2.014   1.003  23.439  0.00  0.00    +0.302 C 
ATOM     23  H   UNL     1       2.274  -0.760  24.551  0.00  0.00    +0.150 HD
ENDROOT
BRANCH   4  17
ATOM     17  C   UNL     1       3.935  -0.561  23.285  0.00  0.00    +0.068 C 
ATOM     20  C   UNL     1       4.984   0.533  23.451  0.00  0.00    +0.027 C 
ATOM     21  C   UNL     1       4.397  -1.868  23.914  0.00  0.00    +0.027 C 
ENDBRANCH   4  17
BRANCH   8  12
ATOM     12  C   UNL     1      -1.093  -1.121  23.656  0.00  0.00    +0.002 C 
ATOM     14  C   UNL     1      -1.675  -2.429  24.147  0.00  0.00    +0.004 C 
ENDBRANCH   8  12
BRANCH   7  13
ATOM     13  C   UNL     1      -3.478   0.774  23.787  0.00  0.00    +0.100 C 
BRANCH  13  16
ATOM      2  O   UNL     1      -4.706  -0.480  25.421  0.00  0.00    -0.276 OA
ATOM      5  N   UNL     1      -5.100   1.805  25.345  0.00  0.00    -0.291 N 
ATOM     16  C   UNL     1      -4.477   0.626  24.922  0.00  0.00    +0.216 C 
ATOM     19  C   UNL     1      -6.082   1.828  26.423  0.00  0.00    +0.133 C 
BRANCH   5  18
ATOM     18  C   UNL     1      -4.814   3.103  24.739  0.00  0.00    +0.226 C 
BRANCH  18  22
ATOM      6  N   UNL     1      -2.995   4.395  26.116  0.00  0.00    -0.195 NA
ATOM     22  C   UNL     1      -3.800   3.825  25.506  0.00  0.00    +0.082 C 
ENDBRANCH  18  22
ENDBRANCH   5  18
ENDBRANCH  13  16
ENDBRANCH   7  13
TORSDOF 6
ENDMDL
MODEL 5
REMARK VINA RESULT:      -0.1      2.485      6.981
REMARK  Name = 11912229
REMARK  10 active torsions:
REMARK  status: ('A' for Active; 'I' for Inactive)
REMARK    1  A    between atoms: N_4  and  C_17
REMARK    2  A    between atoms: N_5  and  C_18
REMARK    3  A    between atoms: N_5  and  C_19
REMARK    4  A    between atoms: C_7  and  C_13
REMARK    5  A    between atoms: C_8  and  C_12
REMARK    6  A    between atoms: C_12  and  C_14
REMARK    7  A    between atoms: C_13  and  C_16
REMARK    8  A    between atoms: C_17  and  C_20
REMARK    9  A    between atoms: C_17  and  C_21
REMARK   10  A    between atoms: C_18  and  C_22
REMARK                            x       y       z     vdW  Elec       q    Type
REMARK                         _______ _______ _______ _____ _____    ______ ____
ROOT
ATOM      1  O   UNL     1      -0.146  -0.627  25.411  0.00  0.00    -0.253 OA
ATOM      3  N   UNL     1      -2.193  -0.551  24.326  0.00  0.00    -0.285 N 
ATOM      4  N   UNL     1      -0.160  -0.391  23.131  0.00  0.00    -0.297 N 
ATOM      7  C   UNL     1      -4.794   0.703  24.536  0.00  0.00    +0.004 C 
ATOM      8  C   UNL     1      -3.974   0.773  23.220  0.00  0.00    +0.010 C 
ATOM      9  C   UNL     1      -3.887   0.501  25.764  0.00  0.00    +0.023 C 
ATOM     10  C   UNL     1      -3.040  -0.446  23.128  0.00  0.00    +0.113 C 
ATOM     11  C   UNL     1      -2.945  -0.686  25.574  0.00  0.00    +0.109 C 
ATOM     15  C   UNL     1      -0.789  -0.533  24.361  0.00  0.00    +0.302 C 
ATOM     23  H   UNL     1      -0.686  -0.267  22.280  0.00  0.00    +0.150 HD
ENDROOT
BRANCH   4  17
ATOM     17  C   UNL     1       1.281  -0.347  23.005  0.00  0.00    +0.068 C 
ATOM     20  C   UNL     1       1.697  -0.562  21.554  0.00  0.00    +0.027 C 
ATOM     21  C   UNL     1       1.818   0.972  23.543  0.00  0.00    +0.027 C 
ENDBRANCH   4  17
BRANCH   8  12
ATOM     12  C   UNL     1      -3.177   2.072  23.050  0.00  0.00    +0.002 C 
ATOM     14  C   UNL     1      -2.451   2.098  21.721  0.00  0.00    +0.004 C 
ENDBRANCH   8  12
BRANCH   7  13
ATOM     13  C   UNL     1      -5.712   1.909  24.737  0.00  0.00    +0.100 C 
BRANCH  13  16
ATOM      2  O   UNL     1      -6.023   2.398  27.063  0.00  0.00    -0.276 OA
ATOM      5  N   UNL     1      -4.411   3.633  25.943  0.00  0.00    -0.291 N 
ATOM     16  C   UNL     1      -5.409   2.657  26.024  0.00  0.00    +0.216 C 
ATOM     19  C   UNL     1      -4.007   4.436  27.091  0.00  0.00    +0.133 C 
BRANCH   5  18
ATOM     18  C   UNL     1      -3.698   3.923  24.700  0.00  0.00    +0.226 C 
BRANCH  18  22
ATOM      6  N   UNL     1      -1.295   4.848  25.195  0.00  0.00    -0.195 NA
ATOM     22  C   UNL     1      -2.359   4.440  24.977  0.00  0.00    +0.082 C 
ENDBRANCH  18  22
ENDBRANCH   5  18
ENDBRANCH  13  16
ENDBRANCH   7  13
TORSDOF 6
ENDMDL
MODEL 6
REMARK VINA RESULT:       0.1      2.158      7.184
REMARK  Name = 11912229
REMARK  10 active torsions:
REMARK  status: ('A' for Active; 'I' for Inactive)
REMARK    1  A    between atoms: N_4  and  C_17
REMARK    2  A    between atoms: N_5  and  C_18
REMARK    3  A    between atoms: N_5  and  C_19
REMARK    4  A    between atoms: C_7  and  C_13
REMARK    5  A    between atoms: C_8  and  C_12
REMARK    6  A    between atoms: C_12  and  C_14
REMARK    7  A    between atoms: C_13  and  C_16
REMARK    8  A    between atoms: C_17  and  C_20
REMARK    9  A    between atoms: C_17  and  C_21
REMARK   10  A    between atoms: C_18  and  C_22
REMARK                            x       y       z     vdW  Elec       q    Type
REMARK                         _______ _______ _______ _____ _____    ______ ____
ROOT
ATOM      1  O   UNL     1       0.871   1.851  23.802  0.00  0.00    -0.253 OA
ATOM      3  N   UNL     1      -0.670   0.676  25.075  0.00  0.00    -0.285 N 
ATOM      4  N   UNL     1       0.906  -0.439  23.711  0.00  0.00    -0.297 N 
ATOM      7  C   UNL     1      -3.488   0.671  25.738  0.00  0.00    +0.004 C 
ATOM      8  C   UNL     1      -2.785  -0.610  25.214  0.00  0.00    +0.010 C 
ATOM      9  C   UNL     1      -2.763   1.949  25.278  0.00  0.00    +0.023 C 
ATOM     10  C   UNL     1      -1.290  -0.561  25.572  0.00  0.00    +0.113 C 
ATOM     11  C   UNL     1      -1.273   1.897  25.609  0.00  0.00    +0.109 C 
ATOM     15  C   UNL     1       0.403   0.770  24.173  0.00  0.00    +0.302 C 
ATOM     23  H   UNL     1       0.493  -1.319  23.977  0.00  0.00    +0.150 HD
ENDROOT
BRANCH   4  17
ATOM     17  C   UNL     1       2.004  -0.506  22.772  0.00  0.00    +0.068 C 
ATOM     20  C   UNL     1       1.485  -0.469  21.339  0.00  0.00    +0.027 C 
ATOM     21  C   UNL     1       2.991   0.625  23.030  0.00  0.00    +0.027 C 
ENDBRANCH   4  17
BRANCH   8  12
ATOM     12  C   UNL     1      -2.968  -0.851  23.711  0.00  0.00    +0.002 C 
ATOM     14  C   UNL     1      -4.010  -1.918  23.451  0.00  0.00    +0.004 C 
ENDBRANCH   8  12
BRANCH   7  13
ATOM     13  C   UNL     1      -4.972   0.733  25.377  0.00  0.00    +0.100 C 
BRANCH  13  16
ATOM      2  O   UNL     1      -6.317   1.882  26.995  0.00  0.00    -0.276 OA
ATOM      5  N   UNL     1      -5.485   3.149  25.240  0.00  0.00    -0.291 N 
ATOM     16  C   UNL     1      -5.656   1.960  25.955  0.00  0.00    +0.216 C 
ATOM     19  C   UNL     1      -6.078   4.411  25.666  0.00  0.00    +0.133 C 
BRANCH   5  18
ATOM     18  C   UNL     1      -4.698   3.217  24.010  0.00  0.00    +0.226 C 
BRANCH  18  22
ATOM      6  N   UNL     1      -2.789   5.003  24.218  0.00  0.00    -0.195 NA
ATOM     22  C   UNL     1      -3.635   4.214  24.127  0.00  0.00    +0.082 C 
ENDBRANCH  18  22
ENDBRANCH   5  18
ENDBRANCH  13  16
ENDBRANCH   7  13
TORSDOF 6
ENDMDL
MODEL 7
REMARK VINA RESULT:       0.2      1.514      2.458
REMARK  Name = 11912229
REMARK  10 active torsions:
REMARK  status: ('A' for Active; 'I' for Inactive)
REMARK    1  A    between atoms: N_4  and  C_17
REMARK    2  A    between atoms: N_5  and  C_18
REMARK    3  A    between atoms: N_5  and  C_19
REMARK    4  A    between atoms: C_7  and  C_13
REMARK    5  A    between atoms: C_8  and  C_12
REMARK    6  A    between atoms: C_12  and  C_14
REMARK    7  A    between atoms: C_13  and  C_16
REMARK    8  A    between atoms: C_17  and  C_20
REMARK    9  A    between atoms: C_17  and  C_21
REMARK   10  A    between atoms: C_18  and  C_22
REMARK                            x       y       z     vdW  Elec       q    Type
REMARK                         _______ _______ _______ _____ _____    ______ ____
ROOT
ATOM      1  O   UNL     1      -4.436   0.425  24.204  0.00  0.00    -0.253 OA
ATOM      3  N   UNL     1      -2.415   0.917  25.229  0.00  0.00    -0.285 N 
ATOM      4  N   UNL     1      -4.323   2.274  25.554  0.00  0.00    -0.297 N 
ATOM      7  C   UNL     1       0.412   1.100  24.634  0.00  0.00    +0.004 C 
ATOM      8  C   UNL     1      -0.341   2.272  25.317  0.00  0.00    +0.010 C 
ATOM      9  C   UNL     1      -0.538   0.217  23.805  0.00  0.00    +0.023 C 
ATOM     10  C   UNL     1      -1.548   1.725  26.099  0.00  0.00    +0.113 C 
ATOM     11  C   UNL     1      -1.743  -0.235  24.627  0.00  0.00    +0.109 C 
ATOM     15  C   UNL     1      -3.771   1.153  24.947  0.00  0.00    +0.302 C 
ATOM     23  H   UNL     1      -3.767   2.895  26.122  0.00  0.00    +0.150 HD
ENDROOT
BRANCH   4  17
ATOM     17  C   UNL     1      -5.704   2.655  25.354  0.00  0.00    +0.068 C 
ATOM     20  C   UNL     1      -6.608   1.922  26.340  0.00  0.00    +0.027 C 
ATOM     21  C   UNL     1      -5.861   4.164  25.480  0.00  0.00    +0.027 C 
ENDBRANCH   4  17
BRANCH   8  12
ATOM     12  C   UNL     1      -0.786   3.375  24.349  0.00  0.00    +0.002 C 
ATOM     14  C   UNL     1      -1.321   4.577  25.099  0.00  0.00    +0.004 C 
ENDBRANCH   8  12
BRANCH   7  13
ATOM     13  C   UNL     1       1.598   1.559  23.787  0.00  0.00    +0.100 C 
BRANCH  13  16
ATOM      2  O   UNL     1       1.036  -0.049  22.099  0.00  0.00    -0.276 OA
ATOM      5  N   UNL     1       3.287   0.438  22.369  0.00  0.00    -0.291 N 
ATOM     16  C   UNL     1       1.930   0.576  22.677  0.00  0.00    +0.216 C 
ATOM     19  C   UNL     1       3.766  -0.464  21.329  0.00  0.00    +0.133 C 
BRANCH   5  18
ATOM     18  C   UNL     1       4.329   1.189  23.067  0.00  0.00    +0.226 C 
BRANCH  18  22
ATOM      6  N   UNL     1       5.850  -0.415  24.477  0.00  0.00    -0.195 NA
ATOM     22  C   UNL     1       5.176   0.295  23.854  0.00  0.00    +0.082 C 
ENDBRANCH  18  22
ENDBRANCH   5  18
ENDBRANCH  13  16
ENDBRANCH   7  13
TORSDOF 6
ENDMDL
MODEL 8
REMARK VINA RESULT:       0.4      1.887      7.302
REMARK  Name = 11912229
REMARK  10 active torsions:
REMARK  status: ('A' for Active; 'I' for Inactive)
REMARK    1  A    between atoms: N_4  and  C_17
REMARK    2  A    between atoms: N_5  and  C_18
REMARK    3  A    between atoms: N_5  and  C_19
REMARK    4  A    between atoms: C_7  and  C_13
REMARK    5  A    between atoms: C_8  and  C_12
REMARK    6  A    between atoms: C_12  and  C_14
REMARK    7  A    between atoms: C_13  and  C_16
REMARK    8  A    between atoms: C_17  and  C_20
REMARK    9  A    between atoms: C_17  and  C_21
REMARK   10  A    between atoms: C_18  and  C_22
REMARK                            x       y       z     vdW  Elec       q    Type
REMARK                         _______ _______ _______ _____ _____    ______ ____
ROOT
ATOM      1  O   UNL     1       2.564   1.997  23.526  0.00  0.00    -0.253 OA
ATOM      3  N   UNL     1       0.520   1.470  24.485  0.00  0.00    -0.285 N 
ATOM      4  N   UNL     1       1.786  -0.149  23.317  0.00  0.00    -0.297 N 
ATOM      7  C   UNL     1      -2.179   2.495  24.711  0.00  0.00    +0.004 C 
ATOM      8  C   UNL     1      -1.910   1.044  24.231  0.00  0.00    +0.010 C 
ATOM      9  C   UNL     1      -0.978   3.419  24.436  0.00  0.00    +0.023 C 
ATOM     10  C   UNL     1      -0.576   0.546  24.814  0.00  0.00    +0.113 C 
ATOM     11  C   UNL     1       0.319   2.830  24.986  0.00  0.00    +0.109 C 
ATOM     15  C   UNL     1       1.684   1.163  23.763  0.00  0.00    +0.302 C 
ATOM     23  H   UNL     1       1.046  -0.817  23.470  0.00  0.00    +0.150 HD
ENDROOT
BRANCH   4  17
ATOM     17  C   UNL     1       2.922  -0.616  22.553  0.00  0.00    +0.068 C 
ATOM     20  C   UNL     1       3.386   0.458  21.575  0.00  0.00    +0.027 C 
ATOM     21  C   UNL     1       4.050  -1.036  23.486  0.00  0.00    +0.027 C 
ENDBRANCH   4  17
BRANCH   8  12
ATOM     12  C   UNL     1      -1.923   0.879  22.707  0.00  0.00    +0.002 C 
ATOM     14  C   UNL     1      -2.582   2.065  22.034  0.00  0.00    +0.004 C 
ENDBRANCH   8  12
BRANCH   7  13
ATOM     13  C   UNL     1      -3.461   3.092  24.133  0.00  0.00    +0.100 C 
BRANCH  13  16
ATOM      2  O   UNL     1      -4.785   4.183  25.808  0.00  0.00    -0.276 OA
ATOM      5  N   UNL     1      -5.344   1.990  25.299  0.00  0.00    -0.291 N 
ATOM     16  C   UNL     1      -4.582   3.154  25.156  0.00  0.00    +0.216 C 
ATOM     19  C   UNL     1      -6.454   1.892  26.240  0.00  0.00    +0.133 C 
BRANCH   5  18
ATOM     18  C   UNL     1      -5.085   0.783  24.517  0.00  0.00    +0.226 C 
BRANCH  18  22
ATOM      6  N   UNL     1      -3.846  -1.017  25.965  0.00  0.00    -0.195 NA
ATOM     22  C   UNL     1      -4.394  -0.222  25.323  0.00  0.00    +0.082 C 
ENDBRANCH  18  22
ENDBRANCH   5  18
ENDBRANCH  13  16
ENDBRANCH   7  13
TORSDOF 6
ENDMDL
MODEL 9
REMARK VINA RESULT:       1.1      1.661      7.820
REMARK  Name = 11912229
REMARK  10 active torsions:
REMARK  status: ('A' for Active; 'I' for Inactive)
REMARK    1  A    between atoms: N_4  and  C_17
REMARK    2  A    between atoms: N_5  and  C_18
REMARK    3  A    between atoms: N_5  and  C_19
REMARK    4  A    between atoms: C_7  and  C_13
REMARK    5  A    between atoms: C_8  and  C_12
REMARK    6  A    between atoms: C_12  and  C_14
REMARK    7  A    between atoms: C_13  and  C_16
REMARK    8  A    between atoms: C_17  and  C_20
REMARK    9  A    between atoms: C_17  and  C_21
REMARK   10  A    between atoms: C_18  and  C_22
REMARK                            x       y       z     vdW  Elec       q    Type
REMARK                         _______ _______ _______ _____ _____    ______ ____
ROOT
ATOM      1  O   UNL     1       1.237  -1.302  23.848  0.00  0.00    -0.253 OA
ATOM      3  N   UNL     1      -0.243   0.465  23.599  0.00  0.00    -0.285 N 
ATOM      4  N   UNL     1       1.972   0.590  22.782  0.00  0.00    -0.297 N 
ATOM      7  C   UNL     1      -2.183   1.992  25.111  0.00  0.00    +0.004 C 
ATOM      8  C   UNL     1      -1.044   2.696  24.325  0.00  0.00    +0.010 C 
ATOM      9  C   UNL     1      -1.804   0.551  25.496  0.00  0.00    +0.023 C 
ATOM     10  C   UNL     1      -0.612   1.813  23.142  0.00  0.00    +0.113 C 
ATOM     11  C   UNL     1      -1.324  -0.245  24.284  0.00  0.00    +0.109 C 
ATOM     15  C   UNL     1       1.003  -0.162  23.435  0.00  0.00    +0.302 C 
ATOM     23  H   UNL     1       1.795   1.538  22.488  0.00  0.00    +0.150 HD
ENDROOT
BRANCH   4  17
ATOM     17  C   UNL     1       3.307   0.085  22.546  0.00  0.00    +0.068 C 
ATOM     20  C   UNL     1       4.317   1.227  22.546  0.00  0.00    +0.027 C 
ATOM     21  C   UNL     1       3.665  -0.969  23.585  0.00  0.00    +0.027 C 
ENDBRANCH   4  17
BRANCH   8  12
ATOM     12  C   UNL     1       0.168   3.071  25.185  0.00  0.00    +0.002 C 
ATOM     14  C   UNL     1       0.100   2.408  26.545  0.00  0.00    +0.004 C 
ENDBRANCH   8  12
BRANCH   7  13
ATOM     13  C   UNL     1      -2.638   2.777  26.341  0.00  0.00    +0.100 C 
BRANCH  13  16
ATOM      2  O   UNL     1      -3.078   5.125  26.147  0.00  0.00    -0.276 OA
ATOM      5  N   UNL     1      -4.758   3.687  25.449  0.00  0.00    -0.291 N 
ATOM     16  C   UNL     1      -3.496   3.976  25.977  0.00  0.00    +0.216 C 
ATOM     19  C   UNL     1      -5.698   4.728  25.052  0.00  0.00    +0.133 C 
BRANCH   5  18
ATOM     18  C   UNL     1      -5.232   2.317  25.257  0.00  0.00    +0.226 C 
BRANCH  18  22
ATOM      6  N   UNL     1      -6.952   1.657  27.123  0.00  0.00    -0.195 NA
ATOM     22  C   UNL     1      -6.191   1.948  26.296  0.00  0.00    +0.082 C 
ENDBRANCH  18  22
ENDBRANCH   5  18
ENDBRANCH  13  16
ENDBRANCH   7  13
TORSDOF 6
ENDMDL
MODEL 10
REMARK VINA RESULT:       1.3      2.011      2.921
REMARK  Name = 11912229
REMARK  10 active torsions:
REMARK  status: ('A' for Active; 'I' for Inactive)
REMARK    1  A    between atoms: N_4  and  C_17
REMARK    2  A    between atoms: N_5  and  C_18
REMARK    3  A    between atoms: N_5  and  C_19
REMARK    4  A    between atoms: C_7  and  C_13
REMARK    5  A    between atoms: C_8  and  C_12
REMARK    6  A    between atoms: C_12  and  C_14
REMARK    7  A    between atoms: C_13  and  C_16
REMARK    8  A    between atoms: C_17  and  C_20
REMARK    9  A    between atoms: C_17  and  C_21
REMARK   10  A    between atoms: C_18  and  C_22
REMARK                            x       y       z     vdW  Elec       q    Type
REMARK                         _______ _______ _______ _____ _____    ______ ____
ROOT
ATOM      1  O   UNL     1      -4.861   0.228  23.904  0.00  0.00    -0.253 OA
ATOM      3  N   UNL     1      -3.124  -0.465  25.274  0.00  0.00    -0.285 N 
ATOM      4  N   UNL     1      -4.287   1.551  25.686  0.00  0.00    -0.297 N 
ATOM      7  C   UNL     1      -0.437  -1.532  25.118  0.00  0.00    +0.004 C 
ATOM      8  C   UNL     1      -0.753  -0.277  25.975  0.00  0.00    +0.010 C 
ATOM      9  C   UNL     1      -1.451  -1.712  23.974  0.00  0.00    +0.023 C 
ATOM     10  C   UNL     1      -2.223  -0.318  26.427  0.00  0.00    +0.113 C 
ATOM     11  C   UNL     1      -2.888  -1.678  24.489  0.00  0.00    +0.109 C 
ATOM     15  C   UNL     1      -4.142   0.422  24.889  0.00  0.00    +0.302 C 
ATOM     23  H   UNL     1      -3.669   1.732  26.462  0.00  0.00    +0.150 HD
ENDROOT
BRANCH   4  17
ATOM     17  C   UNL     1      -5.285   2.562  25.413  0.00  0.00    +0.068 C 
ATOM     20  C   UNL     1      -4.738   3.605  24.446  0.00  0.00    +0.027 C 
ATOM     21  C   UNL     1      -6.554   1.918  24.870  0.00  0.00    +0.027 C 
ENDBRANCH   4  17
BRANCH   8  12
ATOM     12  C   UNL     1      -0.445   1.051  25.273  0.00  0.00    +0.002 C 
ATOM     14  C   UNL     1      -0.287   2.175  26.276  0.00  0.00    +0.004 C 
ENDBRANCH   8  12
BRANCH   7  13
ATOM     13  C   UNL     1       0.993  -1.546  24.578  0.00  0.00    +0.100 C 
BRANCH  13  16
ATOM      2  O   UNL     1       0.190  -0.082  22.857  0.00  0.00    -0.276 OA
ATOM      5  N   UNL     1       2.475  -0.479  22.910  0.00  0.00    -0.291 N 
ATOM     16  C   UNL     1       1.165  -0.636  23.374  0.00  0.00    +0.216 C 
ATOM     19  C   UNL     1       2.803   0.362  21.765  0.00  0.00    +0.133 C 
BRANCH   5  18
ATOM     18  C   UNL     1       3.614  -1.145  23.538  0.00  0.00    +0.226 C 
BRANCH  18  22
ATOM      6  N   UNL     1       5.701   0.441  23.602  0.00  0.00    -0.195 NA
ATOM     22  C   UNL     1       4.779  -0.262  23.574  0.00  0.00    +0.082 C 
ENDBRANCH  18  22
ENDBRANCH   5  18
ENDBRANCH  13  16
ENDBRANCH   7  13
TORSDOF 6
ENDMDL
