MODEL 1
REMARK VINA RESULT:      -3.7      0.000      0.000
REMARK  Name = 7161627
REMARK  7 active torsions:
REMARK  status: ('A' for Active; 'I' for Inactive)
REMARK    1  A    between atoms: O_2  and  C_19
REMARK    2  A    between atoms: O_2  and  C_22
REMARK    3  A    between atoms: O_5  and  C_21
REMARK    4  A    between atoms: O_5  and  C_23
REMARK    5  A    between atoms: C_8  and  C_15
REMARK    6  A    between atoms: C_13  and  C_19
REMARK    7  A    between atoms: C_20  and  C_21
REMARK                            x       y       z     vdW  Elec       q    Type
REMARK                         _______ _______ _______ _____ _____    ______ ____
ROOT
ATOM      1  O   UNL     1       0.923  -0.707  21.980  0.00  0.00    -0.275 OA
ATOM      4  O   UNL     1      -2.396   4.195  26.037  0.00  0.00    -0.273 OA
ATOM      6  N   UNL     1       0.189   0.879  23.515  0.00  0.00    -0.285 N 
ATOM      7  N   UNL     1      -1.715   2.863  24.260  0.00  0.00    -0.296 N 
ATOM     13  C   UNL     1      -1.221   0.707  23.139  0.00  0.00    +0.202 C 
ATOM     15  C   UNL     1       1.152   0.058  22.919  0.00  0.00    +0.219 C 
ATOM     16  C   UNL     1       0.460   1.794  24.637  0.00  0.00    +0.127 C 
ATOM     17  C   UNL     1      -2.001   2.021  23.094  0.00  0.00    +0.141 C 
ATOM     18  C   UNL     1      -0.294   3.108  24.487  0.00  0.00    +0.127 C 
ATOM     20  C   UNL     1      -2.668   3.453  25.090  0.00  0.00    +0.241 C 
ENDROOT
BRANCH  15   8
ATOM      8  C   UNL     1       2.543   0.140  23.476  0.00  0.00    +0.075 C 
ATOM      9  C   UNL     1       3.379   1.118  22.648  0.00  0.00    +0.013 C 
ATOM     10  C   UNL     1       3.176  -1.253  23.504  0.00  0.00    +0.013 C 
ATOM     11  C   UNL     1       4.830   1.162  23.121  0.00  0.00    +0.001 C 
ATOM     12  C   UNL     1       4.627  -1.204  23.976  0.00  0.00    +0.001 C 
ATOM     14  C   UNL     1       5.456  -0.229  23.145  0.00  0.00    +0.000 C 
ENDBRANCH  15   8
BRANCH  13  19
ATOM      3  O   UNL     1      -1.156  -1.032  24.806  0.00  0.00    -0.249 OA
ATOM     19  C   UNL     1      -1.814  -0.255  24.128  0.00  0.00    +0.329 C 
BRANCH  19   2
ATOM      2  O   UNL     1      -3.170  -0.117  24.141  0.00  0.00    -0.467 OA
ATOM     22  C   UNL     1      -3.834  -0.668  25.283  0.00  0.00    +0.280 C 
ENDBRANCH  19   2
ENDBRANCH  13  19
BRANCH  20  21
ATOM     21  C   UNL     1      -4.112   3.143  24.786  0.00  0.00    +0.255 C 
BRANCH  21   5
ATOM      5  O   UNL     1      -4.780   3.084  26.022  0.00  0.00    -0.374 OA
ATOM     23  C   UNL     1      -5.955   2.279  25.959  0.00  0.00    +0.194 C 
ENDBRANCH  21   5
ENDBRANCH  20  21
TORSDOF 5
ENDMDL
MODEL 2
REMARK VINA RESULT:      -1.4     18.141     19.381
REMARK  Name = 7161627
REMARK  7 active torsions:
REMARK  status: ('A' for Active; 'I' for Inactive)
REMARK    1  A    between atoms: O_2  and  C_19
REMARK    2  A    between atoms: O_2  and  C_22
REMARK    3  A    between atoms: O_5  and  C_21
REMARK    4  A    between atoms: O_5  and  C_23
REMARK    5  A    between atoms: C_8  and  C_15
REMARK    6  A    between atoms: C_13  and  C_19
REMARK    7  A    between atoms: C_20  and  C_21
REMARK                            x       y       z     vdW  Elec       q    Type
REMARK                         _______ _______ _______ _____ _____    ______ ____
ROOT
ATOM      1  O   UNL     1      14.933  -7.289  25.969  0.00  0.00    -0.275 OA
ATOM      4  O   UNL     1      17.381  -5.452  32.461  0.00  0.00    -0.273 OA
ATOM      6  N   UNL     1      16.037  -6.527  27.870  0.00  0.00    -0.285 N 
ATOM      7  N   UNL     1      16.009  -6.010  30.672  0.00  0.00    -0.296 N 
ATOM     13  C   UNL     1      15.280  -7.415  28.763  0.00  0.00    +0.202 C 
ATOM     15  C   UNL     1      15.826  -6.616  26.491  0.00  0.00    +0.219 C 
ATOM     16  C   UNL     1      17.102  -5.725  28.495  0.00  0.00    +0.127 C 
ATOM     17  C   UNL     1      14.891  -6.756  30.087  0.00  0.00    +0.141 C 
ATOM     18  C   UNL     1      16.621  -5.041  29.767  0.00  0.00    +0.127 C 
ATOM     20  C   UNL     1      16.466  -6.127  31.984  0.00  0.00    +0.241 C 
ENDROOT
BRANCH  15   8
ATOM      8  C   UNL     1      16.757  -5.830  25.615  0.00  0.00    +0.075 C 
ATOM      9  C   UNL     1      16.541  -4.332  25.838  0.00  0.00    +0.013 C 
ATOM     10  C   UNL     1      16.544  -6.214  24.149  0.00  0.00    +0.013 C 
ATOM     11  C   UNL     1      17.402  -3.491  24.899  0.00  0.00    +0.001 C 
ATOM     12  C   UNL     1      17.405  -5.370  23.214  0.00  0.00    +0.001 C 
ATOM     14  C   UNL     1      17.185  -3.877  23.439  0.00  0.00    +0.000 C 
ENDBRANCH  15   8
BRANCH  13  19
ATOM      3  O   UNL     1      17.268  -8.599  29.435  0.00  0.00    -0.249 OA
ATOM     19  C   UNL     1      16.133  -8.632  28.981  0.00  0.00    +0.329 C 
BRANCH  19   2
ATOM      2  O   UNL     1      15.446  -9.744  28.596  0.00  0.00    -0.467 OA
ATOM     22  C   UNL     1      15.814 -10.286  27.324  0.00  0.00    +0.280 C 
ENDBRANCH  19   2
ENDBRANCH  13  19
BRANCH  20  21
ATOM     21  C   UNL     1      15.781  -7.156  32.847  0.00  0.00    +0.255 C 
BRANCH  21   5
ATOM      5  O   UNL     1      16.597  -8.301  32.835  0.00  0.00    -0.374 OA
ATOM     23  C   UNL     1      15.834  -9.505  32.868  0.00  0.00    +0.194 C 
ENDBRANCH  21   5
ENDBRANCH  20  21
TORSDOF 5
ENDMDL
MODEL 3
REMARK VINA RESULT:      -0.7     16.537     18.461
REMARK  Name = 7161627
REMARK  7 active torsions:
REMARK  status: ('A' for Active; 'I' for Inactive)
REMARK    1  A    between atoms: O_2  and  C_19
REMARK    2  A    between atoms: O_2  and  C_22
REMARK    3  A    between atoms: O_5  and  C_21
REMARK    4  A    between atoms: O_5  and  C_23
REMARK    5  A    between atoms: C_8  and  C_15
REMARK    6  A    between atoms: C_13  and  C_19
REMARK    7  A    between atoms: C_20  and  C_21
REMARK                            x       y       z     vdW  Elec       q    Type
REMARK                         _______ _______ _______ _____ _____    ______ ____
ROOT
ATOM      1  O   UNL     1      -6.372  -9.269   8.125  0.00  0.00    -0.275 OA
ATOM      4  O   UNL     1      -8.351  -9.576  15.017  0.00  0.00    -0.273 OA
ATOM      6  N   UNL     1      -7.259  -9.058  10.265  0.00  0.00    -0.285 N 
ATOM      7  N   UNL     1      -7.592 -10.117  12.890  0.00  0.00    -0.296 N 
ATOM     13  C   UNL     1      -6.169  -9.827  10.880  0.00  0.00    +0.202 C 
ATOM     15  C   UNL     1      -7.203  -8.783   8.895  0.00  0.00    +0.219 C 
ATOM     16  C   UNL     1      -8.251  -8.479  11.187  0.00  0.00    +0.127 C 
ATOM     17  C   UNL     1      -6.640 -10.771  11.986  0.00  0.00    +0.141 C 
ATOM     18  C   UNL     1      -8.729  -9.496  12.214  0.00  0.00    +0.127 C 
ATOM     20  C   UNL     1      -7.509 -10.096  14.281  0.00  0.00    +0.241 C 
ENDROOT
BRANCH  15   8
ATOM      8  C   UNL     1      -8.235  -7.836   8.357  0.00  0.00    +0.075 C 
ATOM      9  C   UNL     1      -8.008  -6.436   8.931  0.00  0.00    +0.013 C 
ATOM     10  C   UNL     1      -9.639  -8.353   8.682  0.00  0.00    +0.013 C 
ATOM     11  C   UNL     1      -9.093  -5.459   8.484  0.00  0.00    +0.001 C 
ATOM     12  C   UNL     1     -10.719  -7.372   8.235  0.00  0.00    +0.001 C 
ATOM     14  C   UNL     1     -10.489  -5.979   8.812  0.00  0.00    +0.000 C 
ENDBRANCH  15   8
BRANCH  13  19
ATOM      3  O   UNL     1      -5.286  -7.615  11.250  0.00  0.00    -0.249 OA
ATOM     19  C   UNL     1      -5.175  -8.825  11.393  0.00  0.00    +0.329 C 
BRANCH  19   2
ATOM      2  O   UNL     1      -4.159  -9.475  12.028  0.00  0.00    -0.467 OA
ATOM     22  C   UNL     1      -3.009  -9.754  11.222  0.00  0.00    +0.280 C 
ENDBRANCH  19   2
ENDBRANCH  13  19
BRANCH  20  21
ATOM     21  C   UNL     1      -6.300 -10.756  14.895  0.00  0.00    +0.255 C 
BRANCH  21   5
ATOM      5  O   UNL     1      -5.819  -9.878  15.882  0.00  0.00    -0.374 OA
ATOM     23  C   UNL     1      -5.132 -10.567  16.924  0.00  0.00    +0.194 C 
ENDBRANCH  21   5
ENDBRANCH  20  21
TORSDOF 5
ENDMDL
MODEL 4
REMARK VINA RESULT:      -0.6      1.942      6.638
REMARK  Name = 7161627
REMARK  7 active torsions:
REMARK  status: ('A' for Active; 'I' for Inactive)
REMARK    1  A    between atoms: O_2  and  C_19
REMARK    2  A    between atoms: O_2  and  C_22
REMARK    3  A    between atoms: O_5  and  C_21
REMARK    4  A    between atoms: O_5  and  C_23
REMARK    5  A    between atoms: C_8  and  C_15
REMARK    6  A    between atoms: C_13  and  C_19
REMARK    7  A    between atoms: C_20  and  C_21
REMARK                            x       y       z     vdW  Elec       q    Type
REMARK                         _______ _______ _______ _____ _____    ______ ____
ROOT
ATOM      1  O   UNL     1      -3.288   2.145  24.248  0.00  0.00    -0.275 OA
ATOM      4  O   UNL     1       3.134  -0.889  23.220  0.00  0.00    -0.273 OA
ATOM      6  N   UNL     1      -1.375   0.832  24.083  0.00  0.00    -0.285 N 
ATOM      7  N   UNL     1       1.246   0.450  23.032  0.00  0.00    -0.296 N 
ATOM     13  C   UNL     1      -0.498   1.994  23.884  0.00  0.00    +0.202 C 
ATOM     15  C   UNL     1      -2.735   1.046  24.331  0.00  0.00    +0.219 C 
ATOM     16  C   UNL     1      -0.712  -0.479  24.182  0.00  0.00    +0.127 C 
ATOM     17  C   UNL     1       0.601   1.754  22.848  0.00  0.00    +0.141 C 
ATOM     18  C   UNL     1       0.317  -0.676  23.076  0.00  0.00    +0.127 C 
ATOM     20  C   UNL     1       2.619   0.226  23.111  0.00  0.00    +0.241 C 
ENDROOT
BRANCH  15   8
ATOM      8  C   UNL     1      -3.546  -0.155  24.717  0.00  0.00    +0.075 C 
ATOM      9  C   UNL     1      -2.793  -0.977  25.765  0.00  0.00    +0.013 C 
ATOM     10  C   UNL     1      -3.865  -0.990  23.474  0.00  0.00    +0.013 C 
ATOM     11  C   UNL     1      -3.539  -2.262  26.118  0.00  0.00    +0.001 C 
ATOM     12  C   UNL     1      -4.609  -2.274  23.833  0.00  0.00    +0.001 C 
ATOM     14  C   UNL     1      -3.853  -3.090  24.877  0.00  0.00    +0.000 C 
ENDBRANCH  15   8
BRANCH  13  19
ATOM      3  O   UNL     1       1.079   1.814  25.697  0.00  0.00    -0.249 OA
ATOM     19  C   UNL     1       0.075   2.333  25.230  0.00  0.00    +0.329 C 
BRANCH  19   2
ATOM      2  O   UNL     1      -0.693   3.290  25.824  0.00  0.00    -0.467 OA
ATOM     22  C   UNL     1      -0.903   4.477  25.052  0.00  0.00    +0.280 C 
ENDBRANCH  19   2
ENDBRANCH  13  19
BRANCH  20  21
ATOM     21  C   UNL     1       3.505   1.446  23.062  0.00  0.00    +0.255 C 
BRANCH  21   5
ATOM      5  O   UNL     1       4.795   0.993  22.735  0.00  0.00    -0.374 OA
ATOM     23  C   UNL     1       5.486   0.476  23.869  0.00  0.00    +0.194 C 
ENDBRANCH  21   5
ENDBRANCH  20  21
TORSDOF 5
ENDMDL
MODEL 5
REMARK VINA RESULT:      -0.2      1.636      7.215
REMARK  Name = 7161627
REMARK  7 active torsions:
REMARK  status: ('A' for Active; 'I' for Inactive)
REMARK    1  A    between atoms: O_2  and  C_19
REMARK    2  A    between atoms: O_2  and  C_22
REMARK    3  A    between atoms: O_5  and  C_21
REMARK    4  A    between atoms: O_5  and  C_23
REMARK    5  A    between atoms: C_8  and  C_15
REMARK    6  A    between atoms: C_13  and  C_19
REMARK    7  A    between atoms: C_20  and  C_21
REMARK                            x       y       z     vdW  Elec       q    Type
REMARK                         _______ _______ _______ _____ _____    ______ ____
ROOT
ATOM      1  O   UNL     1      -2.318   4.645  25.666  0.00  0.00    -0.275 OA
ATOM      4  O   UNL     1       0.963  -0.880  22.471  0.00  0.00    -0.273 OA
ATOM      6  N   UNL     1      -1.626   2.689  24.614  0.00  0.00    -0.285 N 
ATOM      7  N   UNL     1       0.405   1.239  23.237  0.00  0.00    -0.296 N 
ATOM     13  C   UNL     1      -0.216   2.902  24.970  0.00  0.00    +0.202 C 
ATOM     15  C   UNL     1      -2.586   3.589  25.088  0.00  0.00    +0.219 C 
ATOM     16  C   UNL     1      -1.943   1.427  23.924  0.00  0.00    +0.127 C 
ATOM     17  C   UNL     1       0.755   2.524  23.851  0.00  0.00    +0.141 C 
ATOM     18  C   UNL     1      -0.979   1.154  22.778  0.00  0.00    +0.127 C 
ATOM     20  C   UNL     1       1.277   0.172  23.032  0.00  0.00    +0.241 C 
ENDROOT
BRANCH  15   8
ATOM      8  C   UNL     1      -4.022   3.221  24.861  0.00  0.00    +0.075 C 
ATOM      9  C   UNL     1      -4.914   3.961  25.860  0.00  0.00    +0.013 C 
ATOM     10  C   UNL     1      -4.197   1.705  24.970  0.00  0.00    +0.013 C 
ATOM     11  C   UNL     1      -6.377   3.545  25.728  0.00  0.00    +0.001 C 
ATOM     12  C   UNL     1      -5.661   1.294  24.839  0.00  0.00    +0.001 C 
ATOM     14  C   UNL     1      -6.545   2.033  25.839  0.00  0.00    +0.000 C 
ENDBRANCH  15   8
BRANCH  13  19
ATOM      3  O   UNL     1      -0.529   1.050  26.480  0.00  0.00    -0.249 OA
ATOM     19  C   UNL     1       0.037   2.103  26.215  0.00  0.00    +0.329 C 
BRANCH  19   2
ATOM      2  O   UNL     1       0.976   2.731  26.978  0.00  0.00    -0.467 OA
ATOM     22  C   UNL     1       0.978   2.379  28.365  0.00  0.00    +0.280 C 
ENDBRANCH  19   2
ENDBRANCH  13  19
BRANCH  20  21
ATOM     21  C   UNL     1       2.686   0.344  23.543  0.00  0.00    +0.255 C 
BRANCH  21   5
ATOM      5  O   UNL     1       3.508   0.497  22.412  0.00  0.00    -0.374 OA
ATOM     23  C   UNL     1       4.892   0.397  22.738  0.00  0.00    +0.194 C 
ENDBRANCH  21   5
ENDBRANCH  20  21
TORSDOF 5
ENDMDL
MODEL 6
REMARK VINA RESULT:      -0.2     16.356     18.164
REMARK  Name = 7161627
REMARK  7 active torsions:
REMARK  status: ('A' for Active; 'I' for Inactive)
REMARK    1  A    between atoms: O_2  and  C_19
REMARK    2  A    between atoms: O_2  and  C_22
REMARK    3  A    between atoms: O_5  and  C_21
REMARK    4  A    between atoms: O_5  and  C_23
REMARK    5  A    between atoms: C_8  and  C_15
REMARK    6  A    between atoms: C_13  and  C_19
REMARK    7  A    between atoms: C_20  and  C_21
REMARK                            x       y       z     vdW  Elec       q    Type
REMARK                         _______ _______ _______ _____ _____    ______ ____
ROOT
ATOM      1  O   UNL     1      -4.625  -8.930  13.709  0.00  0.00    -0.275 OA
ATOM      4  O   UNL     1     -10.176 -10.775   9.553  0.00  0.00    -0.273 OA
ATOM      6  N   UNL     1      -6.507  -9.799  12.654  0.00  0.00    -0.285 N 
ATOM      7  N   UNL     1      -8.469  -9.598  10.597  0.00  0.00    -0.296 N 
ATOM     13  C   UNL     1      -6.133  -9.236  11.349  0.00  0.00    +0.202 C 
ATOM     15  C   UNL     1      -5.631  -9.642  13.733  0.00  0.00    +0.219 C 
ATOM     16  C   UNL     1      -7.710 -10.648  12.680  0.00  0.00    +0.127 C 
ATOM     17  C   UNL     1      -7.323  -8.684  10.563  0.00  0.00    +0.141 C 
ATOM     18  C   UNL     1      -8.873 -10.001  11.941  0.00  0.00    +0.127 C 
ATOM     20  C   UNL     1      -9.187 -10.041   9.488  0.00  0.00    +0.241 C 
ENDROOT
BRANCH  15   8
ATOM      8  C   UNL     1      -5.966 -10.396  14.986  0.00  0.00    +0.075 C 
ATOM      9  C   UNL     1      -7.373 -10.022  15.459  0.00  0.00    +0.013 C 
ATOM     10  C   UNL     1      -4.919 -10.108  16.064  0.00  0.00    +0.013 C 
ATOM     11  C   UNL     1      -7.721 -10.695  16.785  0.00  0.00    +0.001 C 
ATOM     12  C   UNL     1      -5.272 -10.781  17.388  0.00  0.00    +0.001 C 
ATOM     14  C   UNL     1      -6.674 -10.403  17.855  0.00  0.00    +0.000 C 
ENDBRANCH  15   8
BRANCH  13  19
ATOM      3  O   UNL     1      -5.783 -10.737   9.496  0.00  0.00    -0.249 OA
ATOM     19  C   UNL     1      -5.433 -10.331  10.596  0.00  0.00    +0.329 C 
BRANCH  19   2
ATOM      2  O   UNL     1      -4.374 -10.781  11.326  0.00  0.00    -0.467 OA
ATOM     22  C   UNL     1      -3.104 -10.224  10.975  0.00  0.00    +0.280 C 
ENDBRANCH  19   2
ENDBRANCH  13  19
BRANCH  20  21
ATOM     21  C   UNL     1      -8.697  -9.580   8.138  0.00  0.00    +0.255 C 
BRANCH  21   5
ATOM      5  O   UNL     1      -8.804  -8.178   8.128  0.00  0.00    -0.374 OA
ATOM     23  C   UNL     1     -10.162  -7.744   8.140  0.00  0.00    +0.194 C 
ENDBRANCH  21   5
ENDBRANCH  20  21
TORSDOF 5
ENDMDL
MODEL 7
REMARK VINA RESULT:       0.0      3.307      5.711
REMARK  Name = 7161627
REMARK  7 active torsions:
REMARK  status: ('A' for Active; 'I' for Inactive)
REMARK    1  A    between atoms: O_2  and  C_19
REMARK    2  A    between atoms: O_2  and  C_22
REMARK    3  A    between atoms: O_5  and  C_21
REMARK    4  A    between atoms: O_5  and  C_23
REMARK    5  A    between atoms: C_8  and  C_15
REMARK    6  A    between atoms: C_13  and  C_19
REMARK    7  A    between atoms: C_20  and  C_21
REMARK                            x       y       z     vdW  Elec       q    Type
REMARK                         _______ _______ _______ _____ _____    ______ ____
ROOT
ATOM      1  O   UNL     1      -5.848   1.044  24.613  0.00  0.00    -0.275 OA
ATOM      4  O   UNL     1       1.049   2.918  23.966  0.00  0.00    -0.273 OA
ATOM      6  N   UNL     1      -3.534   1.276  24.538  0.00  0.00    -0.285 N 
ATOM      7  N   UNL     1      -1.251   2.755  23.692  0.00  0.00    -0.296 N 
ATOM     13  C   UNL     1      -3.604   2.742  24.477  0.00  0.00    +0.202 C 
ATOM     15  C   UNL     1      -4.721   0.549  24.682  0.00  0.00    +0.219 C 
ATOM     16  C   UNL     1      -2.187   0.687  24.621  0.00  0.00    +0.127 C 
ATOM     17  C   UNL     1      -2.577   3.359  23.527  0.00  0.00    +0.141 C 
ATOM     18  C   UNL     1      -1.240   1.298  23.597  0.00  0.00    +0.127 C 
ATOM     20  C   UNL     1      -0.058   3.453  23.875  0.00  0.00    +0.241 C 
ENDROOT
BRANCH  15   8
ATOM      8  C   UNL     1      -4.581  -0.923  24.933  0.00  0.00    +0.075 C 
ATOM      9  C   UNL     1      -3.416  -1.181  25.891  0.00  0.00    +0.013 C 
ATOM     10  C   UNL     1      -4.389  -1.662  23.606  0.00  0.00    +0.013 C 
ATOM     11  C   UNL     1      -3.176  -2.674  26.100  0.00  0.00    +0.001 C 
ATOM     12  C   UNL     1      -4.148  -3.154  23.821  0.00  0.00    +0.001 C 
ATOM     14  C   UNL     1      -2.984  -3.405  24.775  0.00  0.00    +0.000 C 
ENDBRANCH  15   8
BRANCH  13  19
ATOM      3  O   UNL     1      -2.347   3.272  26.464  0.00  0.00    -0.249 OA
ATOM     19  C   UNL     1      -3.423   3.238  25.883  0.00  0.00    +0.329 C 
BRANCH  19   2
ATOM      2  O   UNL     1      -4.627   3.632  26.386  0.00  0.00    -0.467 OA
ATOM     22  C   UNL     1      -5.562   4.129  25.424  0.00  0.00    +0.280 C 
ENDBRANCH  19   2
ENDBRANCH  13  19
BRANCH  20  21
ATOM     21  C   UNL     1      -0.162   4.955  23.967  0.00  0.00    +0.255 C 
BRANCH  21   5
ATOM      5  O   UNL     1      -0.780   5.241  25.197  0.00  0.00    -0.374 OA
ATOM     23  C   UNL     1      -1.825   6.202  25.062  0.00  0.00    +0.194 C 
ENDBRANCH  21   5
ENDBRANCH  20  21
TORSDOF 5
ENDMDL
