MODEL 1
REMARK VINA RESULT:       7.7      0.000      0.000
REMARK  Name = 7051672
REMARK  6 active torsions:
REMARK  status: ('A' for Active; 'I' for Inactive)
REMARK    1  A    between atoms: N_3  and  C_15
REMARK    2  A    between atoms: N_5  and  C_26
REMARK    3  A    between atoms: N_6  and  C_19
REMARK    4  A    between atoms: C_15  and  C_18
REMARK    5  A    between atoms: C_28  and  C_30
REMARK    6  A    between atoms: C_35  and  C_36
REMARK                            x       y       z     vdW  Elec       q    Type
REMARK                         _______ _______ _______ _____ _____    ______ ____
ROOT
ATOM      1  O   UNL     1       0.373   2.490  26.109  0.00  0.00    -0.266 OA
ATOM      3  N   UNL     1      -4.533   1.785  25.361  0.00  0.00    -0.297 NA
ATOM      4  N   UNL     1      -1.651   3.138  25.140  0.00  0.00    -0.310 N 
ATOM      8  C   UNL     1      -3.692   3.844  26.519  0.00  0.00    +0.024 C 
ATOM      9  C   UNL     1      -3.832   3.809  24.075  0.00  0.00    +0.050 C 
ATOM     10  C   UNL     1      -4.035   4.693  25.302  0.00  0.00    +0.017 C 
ATOM     11  C   UNL     1      -4.612   2.606  26.577  0.00  0.00    +0.090 C 
ATOM     12  C   UNL     1      -4.777   2.589  24.153  0.00  0.00    +0.094 C 
ATOM     13  C   UNL     1      -2.204   3.471  26.459  0.00  0.00    +0.130 C 
ATOM     14  C   UNL     1      -2.386   3.356  23.970  0.00  0.00    +0.026 A 
ATOM     16  C   UNL     1      -1.824   3.147  22.768  0.00  0.00    +0.024 A 
ATOM     17  C   UNL     1      -0.317   2.681  25.108  0.00  0.00    +0.273 A 
ATOM     19  C   UNL     1       0.265   2.438  23.750  0.00  0.00    +0.099 A 
ATOM     20  C   UNL     1      -0.471   2.677  22.660  0.00  0.00    +0.030 A 
ENDROOT
BRANCH  19   6
ATOM      2  O   UNL     1       1.083  -0.194  23.009  0.00  0.00    -0.270 OA
ATOM      6  N   UNL     1       1.549   1.985  23.677  0.00  0.00    -0.277 N 
ATOM     28  C   UNL     1       1.883   0.689  23.309  0.00  0.00    +0.248 C 
ATOM     37  H   UNL     1       2.250   2.613  24.054  0.00  0.00    +0.155 HD
BRANCH  28  30
ATOM     30  C   UNL     1       3.337   0.385  23.264  0.00  0.00    +0.037 A 
ATOM     31  C   UNL     1       3.775  -0.844  23.708  0.00  0.00    +0.014 A 
ATOM     32  C   UNL     1       4.201   1.344  22.776  0.00  0.00    +0.014 A 
ATOM     33  C   UNL     1       5.140  -1.129  23.664  0.00  0.00    +0.019 A 
ATOM     34  C   UNL     1       5.567   1.059  22.732  0.00  0.00    +0.019 A 
ATOM     35  C   UNL     1       6.036  -0.178  23.176  0.00  0.00    +0.052 A 
BRANCH  35  36
ATOM      7  N   UNL     1       8.571  -0.704  23.098  0.00  0.00    -0.191 NA
ATOM     36  C   UNL     1       7.434  -0.469  23.133  0.00  0.00    +0.099 C 
ENDBRANCH  35  36
ENDBRANCH  28  30
ENDBRANCH  19   6
BRANCH   3  15
ATOM     15  C   UNL     1      -5.454   0.654  25.433  0.00  0.00    +0.121 C 
BRANCH  15  18
ATOM      5  N   UNL     1      -4.502  -2.518  23.893  0.00  0.00    -0.349 N 
ATOM     18  C   UNL     1      -4.802  -0.592  24.903  0.00  0.00    -0.008 A 
ATOM     21  C   UNL     1      -3.448  -0.944  25.073  0.00  0.00    +0.004 A 
ATOM     22  C   UNL     1      -5.434  -1.557  24.183  0.00  0.00    +0.091 A 
ATOM     23  C   UNL     1      -3.281  -2.169  24.424  0.00  0.00    +0.049 A 
ATOM     24  C   UNL     1      -2.339  -0.356  25.711  0.00  0.00    +0.010 A 
ATOM     25  C   UNL     1      -2.052  -2.838  24.380  0.00  0.00    +0.026 A 
ATOM     26  C   UNL     1      -4.777  -3.719  23.134  0.00  0.00    +0.149 C 
ATOM     27  C   UNL     1      -1.103  -1.013  25.674  0.00  0.00    +0.001 A 
ATOM     29  C   UNL     1      -0.964  -2.236  25.019  0.00  0.00    +0.002 A 
ENDBRANCH  15  18
ENDBRANCH   3  15
TORSDOF 5
ENDMDL
