MODEL 1
REMARK VINA RESULT:      -5.9      0.000      0.000
REMARK  Name = 11942229
REMARK  7 active torsions:
REMARK  status: ('A' for Active; 'I' for Inactive)
REMARK    1  A    between atoms: O_2  and  C_22
REMARK    2  A    between atoms: O_2  and  C_23
REMARK    3  A    between atoms: N_4  and  C_17
REMARK    4  A    between atoms: N_5  and  C_15
REMARK    5  A    between atoms: C_9  and  C_16
REMARK    6  A    between atoms: C_10  and  C_15
REMARK    7  A    between atoms: C_21  and  C_22
REMARK                            x       y       z     vdW  Elec       q    Type
REMARK                         _______ _______ _______ _____ _____    ______ ____
ROOT
ATOM      3  N   UNL     1      -2.235   3.848  25.846  0.00  0.00    -0.297 NA
ATOM      8  C   UNL     1      -3.718   3.450  23.745  0.00  0.00    +0.005 C 
ATOM      9  C   UNL     1      -4.482   3.111  25.039  0.00  0.00    +0.092 C 
ATOM     10  C   UNL     1      -1.514   2.983  24.873  0.00  0.00    +0.078 C 
ATOM     11  C   UNL     1      -2.429   2.605  23.687  0.00  0.00    +0.025 C 
ATOM     12  C   UNL     1      -3.294   4.925  23.852  0.00  0.00    +0.020 C 
ATOM     13  C   UNL     1      -3.522   3.222  26.237  0.00  0.00    +0.097 C 
ATOM     14  C   UNL     1      -2.534   5.138  25.174  0.00  0.00    +0.085 C 
ENDROOT
BRANCH   9  16
ATOM      1  O   UNL     1      -6.333   1.607  24.917  0.00  0.00    -0.275 OA
ATOM      4  N   UNL     1      -4.179   0.733  24.961  0.00  0.00    -0.312 N 
ATOM     16  C   UNL     1      -5.114   1.755  24.957  0.00  0.00    +0.218 C 
ATOM     24  H   UNL     1      -3.188   0.953  25.021  0.00  0.00    +0.149 HD
BRANCH   4  17
ATOM     17  C   UNL     1      -4.551  -0.652  24.918  0.00  0.00    +0.073 C 
ATOM     18  C   UNL     1      -3.574  -1.718  25.293  0.00  0.00    +0.024 C 
ATOM     19  C   UNL     1      -4.002  -1.558  23.864  0.00  0.00    +0.024 C 
ENDBRANCH   4  17
ENDBRANCH   9  16
BRANCH  10  15
ATOM     15  C   UNL     1      -0.902   1.748  25.535  0.00  0.00    +0.164 C 
BRANCH  15   5
ATOM      5  N   UNL     1      -0.083   0.986  24.606  0.00  0.00    -0.250 N 
ATOM      6  N   UNL     1      -0.424  -0.266  24.281  0.00  0.00    -0.065 NA
ATOM      7  N   UNL     1       0.497  -0.705  23.431  0.00  0.00    -0.132 NA
ATOM     20  C   UNL     1       1.049   1.392  23.988  0.00  0.00    +0.136 A 
ATOM     21  C   UNL     1       1.407   0.298  23.241  0.00  0.00    +0.108 A 
BRANCH  21  22
ATOM     22  C   UNL     1       2.559   0.125  22.348  0.00  0.00    +0.218 C 
BRANCH  22   2
ATOM      2  O   UNL     1       3.633   1.024  22.648  0.00  0.00    -0.377 OA
ATOM     23  C   UNL     1       4.760   0.325  23.149  0.00  0.00    +0.194 C 
ENDBRANCH  22   2
ENDBRANCH  21  22
ENDBRANCH  15   5
ENDBRANCH  10  15
TORSDOF 6
ENDMDL
MODEL 2
REMARK VINA RESULT:      -5.8      1.373      3.853
REMARK  Name = 11942229
REMARK  7 active torsions:
REMARK  status: ('A' for Active; 'I' for Inactive)
REMARK    1  A    between atoms: O_2  and  C_22
REMARK    2  A    between atoms: O_2  and  C_23
REMARK    3  A    between atoms: N_4  and  C_17
REMARK    4  A    between atoms: N_5  and  C_15
REMARK    5  A    between atoms: C_9  and  C_16
REMARK    6  A    between atoms: C_10  and  C_15
REMARK    7  A    between atoms: C_21  and  C_22
REMARK                            x       y       z     vdW  Elec       q    Type
REMARK                         _______ _______ _______ _____ _____    ______ ____
ROOT
ATOM      3  N   UNL     1      -2.269  -0.929  23.626  0.00  0.00    -0.297 NA
ATOM      8  C   UNL     1      -3.465  -0.854  25.935  0.00  0.00    +0.005 C 
ATOM      9  C   UNL     1      -4.292  -0.129  24.856  0.00  0.00    +0.092 C 
ATOM     10  C   UNL     1      -1.336  -0.413  24.664  0.00  0.00    +0.078 C 
ATOM     11  C   UNL     1      -2.065  -0.214  26.011  0.00  0.00    +0.025 C 
ATOM     12  C   UNL     1      -3.281  -2.304  25.454  0.00  0.00    +0.020 C 
ATOM     13  C   UNL     1      -3.479  -0.074  23.550  0.00  0.00    +0.097 C 
ATOM     14  C   UNL     1      -2.692  -2.293  24.032  0.00  0.00    +0.085 C 
ENDROOT
BRANCH   9  16
ATOM      1  O   UNL     1      -5.753   1.433  25.918  0.00  0.00    -0.275 OA
ATOM      4  N   UNL     1      -3.787   2.214  24.954  0.00  0.00    -0.312 N 
ATOM     16  C   UNL     1      -4.702   1.238  25.314  0.00  0.00    +0.218 C 
ATOM     24  H   UNL     1      -2.954   1.960  24.431  0.00  0.00    +0.149 HD
BRANCH   4  17
ATOM     17  C   UNL     1      -3.982   3.603  25.260  0.00  0.00    +0.073 C 
ATOM     18  C   UNL     1      -2.881   4.592  25.057  0.00  0.00    +0.024 C 
ATOM     19  C   UNL     1      -3.316   4.224  26.444  0.00  0.00    +0.024 C 
ENDBRANCH   4  17
ENDBRANCH   9  16
BRANCH  10  15
ATOM     15  C   UNL     1      -0.612   0.857  24.216  0.00  0.00    +0.164 C 
BRANCH  15   5
ATOM      5  N   UNL     1       0.646   0.558  23.553  0.00  0.00    -0.250 N 
ATOM      6  N   UNL     1       0.748  -0.509  22.753  0.00  0.00    -0.065 NA
ATOM      7  N   UNL     1       1.995  -0.530  22.298  0.00  0.00    -0.132 NA
ATOM     20  C   UNL     1       1.805   1.252  23.640  0.00  0.00    +0.136 A 
ATOM     21  C   UNL     1       2.656   0.541  22.832  0.00  0.00    +0.108 A 
BRANCH  21  22
ATOM     22  C   UNL     1       4.067   0.800  22.520  0.00  0.00    +0.218 C 
BRANCH  22   2
ATOM      2  O   UNL     1       4.900   0.807  23.686  0.00  0.00    -0.377 OA
ATOM     23  C   UNL     1       5.386  -0.493  23.973  0.00  0.00    +0.194 C 
ENDBRANCH  22   2
ENDBRANCH  21  22
ENDBRANCH  15   5
ENDBRANCH  10  15
TORSDOF 6
ENDMDL
MODEL 3
REMARK VINA RESULT:      -5.4      1.371      1.717
REMARK  Name = 11942229
REMARK  7 active torsions:
REMARK  status: ('A' for Active; 'I' for Inactive)
REMARK    1  A    between atoms: O_2  and  C_22
REMARK    2  A    between atoms: O_2  and  C_23
REMARK    3  A    between atoms: N_4  and  C_17
REMARK    4  A    between atoms: N_5  and  C_15
REMARK    5  A    between atoms: C_9  and  C_16
REMARK    6  A    between atoms: C_10  and  C_15
REMARK    7  A    between atoms: C_21  and  C_22
REMARK                            x       y       z     vdW  Elec       q    Type
REMARK                         _______ _______ _______ _____ _____    ______ ____
ROOT
ATOM      3  N   UNL     1      -0.923   2.438  25.003  0.00  0.00    -0.297 NA
ATOM      8  C   UNL     1      -3.206   2.920  23.852  0.00  0.00    +0.005 C 
ATOM      9  C   UNL     1      -3.403   2.206  25.204  0.00  0.00    +0.092 C 
ATOM     10  C   UNL     1      -0.907   1.920  23.609  0.00  0.00    +0.078 C 
ATOM     11  C   UNL     1      -2.300   2.055  22.953  0.00  0.00    +0.025 C 
ATOM     12  C   UNL     1      -2.448   4.226  24.146  0.00  0.00    +0.020 C 
ATOM     13  C   UNL     1      -2.028   1.814  25.773  0.00  0.00    +0.097 C 
ATOM     14  C   UNL     1      -1.171   3.900  24.942  0.00  0.00    +0.085 C 
ENDROOT
BRANCH   9  16
ATOM      1  O   UNL     1      -5.528   1.132  25.013  0.00  0.00    -0.275 OA
ATOM      4  N   UNL     1      -3.607  -0.178  25.026  0.00  0.00    -0.312 N 
ATOM     16  C   UNL     1      -4.306   1.018  25.062  0.00  0.00    +0.218 C 
ATOM     24  H   UNL     1      -2.593  -0.175  25.098  0.00  0.00    +0.149 HD
BRANCH   4  17
ATOM     17  C   UNL     1      -4.262  -1.450  24.924  0.00  0.00    +0.073 C 
ATOM     18  C   UNL     1      -3.471  -2.716  24.866  0.00  0.00    +0.024 C 
ATOM     19  C   UNL     1      -4.212  -2.235  23.654  0.00  0.00    +0.024 C 
ENDBRANCH   4  17
ENDBRANCH   9  16
BRANCH  10  15
ATOM     15  C   UNL     1      -0.377   0.487  23.526  0.00  0.00    +0.164 C 
BRANCH  15   5
ATOM      5  N   UNL     1       0.998   0.445  23.056  0.00  0.00    -0.250 N 
ATOM      6  N   UNL     1       1.318  -0.281  21.980  0.00  0.00    -0.065 NA
ATOM      7  N   UNL     1       2.624  -0.134  21.792  0.00  0.00    -0.132 NA
ATOM     20  C   UNL     1       2.067   1.077  23.591  0.00  0.00    +0.136 A 
ATOM     21  C   UNL     1       3.098   0.695  22.770  0.00  0.00    +0.108 A 
BRANCH  21  22
ATOM     22  C   UNL     1       4.519   1.059  22.840  0.00  0.00    +0.218 C 
BRANCH  22   2
ATOM      2  O   UNL     1       5.379  -0.083  22.942  0.00  0.00    -0.377 OA
ATOM     23  C   UNL     1       5.437  -0.561  24.275  0.00  0.00    +0.194 C 
ENDBRANCH  22   2
ENDBRANCH  21  22
ENDBRANCH  15   5
ENDBRANCH  10  15
TORSDOF 6
ENDMDL
MODEL 4
REMARK VINA RESULT:      -4.7      1.419      3.901
REMARK  Name = 11942229
REMARK  7 active torsions:
REMARK  status: ('A' for Active; 'I' for Inactive)
REMARK    1  A    between atoms: O_2  and  C_22
REMARK    2  A    between atoms: O_2  and  C_23
REMARK    3  A    between atoms: N_4  and  C_17
REMARK    4  A    between atoms: N_5  and  C_15
REMARK    5  A    between atoms: C_9  and  C_16
REMARK    6  A    between atoms: C_10  and  C_15
REMARK    7  A    between atoms: C_21  and  C_22
REMARK                            x       y       z     vdW  Elec       q    Type
REMARK                         _______ _______ _______ _____ _____    ______ ____
ROOT
ATOM      3  N   UNL     1      -2.720  -0.700  23.944  0.00  0.00    -0.297 NA
ATOM      8  C   UNL     1      -4.795   0.313  25.143  0.00  0.00    +0.005 C 
ATOM      9  C   UNL     1      -4.091   1.365  24.263  0.00  0.00    +0.092 C 
ATOM     10  C   UNL     1      -2.645  -0.972  25.405  0.00  0.00    +0.078 C 
ATOM     11  C   UNL     1      -3.783  -0.250  26.160  0.00  0.00    +0.025 C 
ATOM     12  C   UNL     1      -5.203  -0.843  24.213  0.00  0.00    +0.020 C 
ATOM     13  C   UNL     1      -2.795   0.761  23.695  0.00  0.00    +0.097 C 
ATOM     14  C   UNL     1      -3.967  -1.321  23.430  0.00  0.00    +0.085 C 
ENDROOT
BRANCH   9  16
ATOM      1  O   UNL     1      -4.725   3.234  25.606  0.00  0.00    -0.275 OA
ATOM      4  N   UNL     1      -2.498   3.009  24.978  0.00  0.00    -0.312 N 
ATOM     16  C   UNL     1      -3.828   2.625  25.030  0.00  0.00    +0.218 C 
ATOM     24  H   UNL     1      -1.830   2.452  24.453  0.00  0.00    +0.149 HD
BRANCH   4  17
ATOM     17  C   UNL     1      -2.015   4.201  25.615  0.00  0.00    +0.073 C 
ATOM     18  C   UNL     1      -2.171   5.535  24.959  0.00  0.00    +0.024 C 
ATOM     19  C   UNL     1      -0.812   4.914  25.089  0.00  0.00    +0.024 C 
ENDBRANCH   4  17
ENDBRANCH   9  16
BRANCH  10  15
ATOM     15  C   UNL     1      -1.272  -0.634  25.990  0.00  0.00    +0.164 C 
BRANCH  15   5
ATOM      5  N   UNL     1      -0.366  -0.114  24.979  0.00  0.00    -0.250 N 
ATOM      6  N   UNL     1      -0.127   1.200  24.903  0.00  0.00    -0.065 NA
ATOM      7  N   UNL     1       0.723   1.377  23.899  0.00  0.00    -0.132 NA
ATOM     20  C   UNL     1       0.310  -0.818  24.043  0.00  0.00    +0.136 A 
ATOM     21  C   UNL     1       1.000   0.152  23.361  0.00  0.00    +0.108 A 
BRANCH  21  22
ATOM     22  C   UNL     1       1.917   0.007  22.222  0.00  0.00    +0.218 C 
BRANCH  22   2
ATOM      2  O   UNL     1       3.254  -0.314  22.625  0.00  0.00    -0.377 OA
ATOM     23  C   UNL     1       4.056   0.851  22.706  0.00  0.00    +0.194 C 
ENDBRANCH  22   2
ENDBRANCH  21  22
ENDBRANCH  15   5
ENDBRANCH  10  15
TORSDOF 6
ENDMDL
MODEL 5
REMARK VINA RESULT:      -3.9      2.343      4.933
REMARK  Name = 11942229
REMARK  7 active torsions:
REMARK  status: ('A' for Active; 'I' for Inactive)
REMARK    1  A    between atoms: O_2  and  C_22
REMARK    2  A    between atoms: O_2  and  C_23
REMARK    3  A    between atoms: N_4  and  C_17
REMARK    4  A    between atoms: N_5  and  C_15
REMARK    5  A    between atoms: C_9  and  C_16
REMARK    6  A    between atoms: C_10  and  C_15
REMARK    7  A    between atoms: C_21  and  C_22
REMARK                            x       y       z     vdW  Elec       q    Type
REMARK                         _______ _______ _______ _____ _____    ______ ____
ROOT
ATOM      3  N   UNL     1      -2.110  -2.206  23.938  0.00  0.00    -0.297 NA
ATOM      8  C   UNL     1      -3.440  -1.072  25.865  0.00  0.00    +0.005 C 
ATOM      9  C   UNL     1      -3.977  -0.639  24.487  0.00  0.00    +0.092 C 
ATOM     10  C   UNL     1      -1.170  -1.543  24.881  0.00  0.00    +0.078 C 
ATOM     11  C   UNL     1      -1.938  -0.733  25.949  0.00  0.00    +0.025 C 
ATOM     12  C   UNL     1      -3.568  -2.604  25.931  0.00  0.00    +0.020 C 
ATOM     13  C   UNL     1      -3.070  -1.218  23.387  0.00  0.00    +0.097 C 
ATOM     14  C   UNL     1      -2.879  -3.221  24.701  0.00  0.00    +0.085 C 
ENDROOT
BRANCH   9  16
ATOM      1  O   UNL     1      -3.499   1.493  23.523  0.00  0.00    -0.275 OA
ATOM      4  N   UNL     1      -4.878   1.392  25.392  0.00  0.00    -0.312 N 
ATOM     16  C   UNL     1      -4.085   0.853  24.392  0.00  0.00    +0.218 C 
ATOM     24  H   UNL     1      -5.304   0.783  26.085  0.00  0.00    +0.149 HD
BRANCH   4  17
ATOM     17  C   UNL     1      -5.103   2.804  25.520  0.00  0.00    +0.073 C 
ATOM     18  C   UNL     1      -4.450   3.769  24.585  0.00  0.00    +0.024 C 
ATOM     19  C   UNL     1      -4.023   3.706  26.022  0.00  0.00    +0.024 C 
ENDBRANCH   4  17
ENDBRANCH   9  16
BRANCH  10  15
ATOM     15  C   UNL     1      -0.128  -0.686  24.159  0.00  0.00    +0.164 C 
BRANCH  15   5
ATOM      5  N   UNL     1      -0.275   0.725  24.475  0.00  0.00    -0.250 N 
ATOM      6  N   UNL     1      -0.408   1.120  25.745  0.00  0.00    -0.065 NA
ATOM      7  N   UNL     1      -0.525   2.442  25.726  0.00  0.00    -0.132 NA
ATOM     20  C   UNL     1      -0.300   1.762  23.605  0.00  0.00    +0.136 A 
ATOM     21  C   UNL     1      -0.461   2.851  24.424  0.00  0.00    +0.108 A 
BRANCH  21  22
ATOM     22  C   UNL     1      -0.561   4.271  24.063  0.00  0.00    +0.218 C 
BRANCH  22   2
ATOM      2  O   UNL     1      -0.739   5.121  25.203  0.00  0.00    -0.377 OA
ATOM     23  C   UNL     1      -1.776   6.061  24.981  0.00  0.00    +0.194 C 
ENDBRANCH  22   2
ENDBRANCH  21  22
ENDBRANCH  15   5
ENDBRANCH  10  15
TORSDOF 6
ENDMDL
MODEL 6
REMARK VINA RESULT:      -3.3      2.063      5.687
REMARK  Name = 11942229
REMARK  7 active torsions:
REMARK  status: ('A' for Active; 'I' for Inactive)
REMARK    1  A    between atoms: O_2  and  C_22
REMARK    2  A    between atoms: O_2  and  C_23
REMARK    3  A    between atoms: N_4  and  C_17
REMARK    4  A    between atoms: N_5  and  C_15
REMARK    5  A    between atoms: C_9  and  C_16
REMARK    6  A    between atoms: C_10  and  C_15
REMARK    7  A    between atoms: C_21  and  C_22
REMARK                            x       y       z     vdW  Elec       q    Type
REMARK                         _______ _______ _______ _____ _____    ______ ____
ROOT
ATOM      3  N   UNL     1      -3.512  -0.050  25.701  0.00  0.00    -0.297 NA
ATOM      8  C   UNL     1      -2.107  -1.700  24.261  0.00  0.00    +0.005 C 
ATOM      9  C   UNL     1      -1.229  -0.565  24.822  0.00  0.00    +0.092 C 
ATOM     10  C   UNL     1      -4.151  -0.234  24.371  0.00  0.00    +0.078 C 
ATOM     11  C   UNL     1      -3.260  -1.087  23.441  0.00  0.00    +0.025 C 
ATOM     12  C   UNL     1      -2.734  -2.416  25.469  0.00  0.00    +0.020 C 
ATOM     13  C   UNL     1      -2.127   0.459  25.540  0.00  0.00    +0.097 C 
ATOM     14  C   UNL     1      -3.442  -1.379  26.359  0.00  0.00    +0.085 C 
ENDROOT
BRANCH   9  16
ATOM      1  O   UNL     1      -0.863   0.964  23.025  0.00  0.00    -0.275 OA
ATOM      4  N   UNL     1       0.858  -0.472  23.643  0.00  0.00    -0.312 N 
ATOM     16  C   UNL     1      -0.412   0.074  23.741  0.00  0.00    +0.218 C 
ATOM     24  H   UNL     1       1.135  -1.226  24.266  0.00  0.00    +0.149 HD
BRANCH   4  17
ATOM     17  C   UNL     1       1.809  -0.039  22.660  0.00  0.00    +0.073 C 
ATOM     18  C   UNL     1       3.252  -0.405  22.779  0.00  0.00    +0.024 C 
ATOM     19  C   UNL     1       2.817   1.016  22.985  0.00  0.00    +0.024 C 
ENDBRANCH   4  17
ENDBRANCH   9  16
BRANCH  10  15
ATOM     15  C   UNL     1      -4.539   1.097  23.722  0.00  0.00    +0.164 C 
BRANCH  15   5
ATOM      5  N   UNL     1      -3.997   2.232  24.450  0.00  0.00    -0.250 N 
ATOM      6  N   UNL     1      -4.591   2.658  25.570  0.00  0.00    -0.065 NA
ATOM      7  N   UNL     1      -3.887   3.695  26.007  0.00  0.00    -0.132 NA
ATOM     20  C   UNL     1      -2.906   2.966  24.131  0.00  0.00    +0.136 A 
ATOM     21  C   UNL     1      -2.852   3.898  25.137  0.00  0.00    +0.108 A 
BRANCH  21  22
ATOM     22  C   UNL     1      -1.882   4.981  25.342  0.00  0.00    +0.218 C 
BRANCH  22   2
ATOM      2  O   UNL     1      -0.561   4.631  24.910  0.00  0.00    -0.377 OA
ATOM     23  C   UNL     1      -0.120   3.436  25.531  0.00  0.00    +0.194 C 
ENDBRANCH  22   2
ENDBRANCH  21  22
ENDBRANCH  15   5
ENDBRANCH  10  15
TORSDOF 6
ENDMDL
MODEL 7
REMARK VINA RESULT:      -3.0      2.190      4.749
REMARK  Name = 11942229
REMARK  7 active torsions:
REMARK  status: ('A' for Active; 'I' for Inactive)
REMARK    1  A    between atoms: O_2  and  C_22
REMARK    2  A    between atoms: O_2  and  C_23
REMARK    3  A    between atoms: N_4  and  C_17
REMARK    4  A    between atoms: N_5  and  C_15
REMARK    5  A    between atoms: C_9  and  C_16
REMARK    6  A    between atoms: C_10  and  C_15
REMARK    7  A    between atoms: C_21  and  C_22
REMARK                            x       y       z     vdW  Elec       q    Type
REMARK                         _______ _______ _______ _____ _____    ______ ____
ROOT
ATOM      3  N   UNL     1      -3.731   3.644  24.116  0.00  0.00    -0.297 NA
ATOM      8  C   UNL     1      -1.571   2.923  25.374  0.00  0.00    +0.005 C 
ATOM      9  C   UNL     1      -1.391   2.809  23.848  0.00  0.00    +0.092 C 
ATOM     10  C   UNL     1      -4.061   2.625  25.148  0.00  0.00    +0.078 C 
ATOM     11  C   UNL     1      -2.779   2.067  25.805  0.00  0.00    +0.025 C 
ATOM     12  C   UNL     1      -1.921   4.392  25.672  0.00  0.00    +0.020 C 
ATOM     13  C   UNL     1      -2.735   3.104  23.158  0.00  0.00    +0.097 C 
ATOM     14  C   UNL     1      -3.123   4.810  24.806  0.00  0.00    +0.085 C 
ENDROOT
BRANCH   9  16
ATOM      1  O   UNL     1      -1.578   0.574  23.029  0.00  0.00    -0.275 OA
ATOM      4  N   UNL     1       0.511   1.356  23.688  0.00  0.00    -0.312 N 
ATOM     16  C   UNL     1      -0.853   1.464  23.465  0.00  0.00    +0.218 C 
ATOM     24  H   UNL     1       1.024   2.141  24.076  0.00  0.00    +0.149 HD
BRANCH   4  17
ATOM     17  C   UNL     1       1.241   0.149  23.423  0.00  0.00    +0.073 C 
ATOM     18  C   UNL     1       2.620   0.200  22.852  0.00  0.00    +0.024 C 
ATOM     19  C   UNL     1       1.479  -0.306  22.019  0.00  0.00    +0.024 C 
ENDBRANCH   4  17
ENDBRANCH   9  16
BRANCH  10  15
ATOM     15  C   UNL     1      -4.950   1.507  24.599  0.00  0.00    +0.164 C 
BRANCH  15   5
ATOM      5  N   UNL     1      -4.395   0.192  24.870  0.00  0.00    -0.250 N 
ATOM      6  N   UNL     1      -4.162  -0.194  26.129  0.00  0.00    -0.065 NA
ATOM      7  N   UNL     1      -3.659  -1.421  26.068  0.00  0.00    -0.132 NA
ATOM     20  C   UNL     1      -4.057  -0.758  23.967  0.00  0.00    +0.136 A 
ATOM     21  C   UNL     1      -3.588  -1.781  24.751  0.00  0.00    +0.108 A 
BRANCH  21  22
ATOM     22  C   UNL     1      -3.070  -3.094  24.345  0.00  0.00    +0.218 C 
BRANCH  22   2
ATOM      2  O   UNL     1      -1.692  -3.049  23.955  0.00  0.00    -0.377 OA
ATOM     23  C   UNL     1      -0.923  -2.301  24.882  0.00  0.00    +0.194 C 
ENDBRANCH  22   2
ENDBRANCH  21  22
ENDBRANCH  15   5
ENDBRANCH  10  15
TORSDOF 6
ENDMDL
MODEL 8
REMARK VINA RESULT:      -2.9      2.307      2.719
REMARK  Name = 11942229
REMARK  7 active torsions:
REMARK  status: ('A' for Active; 'I' for Inactive)
REMARK    1  A    between atoms: O_2  and  C_22
REMARK    2  A    between atoms: O_2  and  C_23
REMARK    3  A    between atoms: N_4  and  C_17
REMARK    4  A    between atoms: N_5  and  C_15
REMARK    5  A    between atoms: C_9  and  C_16
REMARK    6  A    between atoms: C_10  and  C_15
REMARK    7  A    between atoms: C_21  and  C_22
REMARK                            x       y       z     vdW  Elec       q    Type
REMARK                         _______ _______ _______ _____ _____    ______ ____
ROOT
ATOM      3  N   UNL     1      -1.790   4.672  25.913  0.00  0.00    -0.297 NA
ATOM      8  C   UNL     1      -3.466   4.010  24.037  0.00  0.00    +0.005 C 
ATOM      9  C   UNL     1      -4.150   4.016  25.418  0.00  0.00    +0.092 C 
ATOM     10  C   UNL     1      -1.227   3.562  25.098  0.00  0.00    +0.078 C 
ATOM     11  C   UNL     1      -2.263   3.047  24.075  0.00  0.00    +0.025 C 
ATOM     12  C   UNL     1      -2.912   5.427  23.809  0.00  0.00    +0.020 C 
ATOM     13  C   UNL     1      -3.090   4.269  26.504  0.00  0.00    +0.097 C 
ATOM     14  C   UNL     1      -2.032   5.824  25.008  0.00  0.00    +0.085 C 
ENDROOT
BRANCH   9  16
ATOM      1  O   UNL     1      -5.839   2.677  26.446  0.00  0.00    -0.275 OA
ATOM      4  N   UNL     1      -4.392   1.682  24.922  0.00  0.00    -0.312 N 
ATOM     16  C   UNL     1      -4.900   2.741  25.657  0.00  0.00    +0.218 C 
ATOM     24  H   UNL     1      -3.593   1.826  24.311  0.00  0.00    +0.149 HD
BRANCH   4  17
ATOM     17  C   UNL     1      -4.931   0.355  25.011  0.00  0.00    +0.073 C 
ATOM     18  C   UNL     1      -4.136  -0.754  25.620  0.00  0.00    +0.024 C 
ATOM     19  C   UNL     1      -4.404  -0.743  24.144  0.00  0.00    +0.024 C 
ENDBRANCH   4  17
ENDBRANCH   9  16
BRANCH  10  15
ATOM     15  C   UNL     1      -0.670   2.430  25.963  0.00  0.00    +0.164 C 
BRANCH  15   5
ATOM      5  N   UNL     1      -0.456   1.216  25.193  0.00  0.00    -0.250 N 
ATOM      6  N   UNL     1       0.266   1.251  24.068  0.00  0.00    -0.065 NA
ATOM      7  N   UNL     1       0.286   0.014  23.586  0.00  0.00    -0.132 NA
ATOM     20  C   UNL     1      -0.918  -0.025  25.473  0.00  0.00    +0.136 A 
ATOM     21  C   UNL     1      -0.434  -0.779  24.434  0.00  0.00    +0.108 A 
BRANCH  21  22
ATOM     22  C   UNL     1      -0.602  -2.216  24.178  0.00  0.00    +0.218 C 
BRANCH  22   2
ATOM      2  O   UNL     1      -1.714  -2.778  24.886  0.00  0.00    -0.377 OA
ATOM     23  C   UNL     1      -2.638  -3.377  23.993  0.00  0.00    +0.194 C 
ENDBRANCH  22   2
ENDBRANCH  21  22
ENDBRANCH  15   5
ENDBRANCH  10  15
TORSDOF 6
ENDMDL
MODEL 9
REMARK VINA RESULT:      -2.4      1.736      2.040
REMARK  Name = 11942229
REMARK  7 active torsions:
REMARK  status: ('A' for Active; 'I' for Inactive)
REMARK    1  A    between atoms: O_2  and  C_22
REMARK    2  A    between atoms: O_2  and  C_23
REMARK    3  A    between atoms: N_4  and  C_17
REMARK    4  A    between atoms: N_5  and  C_15
REMARK    5  A    between atoms: C_9  and  C_16
REMARK    6  A    between atoms: C_10  and  C_15
REMARK    7  A    between atoms: C_21  and  C_22
REMARK                            x       y       z     vdW  Elec       q    Type
REMARK                         _______ _______ _______ _____ _____    ______ ____
ROOT
ATOM      3  N   UNL     1      -3.655   3.304  25.872  0.00  0.00    -0.297 NA
ATOM      8  C   UNL     1      -3.982   2.431  23.443  0.00  0.00    +0.005 C 
ATOM      9  C   UNL     1      -4.601   1.464  24.471  0.00  0.00    +0.092 C 
ATOM     10  C   UNL     1      -2.349   3.282  25.161  0.00  0.00    +0.078 C 
ATOM     11  C   UNL     1      -2.487   2.625  23.770  0.00  0.00    +0.025 C 
ATOM     12  C   UNL     1      -4.674   3.791  23.640  0.00  0.00    +0.020 C 
ATOM     13  C   UNL     1      -4.255   1.947  25.891  0.00  0.00    +0.097 C 
ATOM     14  C   UNL     1      -4.567   4.202  25.120  0.00  0.00    +0.085 C 
ENDROOT
BRANCH   9  16
ATOM      1  O   UNL     1      -4.103  -0.434  23.110  0.00  0.00    -0.275 OA
ATOM      4  N   UNL     1      -3.811  -0.597  25.411  0.00  0.00    -0.312 N 
ATOM     16  C   UNL     1      -4.142   0.057  24.235  0.00  0.00    +0.218 C 
ATOM     24  H   UNL     1      -3.899  -0.115  26.301  0.00  0.00    +0.149 HD
BRANCH   4  17
ATOM     17  C   UNL     1      -3.373  -1.963  25.435  0.00  0.00    +0.073 C 
ATOM     18  C   UNL     1      -2.216  -2.410  24.602  0.00  0.00    +0.024 C 
ATOM     19  C   UNL     1      -3.606  -2.860  24.264  0.00  0.00    +0.024 C 
ENDBRANCH   4  17
ENDBRANCH   9  16
BRANCH  10  15
ATOM     15  C   UNL     1      -1.245   2.625  25.992  0.00  0.00    +0.164 C 
BRANCH  15   5
ATOM      5  N   UNL     1      -0.261   1.959  25.155  0.00  0.00    -0.250 N 
ATOM      6  N   UNL     1       0.720   2.663  24.580  0.00  0.00    -0.065 NA
ATOM      7  N   UNL     1       1.452   1.803  23.884  0.00  0.00    -0.132 NA
ATOM     20  C   UNL     1      -0.196   0.641  24.855  0.00  0.00    +0.136 A 
ATOM     21  C   UNL     1       0.904   0.560  24.041  0.00  0.00    +0.108 A 
BRANCH  21  22
ATOM     22  C   UNL     1       1.488  -0.619  23.390  0.00  0.00    +0.218 C 
BRANCH  22   2
ATOM      2  O   UNL     1       1.974  -0.341  22.071  0.00  0.00    -0.377 OA
ATOM     23  C   UNL     1       0.959  -0.536  21.101  0.00  0.00    +0.194 C 
ENDBRANCH  22   2
ENDBRANCH  21  22
ENDBRANCH  15   5
ENDBRANCH  10  15
TORSDOF 6
ENDMDL
MODEL 10
REMARK VINA RESULT:      -2.0      2.369      4.726
REMARK  Name = 11942229
REMARK  7 active torsions:
REMARK  status: ('A' for Active; 'I' for Inactive)
REMARK    1  A    between atoms: O_2  and  C_22
REMARK    2  A    between atoms: O_2  and  C_23
REMARK    3  A    between atoms: N_4  and  C_17
REMARK    4  A    between atoms: N_5  and  C_15
REMARK    5  A    between atoms: C_9  and  C_16
REMARK    6  A    between atoms: C_10  and  C_15
REMARK    7  A    between atoms: C_21  and  C_22
REMARK                            x       y       z     vdW  Elec       q    Type
REMARK                         _______ _______ _______ _____ _____    ______ ____
ROOT
ATOM      3  N   UNL     1      -2.658  -1.980  23.644  0.00  0.00    -0.297 NA
ATOM      8  C   UNL     1      -3.699  -0.679  25.643  0.00  0.00    +0.005 C 
ATOM      9  C   UNL     1      -4.128  -0.067  24.296  0.00  0.00    +0.092 C 
ATOM     10  C   UNL     1      -1.593  -1.592  24.607  0.00  0.00    +0.078 C 
ATOM     11  C   UNL     1      -2.159  -0.688  25.724  0.00  0.00    +0.025 C 
ATOM     12  C   UNL     1      -4.165  -2.145  25.634  0.00  0.00    +0.020 C 
ATOM     13  C   UNL     1      -3.375  -0.776  23.156  0.00  0.00    +0.097 C 
ATOM     14  C   UNL     1      -3.633  -2.837  24.366  0.00  0.00    +0.085 C 
ENDROOT
BRANCH   9  16
ATOM      1  O   UNL     1      -3.308   1.968  23.354  0.00  0.00    -0.275 OA
ATOM      4  N   UNL     1      -4.402   2.042  25.405  0.00  0.00    -0.312 N 
ATOM     16  C   UNL     1      -3.901   1.414  24.276  0.00  0.00    +0.218 C 
ATOM     24  H   UNL     1      -4.858   1.495  26.129  0.00  0.00    +0.149 HD
BRANCH   4  17
ATOM     17  C   UNL     1      -4.275   3.455  25.620  0.00  0.00    +0.073 C 
ATOM     18  C   UNL     1      -3.084   4.201  25.115  0.00  0.00    +0.024 C 
ATOM     19  C   UNL     1      -3.273   3.993  26.588  0.00  0.00    +0.024 C 
ENDBRANCH   4  17
ENDBRANCH   9  16
BRANCH  10  15
ATOM     15  C   UNL     1      -0.387  -0.953  23.914  0.00  0.00    +0.164 C 
BRANCH  15   5
ATOM      5  N   UNL     1      -0.113   0.379  24.426  0.00  0.00    -0.250 N 
ATOM      6  N   UNL     1       0.218   1.367  23.588  0.00  0.00    -0.065 NA
ATOM      7  N   UNL     1       0.412   2.450  24.330  0.00  0.00    -0.132 NA
ATOM     20  C   UNL     1      -0.144   0.784  25.717  0.00  0.00    +0.136 A 
ATOM     21  C   UNL     1       0.195   2.111  25.636  0.00  0.00    +0.108 A 
BRANCH  21  22
ATOM     22  C   UNL     1       0.330   3.098  26.714  0.00  0.00    +0.218 C 
BRANCH  22   2
ATOM      2  O   UNL     1       1.496   2.883  27.519  0.00  0.00    -0.377 OA
ATOM     23  C   UNL     1       1.142   2.501  28.838  0.00  0.00    +0.194 C 
ENDBRANCH  22   2
ENDBRANCH  21  22
ENDBRANCH  15   5
ENDBRANCH  10  15
TORSDOF 6
ENDMDL
