MODEL 1
REMARK VINA RESULT:       2.9      0.000      0.000
REMARK  Name = 40779513
REMARK  13 active torsions:
REMARK  status: ('A' for Active; 'I' for Inactive)
REMARK    1  A    between atoms: O_2  and  C_28
REMARK    2  A    between atoms: O_2  and  C_31
REMARK    3  A    between atoms: O_3  and  C_30
REMARK    4  A    between atoms: O_3  and  C_32
REMARK    5  A    between atoms: N_5  and  C_19
REMARK    6  A    between atoms: N_6  and  C_15
REMARK    7  A    between atoms: C_9  and  C_16
REMARK    8  A    between atoms: C_10  and  C_15
REMARK    9  A    between atoms: C_18  and  C_22
REMARK   10  A    between atoms: C_20  and  C_21
REMARK   11  A    between atoms: C_21  and  C_23
REMARK   12  A    between atoms: C_21  and  C_24
REMARK   13  A    between atoms: C_21  and  C_25
REMARK                            x       y       z     vdW  Elec       q    Type
REMARK                         _______ _______ _______ _____ _____    ______ ____
ROOT
ATOM      4  N   UNL     1      -5.770   2.974  24.282  0.00  0.00    -0.297 NA
ATOM      8  C   UNL     1      -4.050   3.627  26.125  0.00  0.00    +0.002 C 
ATOM      9  C   UNL     1      -3.441   3.844  24.713  0.00  0.00    +0.055 C 
ATOM     10  C   UNL     1      -5.661   1.882  25.286  0.00  0.00    +0.074 C 
ATOM     11  C   UNL     1      -4.501   2.159  26.267  0.00  0.00    +0.024 C 
ATOM     12  C   UNL     1      -5.320   4.502  26.201  0.00  0.00    +0.019 C 
ATOM     13  C   UNL     1      -4.441   3.246  23.681  0.00  0.00    +0.094 C 
ATOM     14  C   UNL     1      -6.218   4.198  24.989  0.00  0.00    +0.085 C 
ENDROOT
BRANCH   9  16
ATOM      5  N   UNL     1      -0.934   4.210  24.563  0.00  0.00    -0.270 N 
ATOM      7  N   UNL     1       0.239   3.607  24.309  0.00  0.00    -0.171 NA
ATOM     16  C   UNL     1      -2.013   3.380  24.467  0.00  0.00    +0.044 A 
ATOM     17  C   UNL     1      -1.509   2.148  24.125  0.00  0.00    +0.053 A 
ATOM     18  C   UNL     1      -0.118   2.348  24.041  0.00  0.00    +0.093 A 
ATOM     19  C   UNL     1      -0.947   5.615  24.899  0.00  0.00    +0.172 C 
BRANCH  18  22
ATOM     22  C   UNL     1       0.875   1.360  23.709  0.00  0.00    +0.006 A 
ATOM     26  C   UNL     1       2.181   1.754  23.416  0.00  0.00    +0.059 A 
ATOM     27  C   UNL     1       0.531   0.009  23.678  0.00  0.00    +0.014 A 
ATOM     28  C   UNL     1       3.142   0.797  23.093  0.00  0.00    +0.162 A 
ATOM     29  C   UNL     1       1.493  -0.949  23.355  0.00  0.00    +0.050 A 
ATOM     30  C   UNL     1       2.799  -0.554  23.062  0.00  0.00    +0.162 A 
BRANCH  28   2
ATOM      2  O   UNL     1       4.415   1.193  22.809  0.00  0.00    -0.491 OA
ATOM     31  C   UNL     1       5.428   0.837  23.748  0.00  0.00    +0.277 C 
ENDBRANCH  28   2
BRANCH  30   3
ATOM      3  O   UNL     1       3.729  -1.499  22.750  0.00  0.00    -0.491 OA
ATOM     32  C   UNL     1       4.471  -2.062  23.831  0.00  0.00    +0.277 C 
ENDBRANCH  30   3
ENDBRANCH  18  22
ENDBRANCH   9  16
BRANCH  10  15
ATOM     15  C   UNL     1      -5.540   0.503  24.636  0.00  0.00    +0.123 C 
BRANCH  15   6
ATOM      1  O   UNL     1      -4.353  -1.814  23.477  0.00  0.00    -0.275 OA
ATOM      6  N   UNL     1      -4.385  -0.190  25.120  0.00  0.00    -0.313 N 
ATOM     20  C   UNL     1      -3.863  -1.321  24.494  0.00  0.00    +0.218 C 
ATOM     33  H   UNL     1      -3.957   0.151  25.974  0.00  0.00    +0.149 HD
BRANCH  20  21
ATOM     21  C   UNL     1      -2.612  -1.915  25.175  0.00  0.00    +0.039 C 
ATOM     23  C   UNL     1      -1.873  -0.824  25.964  0.00  0.00    +0.020 C 
ATOM     24  C   UNL     1      -3.040  -3.024  26.153  0.00  0.00    +0.020 C 
ATOM     25  C   UNL     1      -1.679  -2.528  24.118  0.00  0.00    +0.020 C 
ENDBRANCH  20  21
ENDBRANCH  15   6
ENDBRANCH  10  15
TORSDOF 7
ENDMDL
MODEL 2
REMARK VINA RESULT:       4.6      1.981      4.379
REMARK  Name = 40779513
REMARK  13 active torsions:
REMARK  status: ('A' for Active; 'I' for Inactive)
REMARK    1  A    between atoms: O_2  and  C_28
REMARK    2  A    between atoms: O_2  and  C_31
REMARK    3  A    between atoms: O_3  and  C_30
REMARK    4  A    between atoms: O_3  and  C_32
REMARK    5  A    between atoms: N_5  and  C_19
REMARK    6  A    between atoms: N_6  and  C_15
REMARK    7  A    between atoms: C_9  and  C_16
REMARK    8  A    between atoms: C_10  and  C_15
REMARK    9  A    between atoms: C_18  and  C_22
REMARK   10  A    between atoms: C_20  and  C_21
REMARK   11  A    between atoms: C_21  and  C_23
REMARK   12  A    between atoms: C_21  and  C_24
REMARK   13  A    between atoms: C_21  and  C_25
REMARK                            x       y       z     vdW  Elec       q    Type
REMARK                         _______ _______ _______ _____ _____    ______ ____
ROOT
ATOM      4  N   UNL     1      -5.591   2.058  26.433  0.00  0.00    -0.297 NA
ATOM      8  C   UNL     1      -5.088   1.502  23.939  0.00  0.00    +0.002 C 
ATOM      9  C   UNL     1      -4.429   0.450  24.874  0.00  0.00    +0.055 C 
ATOM     10  C   UNL     1      -5.080   3.268  25.735  0.00  0.00    +0.074 C 
ATOM     11  C   UNL     1      -4.583   2.910  24.318  0.00  0.00    +0.024 C 
ATOM     12  C   UNL     1      -6.604   1.470  24.231  0.00  0.00    +0.019 C 
ATOM     13  C   UNL     1      -4.600   0.958  26.334  0.00  0.00    +0.094 C 
ATOM     14  C   UNL     1      -6.832   1.627  25.745  0.00  0.00    +0.085 C 
ENDROOT
BRANCH   9  16
ATOM      5  N   UNL     1      -2.582  -1.277  24.660  0.00  0.00    -0.270 N 
ATOM      7  N   UNL     1      -1.285  -1.449  24.357  0.00  0.00    -0.171 NA
ATOM     16  C   UNL     1      -3.001   0.018  24.576  0.00  0.00    +0.044 A 
ATOM     17  C   UNL     1      -1.900   0.744  24.192  0.00  0.00    +0.053 A 
ATOM     18  C   UNL     1      -0.873  -0.211  24.072  0.00  0.00    +0.093 A 
ATOM     19  C   UNL     1      -3.379  -2.424  25.031  0.00  0.00    +0.172 C 
BRANCH  18  22
ATOM     22  C   UNL     1       0.494   0.036  23.693  0.00  0.00    +0.006 A 
ATOM     26  C   UNL     1       1.387  -1.028  23.567  0.00  0.00    +0.059 A 
ATOM     27  C   UNL     1       0.925   1.341  23.453  0.00  0.00    +0.014 A 
ATOM     28  C   UNL     1       2.711  -0.787  23.201  0.00  0.00    +0.162 A 
ATOM     29  C   UNL     1       2.250   1.581  23.086  0.00  0.00    +0.050 A 
ATOM     30  C   UNL     1       3.143   0.517  22.960  0.00  0.00    +0.162 A 
BRANCH  28   2
ATOM      2  O   UNL     1       3.575  -1.835  23.080  0.00  0.00    -0.491 OA
ATOM     31  C   UNL     1       4.622  -1.924  24.045  0.00  0.00    +0.277 C 
ENDBRANCH  28   2
BRANCH  30   3
ATOM      3  O   UNL     1       4.433   0.764  22.600  0.00  0.00    -0.491 OA
ATOM     32  C   UNL     1       5.397   0.832  23.649  0.00  0.00    +0.277 C 
ENDBRANCH  30   3
ENDBRANCH  18  22
ENDBRANCH   9  16
BRANCH  10  15
ATOM     15  C   UNL     1      -4.009   3.999  26.547  0.00  0.00    +0.123 C 
BRANCH  15   6
ATOM      1  O   UNL     1      -2.351   5.921  25.252  0.00  0.00    -0.275 OA
ATOM      6  N   UNL     1      -2.707   3.765  26.001  0.00  0.00    -0.313 N 
ATOM     20  C   UNL     1      -1.955   4.762  25.380  0.00  0.00    +0.218 C 
ATOM     33  H   UNL     1      -2.341   2.820  26.049  0.00  0.00    +0.149 HD
BRANCH  20  21
ATOM     21  C   UNL     1      -0.576   4.302  24.864  0.00  0.00    +0.039 C 
ATOM     23  C   UNL     1       0.071   3.340  25.871  0.00  0.00    +0.020 C 
ATOM     24  C   UNL     1      -0.752   3.565  23.523  0.00  0.00    +0.020 C 
ATOM     25  C   UNL     1       0.334   5.520  24.637  0.00  0.00    +0.020 C 
ENDBRANCH  20  21
ENDBRANCH  15   6
ENDBRANCH  10  15
TORSDOF 7
ENDMDL
MODEL 3
REMARK VINA RESULT:       5.6      1.906      4.210
REMARK  Name = 40779513
REMARK  13 active torsions:
REMARK  status: ('A' for Active; 'I' for Inactive)
REMARK    1  A    between atoms: O_2  and  C_28
REMARK    2  A    between atoms: O_2  and  C_31
REMARK    3  A    between atoms: O_3  and  C_30
REMARK    4  A    between atoms: O_3  and  C_32
REMARK    5  A    between atoms: N_5  and  C_19
REMARK    6  A    between atoms: N_6  and  C_15
REMARK    7  A    between atoms: C_9  and  C_16
REMARK    8  A    between atoms: C_10  and  C_15
REMARK    9  A    between atoms: C_18  and  C_22
REMARK   10  A    between atoms: C_20  and  C_21
REMARK   11  A    between atoms: C_21  and  C_23
REMARK   12  A    between atoms: C_21  and  C_24
REMARK   13  A    between atoms: C_21  and  C_25
REMARK                            x       y       z     vdW  Elec       q    Type
REMARK                         _______ _______ _______ _____ _____    ______ ____
ROOT
ATOM      4  N   UNL     1      -5.348   2.323  26.541  0.00  0.00    -0.297 NA
ATOM      8  C   UNL     1      -5.347   1.334  24.132  0.00  0.00    +0.002 C 
ATOM      9  C   UNL     1      -4.694   0.337  25.129  0.00  0.00    +0.055 C 
ATOM     10  C   UNL     1      -4.797   3.319  25.583  0.00  0.00    +0.074 C 
ATOM     11  C   UNL     1      -4.596   2.681  24.191  0.00  0.00    +0.024 C 
ATOM     12  C   UNL     1      -6.783   1.592  24.637  0.00  0.00    +0.019 C 
ATOM     13  C   UNL     1      -4.548   1.074  26.491  0.00  0.00    +0.094 C 
ATOM     14  C   UNL     1      -6.733   2.004  26.119  0.00  0.00    +0.085 C 
ENDROOT
BRANCH   9  16
ATOM      5  N   UNL     1      -3.378  -1.633  24.220  0.00  0.00    -0.270 N 
ATOM      7  N   UNL     1      -2.145  -2.065  23.908  0.00  0.00    -0.171 NA
ATOM     16  C   UNL     1      -3.409  -0.360  24.710  0.00  0.00    +0.044 A 
ATOM     17  C   UNL     1      -2.103   0.069  24.719  0.00  0.00    +0.053 A 
ATOM     18  C   UNL     1      -1.370  -1.022  24.216  0.00  0.00    +0.093 A 
ATOM     19  C   UNL     1      -4.506  -2.513  24.019  0.00  0.00    +0.172 C 
BRANCH  18  22
ATOM     22  C   UNL     1       0.055  -1.086  24.024  0.00  0.00    +0.006 A 
ATOM     26  C   UNL     1       0.663  -0.311  23.036  0.00  0.00    +0.059 A 
ATOM     27  C   UNL     1       0.829  -1.925  24.826  0.00  0.00    +0.014 A 
ATOM     28  C   UNL     1       2.043  -0.375  22.850  0.00  0.00    +0.162 A 
ATOM     29  C   UNL     1       2.211  -1.988  24.640  0.00  0.00    +0.050 A 
ATOM     30  C   UNL     1       2.817  -1.213  23.652  0.00  0.00    +0.162 A 
BRANCH  28   2
ATOM      2  O   UNL     1       2.625   0.387  21.881  0.00  0.00    -0.491 OA
ATOM     31  C   UNL     1       3.684   1.252  22.288  0.00  0.00    +0.277 C 
ENDBRANCH  28   2
BRANCH  30   3
ATOM      3  O   UNL     1       4.167  -1.283  23.481  0.00  0.00    -0.491 OA
ATOM     32  C   UNL     1       4.976  -0.554  24.403  0.00  0.00    +0.277 C 
ENDBRANCH  30   3
ENDBRANCH  18  22
ENDBRANCH   9  16
BRANCH  10  15
ATOM     15  C   UNL     1      -3.516   3.977  26.099  0.00  0.00    +0.123 C 
BRANCH  15   6
ATOM      1  O   UNL     1      -0.972   2.741  26.445  0.00  0.00    -0.275 OA
ATOM      6  N   UNL     1      -2.473   3.897  25.123  0.00  0.00    -0.313 N 
ATOM     20  C   UNL     1      -1.251   3.272  25.370  0.00  0.00    +0.218 C 
ATOM     33  H   UNL     1      -2.633   4.345  24.227  0.00  0.00    +0.149 HD
BRANCH  20  21
ATOM     21  C   UNL     1      -0.265   3.294  24.183  0.00  0.00    +0.039 C 
ATOM     23  C   UNL     1       0.990   2.476  24.525  0.00  0.00    +0.020 C 
ATOM     24  C   UNL     1      -0.937   2.668  22.948  0.00  0.00    +0.020 C 
ATOM     25  C   UNL     1       0.124   4.743  23.848  0.00  0.00    +0.020 C 
ENDBRANCH  20  21
ENDBRANCH  15   6
ENDBRANCH  10  15
TORSDOF 7
ENDMDL
