MODEL 1
REMARK VINA RESULT:      -2.6      0.000      0.000
REMARK  Name = 26743534
REMARK  7 active torsions:
REMARK  status: ('A' for Active; 'I' for Inactive)
REMARK    1  A    between atoms: S_1  and  C_23
REMARK    2  A    between atoms: S_1  and  C_25
REMARK    3  A    between atoms: O_2  and  C_13
REMARK    4  A    between atoms: N_6  and  C_15
REMARK    5  A    between atoms: C_11  and  C_16
REMARK    6  A    between atoms: C_15  and  C_17
REMARK    7  A    between atoms: C_20  and  C_24
REMARK                            x       y       z     vdW  Elec       q    Type
REMARK                         _______ _______ _______ _____ _____    ______ ____
ROOT
ATOM      6  N   UNL     1      -5.883 -10.021  15.783  0.00  0.00    -0.285 NA
ATOM     11  C   UNL     1      -7.159 -10.752  15.933  0.00  0.00    +0.149 C 
ATOM     12  C   UNL     1      -7.731 -10.273  17.281  0.00  0.00    +0.061 C 
ATOM     13  C   UNL     1      -6.685  -9.312  17.834  0.00  0.00    +0.130 C 
ATOM     14  C   UNL     1      -5.408  -9.738  17.136  0.00  0.00    +0.116 C 
ENDROOT
BRANCH  11  16
ATOM      3  O   UNL     1      -9.391 -10.207  15.099  0.00  0.00    -0.336 OA
ATOM      7  N   UNL     1      -7.873 -10.555  13.489  0.00  0.00    -0.189 NA
ATOM      8  N   UNL     1     -10.065 -10.034  13.883  0.00  0.00    -0.054 NA
ATOM     16  C   UNL     1      -8.106 -10.512  14.776  0.00  0.00    +0.245 A 
ATOM     20  C   UNL     1      -9.103 -10.255  12.982  0.00  0.00    +0.222 A 
BRANCH  20  24
ATOM      9  N   UNL     1      -8.389  -9.581  10.826  0.00  0.00    -0.249 NA
ATOM     10  N   UNL     1     -10.719 -10.643   9.681  0.00  0.00    -0.260 NA
ATOM     24  C   UNL     1      -9.339 -10.183  11.569  0.00  0.00    +0.129 A 
ATOM     26  C   UNL     1     -10.484 -10.704  11.007  0.00  0.00    +0.142 A 
ATOM     27  C   UNL     1      -8.624  -9.520   9.500  0.00  0.00    +0.131 A 
ATOM     28  C   UNL     1      -9.768 -10.041   8.938  0.00  0.00    +0.130 A 
ENDBRANCH  20  24
ENDBRANCH  11  16
BRANCH  13   2
ATOM      2  O   UNL     1      -6.583  -9.438  19.239  0.00  0.00    -0.390 OA
ATOM     29  H   UNL     1      -7.466  -9.276  19.612  0.00  0.00    +0.210 HD
ENDBRANCH  13   2
BRANCH   6  15
ATOM     15  C   UNL     1      -4.896 -10.745  14.995  0.00  0.00    +0.120 C 
BRANCH  15  17
ATOM     17  C   UNL     1      -4.822 -10.235  13.581  0.00  0.00    -0.033 A 
ATOM     18  C   UNL     1      -5.680  -9.218  13.161  0.00  0.00    +0.007 A 
ATOM     19  C   UNL     1      -3.897 -10.778  12.690  0.00  0.00    +0.007 A 
ATOM     21  C   UNL     1      -5.612  -8.745  11.851  0.00  0.00    +0.027 A 
ATOM     22  C   UNL     1      -3.828 -10.304  11.380  0.00  0.00    +0.027 A 
ATOM     23  C   UNL     1      -4.685  -9.287  10.961  0.00  0.00    +0.088 A 
BRANCH  23   1
ATOM      1  S   UNL     1      -4.599  -8.692   9.322  0.00  0.00    -0.006 S 
ATOM      4  O   UNL     1      -5.628  -7.678   9.132  0.00  0.00    -0.170 OA
ATOM      5  O   UNL     1      -3.208  -8.373   9.033  0.00  0.00    -0.170 OA
ATOM     25  C   UNL     1      -5.059 -10.089   8.319  0.00  0.00    +0.200 C 
ENDBRANCH  23   1
ENDBRANCH  15  17
ENDBRANCH   6  15
TORSDOF 6
ENDMDL
MODEL 2
REMARK VINA RESULT:       0.2      2.470      3.601
REMARK  Name = 26743534
REMARK  7 active torsions:
REMARK  status: ('A' for Active; 'I' for Inactive)
REMARK    1  A    between atoms: S_1  and  C_23
REMARK    2  A    between atoms: S_1  and  C_25
REMARK    3  A    between atoms: O_2  and  C_13
REMARK    4  A    between atoms: N_6  and  C_15
REMARK    5  A    between atoms: C_11  and  C_16
REMARK    6  A    between atoms: C_15  and  C_17
REMARK    7  A    between atoms: C_20  and  C_24
REMARK                            x       y       z     vdW  Elec       q    Type
REMARK                         _______ _______ _______ _____ _____    ______ ____
ROOT
ATOM      6  N   UNL     1      -4.991  -9.999  16.466  0.00  0.00    -0.285 NA
ATOM     11  C   UNL     1      -6.196 -10.687  15.960  0.00  0.00    +0.149 C 
ATOM     12  C   UNL     1      -7.352 -10.140  16.818  0.00  0.00    +0.061 C 
ATOM     13  C   UNL     1      -6.692  -9.188  17.807  0.00  0.00    +0.130 C 
ATOM     14  C   UNL     1      -5.257  -9.676  17.866  0.00  0.00    +0.116 C 
ENDROOT
BRANCH  11  16
ATOM      3  O   UNL     1      -7.690 -10.581  14.028  0.00  0.00    -0.336 OA
ATOM      7  N   UNL     1      -5.540 -10.178  13.544  0.00  0.00    -0.189 NA
ATOM      8  N   UNL     1      -7.639 -10.340  12.649  0.00  0.00    -0.054 NA
ATOM     16  C   UNL     1      -6.413 -10.467  14.477  0.00  0.00    +0.245 A 
ATOM     20  C   UNL     1      -6.339 -10.110  12.441  0.00  0.00    +0.222 A 
BRANCH  20  24
ATOM      9  N   UNL     1      -5.893 -10.781  10.213  0.00  0.00    -0.249 NA
ATOM     10  N   UNL     1      -4.733  -8.289   9.655  0.00  0.00    -0.260 NA
ATOM     24  C   UNL     1      -5.808  -9.809  11.143  0.00  0.00    +0.129 A 
ATOM     26  C   UNL     1      -5.237  -8.585  10.870  0.00  0.00    +0.142 A 
ATOM     27  C   UNL     1      -5.390 -10.484   8.998  0.00  0.00    +0.131 A 
ATOM     28  C   UNL     1      -4.819  -9.260   8.724  0.00  0.00    +0.130 A 
ENDBRANCH  20  24
ENDBRANCH  11  16
BRANCH  13   2
ATOM      2  O   UNL     1      -7.323  -9.261  19.071  0.00  0.00    -0.390 OA
ATOM     29  H   UNL     1      -8.161  -9.740  18.952  0.00  0.00    +0.210 HD
ENDBRANCH  13   2
BRANCH   6  15
ATOM     15  C   UNL     1      -3.773 -10.781  16.305  0.00  0.00    +0.120 C 
BRANCH  15  17
ATOM     17  C   UNL     1      -2.962 -10.320  15.124  0.00  0.00    -0.033 A 
ATOM     18  C   UNL     1      -1.772  -9.620  15.325  0.00  0.00    +0.007 A 
ATOM     19  C   UNL     1      -3.400 -10.593  13.828  0.00  0.00    +0.007 A 
ATOM     21  C   UNL     1      -1.021  -9.193  14.230  0.00  0.00    +0.027 A 
ATOM     22  C   UNL     1      -2.648 -10.166  12.733  0.00  0.00    +0.027 A 
ATOM     23  C   UNL     1      -1.458  -9.467  12.935  0.00  0.00    +0.088 A 
BRANCH  23   1
ATOM      1  S   UNL     1      -0.516  -8.934  11.565  0.00  0.00    -0.006 S 
ATOM      4  O   UNL     1       0.467  -9.960  11.241  0.00  0.00    -0.170 OA
ATOM      5  O   UNL     1      -1.438  -8.467  10.540  0.00  0.00    -0.170 OA
ATOM     25  C   UNL     1       0.387  -7.526  12.171  0.00  0.00    +0.200 C 
ENDBRANCH  23   1
ENDBRANCH  15  17
ENDBRANCH   6  15
TORSDOF 6
ENDMDL
MODEL 3
REMARK VINA RESULT:       0.6     14.972     17.472
REMARK  Name = 26743534
REMARK  7 active torsions:
REMARK  status: ('A' for Active; 'I' for Inactive)
REMARK    1  A    between atoms: S_1  and  C_23
REMARK    2  A    between atoms: S_1  and  C_25
REMARK    3  A    between atoms: O_2  and  C_13
REMARK    4  A    between atoms: N_6  and  C_15
REMARK    5  A    between atoms: C_11  and  C_16
REMARK    6  A    between atoms: C_15  and  C_17
REMARK    7  A    between atoms: C_20  and  C_24
REMARK                            x       y       z     vdW  Elec       q    Type
REMARK                         _______ _______ _______ _____ _____    ______ ____
ROOT
ATOM      6  N   UNL     1      -5.263   2.445  25.436  0.00  0.00    -0.285 NA
ATOM     11  C   UNL     1      -4.427   3.065  24.386  0.00  0.00    +0.149 C 
ATOM     12  C   UNL     1      -4.629   4.581  24.567  0.00  0.00    +0.061 C 
ATOM     13  C   UNL     1      -5.629   4.713  25.709  0.00  0.00    +0.130 C 
ATOM     14  C   UNL     1      -6.354   3.381  25.701  0.00  0.00    +0.116 C 
ENDROOT
BRANCH  11  16
ATOM      3  O   UNL     1      -2.318   3.000  25.620  0.00  0.00    -0.336 OA
ATOM      7  N   UNL     1      -2.237   2.001  23.617  0.00  0.00    -0.189 NA
ATOM      8  N   UNL     1      -1.010   2.519  25.476  0.00  0.00    -0.054 NA
ATOM     16  C   UNL     1      -2.973   2.652  24.481  0.00  0.00    +0.245 A 
ATOM     20  C   UNL     1      -1.042   1.943  24.271  0.00  0.00    +0.222 A 
BRANCH  20  24
ATOM      9  N   UNL     1      -0.132   0.222  22.921  0.00  0.00    -0.249 NA
ATOM     10  N   UNL     1       2.464   1.175  23.387  0.00  0.00    -0.260 NA
ATOM     24  C   UNL     1       0.103   1.301  23.693  0.00  0.00    +0.129 A 
ATOM     26  C   UNL     1       1.379   1.769  23.923  0.00  0.00    +0.142 A 
ATOM     27  C   UNL     1       0.953  -0.372  22.385  0.00  0.00    +0.131 A 
ATOM     28  C   UNL     1       2.228   0.096  22.615  0.00  0.00    +0.130 A 
ENDBRANCH  20  24
ENDBRANCH  11  16
BRANCH  13   2
ATOM      2  O   UNL     1      -6.513   5.793  25.480  0.00  0.00    -0.390 OA
ATOM     29  H   UNL     1      -6.274   6.503  26.100  0.00  0.00    +0.210 HD
ENDBRANCH  13   2
BRANCH   6  15
ATOM     15  C   UNL     1      -5.751   1.121  25.073  0.00  0.00    +0.120 C 
BRANCH  15  17
ATOM     17  C   UNL     1      -4.634   0.117  24.981  0.00  0.00    -0.033 A 
ATOM     18  C   UNL     1      -4.443  -0.609  23.805  0.00  0.00    +0.007 A 
ATOM     19  C   UNL     1      -3.788  -0.088  26.072  0.00  0.00    +0.007 A 
ATOM     21  C   UNL     1      -3.407  -1.539  23.721  0.00  0.00    +0.027 A 
ATOM     22  C   UNL     1      -2.752  -1.018  25.987  0.00  0.00    +0.027 A 
ATOM     23  C   UNL     1      -2.562  -1.743  24.811  0.00  0.00    +0.088 A 
BRANCH  23   1
ATOM      1  S   UNL     1      -1.264  -2.906  24.703  0.00  0.00    -0.006 S 
ATOM      4  O   UNL     1      -1.528  -3.996  25.633  0.00  0.00    -0.170 OA
ATOM      5  O   UNL     1      -1.038  -3.197  23.294  0.00  0.00    -0.170 OA
ATOM     25  C   UNL     1       0.161  -2.036  25.317  0.00  0.00    +0.200 C 
ENDBRANCH  23   1
ENDBRANCH  15  17
ENDBRANCH   6  15
TORSDOF 6
ENDMDL
MODEL 4
REMARK VINA RESULT:       0.8     16.243     19.022
REMARK  Name = 26743534
REMARK  7 active torsions:
REMARK  status: ('A' for Active; 'I' for Inactive)
REMARK    1  A    between atoms: S_1  and  C_23
REMARK    2  A    between atoms: S_1  and  C_25
REMARK    3  A    between atoms: O_2  and  C_13
REMARK    4  A    between atoms: N_6  and  C_15
REMARK    5  A    between atoms: C_11  and  C_16
REMARK    6  A    between atoms: C_15  and  C_17
REMARK    7  A    between atoms: C_20  and  C_24
REMARK                            x       y       z     vdW  Elec       q    Type
REMARK                         _______ _______ _______ _____ _____    ______ ____
ROOT
ATOM      6  N   UNL     1      -3.935   1.588  25.434  0.00  0.00    -0.285 NA
ATOM     11  C   UNL     1      -3.132   2.713  24.912  0.00  0.00    +0.149 C 
ATOM     12  C   UNL     1      -3.956   3.972  25.244  0.00  0.00    +0.061 C 
ATOM     13  C   UNL     1      -5.223   3.449  25.910  0.00  0.00    +0.130 C 
ATOM     14  C   UNL     1      -5.329   2.024  25.401  0.00  0.00    +0.116 C 
ENDROOT
BRANCH  11  16
ATOM      3  O   UNL     1      -0.719   2.977  24.626  0.00  0.00    -0.336 OA
ATOM      7  N   UNL     1      -1.354   2.605  26.742  0.00  0.00    -0.189 NA
ATOM      8  N   UNL     1       0.455   2.970  25.391  0.00  0.00    -0.054 NA
ATOM     16  C   UNL     1      -1.737   2.755  25.499  0.00  0.00    +0.245 A 
ATOM     20  C   UNL     1      -0.003   2.746  26.626  0.00  0.00    +0.222 A 
BRANCH  20  24
ATOM      9  N   UNL     1       2.157   2.984  27.569  0.00  0.00    -0.249 NA
ATOM     10  N   UNL     1       1.195   2.168  30.074  0.00  0.00    -0.260 NA
ATOM     24  C   UNL     1       0.864   2.657  27.765  0.00  0.00    +0.129 A 
ATOM     26  C   UNL     1       0.392   2.256  28.996  0.00  0.00    +0.142 A 
ATOM     27  C   UNL     1       2.961   2.896  28.648  0.00  0.00    +0.131 A 
ATOM     28  C   UNL     1       2.488   2.494  29.878  0.00  0.00    +0.130 A 
ENDBRANCH  20  24
ENDBRANCH  11  16
BRANCH  13   2
ATOM      2  O   UNL     1      -6.344   4.226  25.533  0.00  0.00    -0.390 OA
ATOM     29  H   UNL     1      -6.557   4.812  26.280  0.00  0.00    +0.210 HD
ENDBRANCH  13   2
BRANCH   6  15
ATOM     15  C   UNL     1      -3.730   0.347  24.698  0.00  0.00    +0.120 C 
BRANCH  15  17
ATOM     17  C   UNL     1      -2.316   0.217  24.200  0.00  0.00    -0.033 A 
ATOM     18  C   UNL     1      -1.940   0.825  23.002  0.00  0.00    +0.007 A 
ATOM     19  C   UNL     1      -1.381  -0.511  24.936  0.00  0.00    +0.007 A 
ATOM     21  C   UNL     1      -0.629   0.704  22.541  0.00  0.00    +0.027 A 
ATOM     22  C   UNL     1      -0.070  -0.631  24.474  0.00  0.00    +0.027 A 
ATOM     23  C   UNL     1       0.305  -0.023  23.277  0.00  0.00    +0.088 A 
BRANCH  23   1
ATOM      1  S   UNL     1       1.946  -0.171  22.700  0.00  0.00    -0.006 S 
ATOM      4  O   UNL     1       2.640  -1.171  23.502  0.00  0.00    -0.170 OA
ATOM      5  O   UNL     1       1.902  -0.311  21.251  0.00  0.00    -0.170 OA
ATOM     25  C   UNL     1       2.691   1.401  23.075  0.00  0.00    +0.200 C 
ENDBRANCH  23   1
ENDBRANCH  15  17
ENDBRANCH   6  15
TORSDOF 6
ENDMDL
MODEL 5
REMARK VINA RESULT:       1.1      3.289      4.135
REMARK  Name = 26743534
REMARK  7 active torsions:
REMARK  status: ('A' for Active; 'I' for Inactive)
REMARK    1  A    between atoms: S_1  and  C_23
REMARK    2  A    between atoms: S_1  and  C_25
REMARK    3  A    between atoms: O_2  and  C_13
REMARK    4  A    between atoms: N_6  and  C_15
REMARK    5  A    between atoms: C_11  and  C_16
REMARK    6  A    between atoms: C_15  and  C_17
REMARK    7  A    between atoms: C_20  and  C_24
REMARK                            x       y       z     vdW  Elec       q    Type
REMARK                         _______ _______ _______ _____ _____    ______ ____
ROOT
ATOM      6  N   UNL     1      -4.150 -10.089  15.605  0.00  0.00    -0.285 NA
ATOM     11  C   UNL     1      -5.295 -10.758  14.954  0.00  0.00    +0.149 C 
ATOM     12  C   UNL     1      -6.511 -10.395  15.827  0.00  0.00    +0.061 C 
ATOM     13  C   UNL     1      -5.942  -9.560  16.968  0.00  0.00    +0.130 C 
ATOM     14  C   UNL     1      -4.486  -9.981  17.023  0.00  0.00    +0.116 C 
ENDROOT
BRANCH  11  16
ATOM      3  O   UNL     1      -4.515 -10.766  12.637  0.00  0.00    -0.336 OA
ATOM      7  N   UNL     1      -6.412  -9.619  12.959  0.00  0.00    -0.189 NA
ATOM      8  N   UNL     1      -4.884 -10.262  11.383  0.00  0.00    -0.054 NA
ATOM     16  C   UNL     1      -5.468 -10.341  13.508  0.00  0.00    +0.245 A 
ATOM     20  C   UNL     1      -6.011  -9.598  11.656  0.00  0.00    +0.222 A 
BRANCH  20  24
ATOM      9  N   UNL     1      -8.102  -9.023  10.702  0.00  0.00    -0.249 NA
ATOM     10  N   UNL     1      -6.823  -7.504   8.721  0.00  0.00    -0.260 NA
ATOM     24  C   UNL     1      -6.760  -8.905  10.648  0.00  0.00    +0.129 A 
ATOM     26  C   UNL     1      -6.132  -8.159   9.675  0.00  0.00    +0.142 A 
ATOM     27  C   UNL     1      -8.793  -8.368   9.748  0.00  0.00    +0.131 A 
ATOM     28  C   UNL     1      -8.165  -7.621   8.775  0.00  0.00    +0.130 A 
ENDBRANCH  20  24
ENDBRANCH  11  16
BRANCH  13   2
ATOM      2  O   UNL     1      -6.616  -9.841  18.179  0.00  0.00    -0.390 OA
ATOM     29  H   UNL     1      -6.908  -8.993  18.554  0.00  0.00    +0.210 HD
ENDBRANCH  13   2
BRANCH   6  15
ATOM     15  C   UNL     1      -2.885 -10.781  15.392  0.00  0.00    +0.120 C 
BRANCH  15  17
ATOM     17  C   UNL     1      -1.914  -9.944  14.605  0.00  0.00    -0.033 A 
ATOM     18  C   UNL     1      -1.860 -10.058  13.215  0.00  0.00    +0.007 A 
ATOM     19  C   UNL     1      -1.066  -9.053  15.263  0.00  0.00    +0.007 A 
ATOM     21  C   UNL     1      -0.960  -9.281  12.486  0.00  0.00    +0.027 A 
ATOM     22  C   UNL     1      -0.165  -8.277  14.534  0.00  0.00    +0.027 A 
ATOM     23  C   UNL     1      -0.113  -8.391  13.145  0.00  0.00    +0.088 A 
BRANCH  23   1
ATOM      1  S   UNL     1       1.012  -7.418  12.231  0.00  0.00    -0.006 S 
ATOM      4  O   UNL     1       0.429  -6.100  12.015  0.00  0.00    -0.170 OA
ATOM      5  O   UNL     1       2.320  -7.536  12.858  0.00  0.00    -0.170 OA
ATOM     25  C   UNL     1       1.094  -8.213  10.641  0.00  0.00    +0.200 C 
ENDBRANCH  23   1
ENDBRANCH  15  17
ENDBRANCH   6  15
TORSDOF 6
ENDMDL
MODEL 6
REMARK VINA RESULT:       1.2     14.327     17.199
REMARK  Name = 26743534
REMARK  7 active torsions:
REMARK  status: ('A' for Active; 'I' for Inactive)
REMARK    1  A    between atoms: S_1  and  C_23
REMARK    2  A    between atoms: S_1  and  C_25
REMARK    3  A    between atoms: O_2  and  C_13
REMARK    4  A    between atoms: N_6  and  C_15
REMARK    5  A    between atoms: C_11  and  C_16
REMARK    6  A    between atoms: C_15  and  C_17
REMARK    7  A    between atoms: C_20  and  C_24
REMARK                            x       y       z     vdW  Elec       q    Type
REMARK                         _______ _______ _______ _____ _____    ______ ____
ROOT
ATOM      6  N   UNL     1      -3.717   3.990  25.237  0.00  0.00    -0.285 NA
ATOM     11  C   UNL     1      -4.595   3.026  25.932  0.00  0.00    +0.149 C 
ATOM     12  C   UNL     1      -6.014   3.607  25.781  0.00  0.00    +0.061 C 
ATOM     13  C   UNL     1      -5.824   4.919  25.029  0.00  0.00    +0.130 C 
ATOM     14  C   UNL     1      -4.382   5.288  25.317  0.00  0.00    +0.116 C 
ENDROOT
BRANCH  11  16
ATOM      3  O   UNL     1      -5.569   1.127  24.740  0.00  0.00    -0.336 OA
ATOM      7  N   UNL     1      -3.459   0.798  25.417  0.00  0.00    -0.189 NA
ATOM      8  N   UNL     1      -5.222  -0.164  24.322  0.00  0.00    -0.054 NA
ATOM     16  C   UNL     1      -4.475   1.623  25.376  0.00  0.00    +0.245 A 
ATOM     20  C   UNL     1      -3.965  -0.284  24.758  0.00  0.00    +0.222 A 
BRANCH  20  24
ATOM      9  N   UNL     1      -1.868  -1.385  24.814  0.00  0.00    -0.249 NA
ATOM     10  N   UNL     1      -3.047  -3.759  23.897  0.00  0.00    -0.260 NA
ATOM     24  C   UNL     1      -3.187  -1.471  24.549  0.00  0.00    +0.129 A 
ATOM     26  C   UNL     1      -3.766  -2.637  24.098  0.00  0.00    +0.142 A 
ATOM     27  C   UNL     1      -1.149  -2.508  24.614  0.00  0.00    +0.131 A 
ATOM     28  C   UNL     1      -1.728  -3.673  24.162  0.00  0.00    +0.130 A 
ENDBRANCH  20  24
ENDBRANCH  11  16
BRANCH  13   2
ATOM      2  O   UNL     1      -6.723   5.903  25.503  0.00  0.00    -0.390 OA
ATOM     29  H   UNL     1      -6.886   5.720  26.444  0.00  0.00    +0.210 HD
ENDBRANCH  13   2
BRANCH   6  15
ATOM     15  C   UNL     1      -2.366   4.030  25.782  0.00  0.00    +0.120 C 
BRANCH  15  17
ATOM     17  C   UNL     1      -1.454   3.050  25.095  0.00  0.00    -0.033 A 
ATOM     18  C   UNL     1      -0.355   2.525  25.775  0.00  0.00    +0.007 A 
ATOM     19  C   UNL     1      -1.707   2.666  23.778  0.00  0.00    +0.007 A 
ATOM     21  C   UNL     1       0.490   1.615  25.138  0.00  0.00    +0.027 A 
ATOM     22  C   UNL     1      -0.863   1.756  23.141  0.00  0.00    +0.027 A 
ATOM     23  C   UNL     1       0.235   1.231  23.822  0.00  0.00    +0.088 A 
BRANCH  23   1
ATOM      1  S   UNL     1       1.292   0.091  23.027  0.00  0.00    -0.006 S 
ATOM      4  O   UNL     1       1.525  -1.038  23.918  0.00  0.00    -0.170 OA
ATOM      5  O   UNL     1       0.774  -0.140  21.686  0.00  0.00    -0.170 OA
ATOM     25  C   UNL     1       2.840   0.956  22.873  0.00  0.00    +0.200 C 
ENDBRANCH  23   1
ENDBRANCH  15  17
ENDBRANCH   6  15
TORSDOF 6
ENDMDL
MODEL 7
REMARK VINA RESULT:       1.3     14.188     17.405
REMARK  Name = 26743534
REMARK  7 active torsions:
REMARK  status: ('A' for Active; 'I' for Inactive)
REMARK    1  A    between atoms: S_1  and  C_23
REMARK    2  A    between atoms: S_1  and  C_25
REMARK    3  A    between atoms: O_2  and  C_13
REMARK    4  A    between atoms: N_6  and  C_15
REMARK    5  A    between atoms: C_11  and  C_16
REMARK    6  A    between atoms: C_15  and  C_17
REMARK    7  A    between atoms: C_20  and  C_24
REMARK                            x       y       z     vdW  Elec       q    Type
REMARK                         _______ _______ _______ _____ _____    ______ ____
ROOT
ATOM      6  N   UNL     1      -3.965  -0.950  23.917  0.00  0.00    -0.285 NA
ATOM     11  C   UNL     1      -2.960  -1.290  24.945  0.00  0.00    +0.149 C 
ATOM     12  C   UNL     1      -2.860  -2.827  24.903  0.00  0.00    +0.061 C 
ATOM     13  C   UNL     1      -3.879  -3.260  23.856  0.00  0.00    +0.130 C 
ATOM     14  C   UNL     1      -4.857  -2.103  23.813  0.00  0.00    +0.116 C 
ENDROOT
BRANCH  11  16
ATOM      3  O   UNL     1      -1.241   0.307  25.629  0.00  0.00    -0.336 OA
ATOM      7  N   UNL     1      -0.778  -0.773  23.722  0.00  0.00    -0.189 NA
ATOM      8  N   UNL     1      -0.000   0.792  25.197  0.00  0.00    -0.054 NA
ATOM     16  C   UNL     1      -1.629  -0.610  24.704  0.00  0.00    +0.245 A 
ATOM     20  C   UNL     1       0.204   0.107  24.068  0.00  0.00    +0.222 A 
BRANCH  20  24
ATOM      9  N   UNL     1       2.324   1.114  23.742  0.00  0.00    -0.249 NA
ATOM     10  N   UNL     1       2.626  -0.226  21.296  0.00  0.00    -0.260 NA
ATOM     24  C   UNL     1       1.379   0.279  23.264  0.00  0.00    +0.129 A 
ATOM     26  C   UNL     1       1.527  -0.379  22.062  0.00  0.00    +0.142 A 
ATOM     27  C   UNL     1       3.422   1.266  22.976  0.00  0.00    +0.131 A 
ATOM     28  C   UNL     1       3.570   0.608  21.774  0.00  0.00    +0.130 A 
ENDBRANCH  20  24
ENDBRANCH  11  16
BRANCH  13   2
ATOM      2  O   UNL     1      -4.510  -4.467  24.240  0.00  0.00    -0.390 OA
ATOM     29  H   UNL     1      -5.263  -4.606  23.641  0.00  0.00    +0.210 HD
ENDBRANCH  13   2
BRANCH   6  15
ATOM     15  C   UNL     1      -4.690   0.280  24.208  0.00  0.00    +0.120 C 
BRANCH  15  17
ATOM     17  C   UNL     1      -3.763   1.459  24.342  0.00  0.00    -0.033 A 
ATOM     18  C   UNL     1      -3.741   2.198  25.525  0.00  0.00    +0.007 A 
ATOM     19  C   UNL     1      -2.926   1.812  23.284  0.00  0.00    +0.007 A 
ATOM     21  C   UNL     1      -2.882   3.290  25.649  0.00  0.00    +0.027 A 
ATOM     22  C   UNL     1      -2.067   2.904  23.408  0.00  0.00    +0.027 A 
ATOM     23  C   UNL     1      -2.045   3.642  24.591  0.00  0.00    +0.088 A 
BRANCH  23   1
ATOM      1  S   UNL     1      -0.968   5.008  24.748  0.00  0.00    -0.006 S 
ATOM      4  O   UNL     1      -1.761   6.213  24.953  0.00  0.00    -0.170 OA
ATOM      5  O   UNL     1       0.069   4.653  25.705  0.00  0.00    -0.170 OA
ATOM     25  C   UNL     1      -0.207   5.157  23.146  0.00  0.00    +0.200 C 
ENDBRANCH  23   1
ENDBRANCH  15  17
ENDBRANCH   6  15
TORSDOF 6
ENDMDL
