MODEL 1
REMARK VINA RESULT:      13.1      0.000      0.000
REMARK  Name = 7135170
REMARK  11 active torsions:
REMARK  status: ('A' for Active; 'I' for Inactive)
REMARK    1  A    between atoms: O_2  and  C_15
REMARK    2  A    between atoms: O_3  and  C_20
REMARK    3  A    between atoms: N_8  and  C_26
REMARK    4  A    between atoms: C_10  and  C_18
REMARK    5  A    between atoms: C_12  and  C_20
REMARK    6  A    between atoms: C_12  and  C_21
REMARK    7  A    between atoms: C_13  and  C_23
REMARK    8  A    between atoms: C_23  and  C_24
REMARK    9  A    between atoms: C_26  and  C_28
REMARK   10  A    between atoms: C_26  and  C_29
REMARK   11  A    between atoms: C_27  and  C_30
REMARK                            x       y       z     vdW  Elec       q    Type
REMARK                         _______ _______ _______ _____ _____    ______ ____
ROOT
ATOM      1  S   UNL     1       0.420   2.076  26.000  0.00  0.00    -0.057 S 
ATOM      5  O   UNL     1       2.182   0.597  21.991  0.00  0.00    -0.266 OA
ATOM      7  N   UNL     1      -0.055   1.731  23.481  0.00  0.00    -0.229 NA
ATOM      9  N   UNL     1       2.128   1.086  24.274  0.00  0.00    -0.258 N 
ATOM     10  C   UNL     1      -3.702   2.783  24.157  0.00  0.00    -0.019 C 
ATOM     11  C   UNL     1      -3.285   3.752  25.349  0.00  0.00    +0.011 C 
ATOM     12  C   UNL     1      -4.453   4.435  26.161  0.00  0.00    +0.021 C 
ATOM     13  C   UNL     1      -2.422   2.566  23.226  0.00  0.00    +0.054 C 
ATOM     14  C   UNL     1      -4.813   3.457  23.310  0.00  0.00    +0.010 C 
ATOM     15  C   UNL     1      -5.497   5.015  25.164  0.00  0.00    +0.123 C 
ATOM     16  C   UNL     1      -2.191   3.106  26.250  0.00  0.00    +0.049 C 
ATOM     17  C   UNL     1      -5.974   3.997  24.133  0.00  0.00    +0.032 C 
ATOM     18  C   UNL     1      -4.219   1.409  24.651  0.00  0.00    +0.012 C 
ATOM     19  C   UNL     1      -1.198   2.260  24.051  0.00  0.00    +0.058 A 
ATOM     21  C   UNL     1      -3.877   5.629  26.972  0.00  0.00    +0.016 C 
ATOM     22  C   UNL     1      -1.109   2.527  25.402  0.00  0.00    +0.015 A 
ATOM     25  C   UNL     1       0.859   1.584  24.415  0.00  0.00    +0.165 A 
ATOM     27  C   UNL     1       2.735   0.617  23.087  0.00  0.00    +0.285 C 
ATOM     42  H   UNL     1       2.673   1.053  25.131  0.00  0.00    +0.157 HD
ENDROOT
BRANCH  27  30
ATOM      6  O   UNL     1       4.246  -1.193  23.666  0.00  0.00    -0.458 OA
ATOM     30  C   UNL     1       4.103   0.094  23.251  0.00  0.00    +0.189 A 
ATOM     33  C   UNL     1       5.333   0.677  23.056  0.00  0.00    +0.054 A 
ATOM     37  C   UNL     1       6.293  -0.313  23.372  0.00  0.00    +0.042 A 
ATOM     38  C   UNL     1       5.581  -1.432  23.737  0.00  0.00    +0.196 A 
ENDBRANCH  27  30
BRANCH  15   2
ATOM      2  O   UNL     1      -6.630   5.526  25.864  0.00  0.00    -0.391 OA
ATOM     39  H   UNL     1      -6.490   5.360  26.813  0.00  0.00    +0.210 HD
ENDBRANCH  15   2
BRANCH  12  20
ATOM     20  C   UNL     1      -5.134   3.517  27.198  0.00  0.00    +0.165 C 
BRANCH  20   3
ATOM      3  O   UNL     1      -6.206   2.862  26.557  0.00  0.00    -0.394 OA
ATOM     40  H   UNL     1      -5.826   2.189  25.968  0.00  0.00    +0.209 HD
ENDBRANCH  20   3
ENDBRANCH  12  20
BRANCH  13  23
ATOM     23  C   UNL     1      -2.616   1.537  22.104  0.00  0.00    +0.106 C 
BRANCH  23  24
ATOM      4  O   UNL     1      -1.050  -0.294  22.327  0.00  0.00    -0.276 OA
ATOM      8  N   UNL     1      -3.212  -0.527  23.149  0.00  0.00    -0.309 N 
ATOM     24  C   UNL     1      -2.176   0.153  22.525  0.00  0.00    +0.214 C 
ATOM     41  H   UNL     1      -4.091  -0.042  23.308  0.00  0.00    +0.149 HD
BRANCH   8  26
ATOM     26  C   UNL     1      -3.079  -1.876  23.654  0.00  0.00    +0.100 C 
ATOM     28  C   UNL     1      -4.416  -2.360  24.211  0.00  0.00    +0.033 C 
BRANCH  26  29
ATOM     29  C   UNL     1      -1.956  -1.981  24.663  0.00  0.00    -0.027 A 
ATOM     31  C   UNL     1      -0.943  -2.923  24.484  0.00  0.00    +0.005 A 
ATOM     32  C   UNL     1      -1.934  -1.137  25.773  0.00  0.00    +0.005 A 
ATOM     34  C   UNL     1       0.092  -3.020  25.414  0.00  0.00    +0.000 A 
ATOM     35  C   UNL     1      -0.900  -1.234  26.703  0.00  0.00    +0.000 A 
ATOM     36  C   UNL     1       0.114  -2.175  26.524  0.00  0.00    +0.000 A 
ENDBRANCH  26  29
ENDBRANCH   8  26
ENDBRANCH  23  24
ENDBRANCH  13  23
TORSDOF 8
ENDMDL
MODEL 2
REMARK VINA RESULT:      16.1      2.412      5.363
REMARK  Name = 7135170
REMARK  11 active torsions:
REMARK  status: ('A' for Active; 'I' for Inactive)
REMARK    1  A    between atoms: O_2  and  C_15
REMARK    2  A    between atoms: O_3  and  C_20
REMARK    3  A    between atoms: N_8  and  C_26
REMARK    4  A    between atoms: C_10  and  C_18
REMARK    5  A    between atoms: C_12  and  C_20
REMARK    6  A    between atoms: C_12  and  C_21
REMARK    7  A    between atoms: C_13  and  C_23
REMARK    8  A    between atoms: C_23  and  C_24
REMARK    9  A    between atoms: C_26  and  C_28
REMARK   10  A    between atoms: C_26  and  C_29
REMARK   11  A    between atoms: C_27  and  C_30
REMARK                            x       y       z     vdW  Elec       q    Type
REMARK                         _______ _______ _______ _____ _____    ______ ____
ROOT
ATOM      1  S   UNL     1       2.137  -1.950  23.245  0.00  0.00    -0.057 S 
ATOM      5  O   UNL     1       5.166   1.488  23.860  0.00  0.00    -0.266 OA
ATOM      7  N   UNL     1       2.410   0.534  23.917  0.00  0.00    -0.229 NA
ATOM      9  N   UNL     1       4.420  -0.663  23.336  0.00  0.00    -0.258 N 
ATOM     10  C   UNL     1      -1.436   0.792  24.028  0.00  0.00    -0.019 C 
ATOM     11  C   UNL     1      -1.604  -0.731  24.461  0.00  0.00    +0.011 C 
ATOM     12  C   UNL     1      -3.076  -1.290  24.559  0.00  0.00    +0.021 C 
ATOM     13  C   UNL     1       0.045   1.254  24.416  0.00  0.00    +0.054 C 
ATOM     14  C   UNL     1      -2.443   1.667  24.819  0.00  0.00    +0.010 C 
ATOM     15  C   UNL     1      -3.958  -0.273  25.338  0.00  0.00    +0.123 C 
ATOM     16  C   UNL     1      -0.633  -1.657  23.672  0.00  0.00    +0.049 C 
ATOM     17  C   UNL     1      -3.872   1.146  24.785  0.00  0.00    +0.032 C 
ATOM     18  C   UNL     1      -1.665   1.016  22.513  0.00  0.00    +0.012 C 
ATOM     19  C   UNL     1       1.062   0.231  23.981  0.00  0.00    +0.058 A 
ATOM     21  C   UNL     1      -3.064  -2.612  25.377  0.00  0.00    +0.016 C 
ATOM     22  C   UNL     1       0.739  -1.074  23.669  0.00  0.00    +0.015 A 
ATOM     25  C   UNL     1       3.070  -0.537  23.533  0.00  0.00    +0.165 A 
ATOM     27  C   UNL     1       5.405   0.336  23.503  0.00  0.00    +0.285 C 
ATOM     42  H   UNL     1       4.725  -1.583  23.031  0.00  0.00    +0.157 HD
ENDROOT
BRANCH  27  30
ATOM      6  O   UNL     1       7.804   0.678  23.643  0.00  0.00    -0.458 OA
ATOM     30  C   UNL     1       6.780  -0.080  23.171  0.00  0.00    +0.189 A 
ATOM     33  C   UNL     1       7.260  -1.142  22.442  0.00  0.00    +0.054 A 
ATOM     37  C   UNL     1       8.670  -1.029  22.465  0.00  0.00    +0.042 A 
ATOM     38  C   UNL     1       8.951   0.094  23.208  0.00  0.00    +0.196 A 
ENDBRANCH  27  30
BRANCH  15   2
ATOM      2  O   UNL     1      -5.324  -0.686  25.333  0.00  0.00    -0.391 OA
ATOM     39  H   UNL     1      -5.340  -1.650  25.201  0.00  0.00    +0.210 HD
ENDBRANCH  15   2
BRANCH  12  20
ATOM     20  C   UNL     1      -3.716  -1.647  23.201  0.00  0.00    +0.165 C 
BRANCH  20   3
ATOM      3  O   UNL     1      -4.688  -2.643  23.430  0.00  0.00    -0.394 OA
ATOM     40  H   UNL     1      -5.477  -2.403  22.915  0.00  0.00    +0.209 HD
ENDBRANCH  20   3
ENDBRANCH  12  20
BRANCH  13  23
ATOM     23  C   UNL     1       0.420   2.662  23.933  0.00  0.00    +0.106 C 
BRANCH  23  24
ATOM      4  O   UNL     1      -0.121   4.114  25.791  0.00  0.00    -0.276 OA
ATOM      8  N   UNL     1      -1.392   4.216  23.848  0.00  0.00    -0.309 N 
ATOM     24  C   UNL     1      -0.368   3.735  24.649  0.00  0.00    +0.214 C 
ATOM     41  H   UNL     1      -1.475   3.868  22.896  0.00  0.00    +0.149 HD
BRANCH   8  26
ATOM     26  C   UNL     1      -2.310   5.248  24.275  0.00  0.00    +0.100 C 
ATOM     28  C   UNL     1      -1.560   6.330  25.048  0.00  0.00    +0.033 C 
BRANCH  26  29
ATOM     29  C   UNL     1      -3.468   4.669  25.060  0.00  0.00    -0.027 A 
ATOM     31  C   UNL     1      -4.695   4.449  24.434  0.00  0.00    +0.005 A 
ATOM     32  C   UNL     1      -3.308   4.356  26.409  0.00  0.00    +0.005 A 
ATOM     34  C   UNL     1      -5.761   3.916  25.157  0.00  0.00    +0.000 A 
ATOM     35  C   UNL     1      -4.375   3.823  27.132  0.00  0.00    +0.000 A 
ATOM     36  C   UNL     1      -5.601   3.602  26.507  0.00  0.00    +0.000 A 
ENDBRANCH  26  29
ENDBRANCH   8  26
ENDBRANCH  23  24
ENDBRANCH  13  23
TORSDOF 8
ENDMDL
