MODEL 1
REMARK VINA RESULT:      -5.6      0.000      0.000
REMARK  Name = 51137597
REMARK  7 active torsions:
REMARK  status: ('A' for Active; 'I' for Inactive)
REMARK    1  A    between atoms: O_4  and  C_19
REMARK    2  A    between atoms: O_4  and  C_21
REMARK    3  A    between atoms: N_5  and  C_12
REMARK    4  A    between atoms: C_8  and  C_13
REMARK    5  A    between atoms: C_12  and  C_14
REMARK    6  A    between atoms: C_16  and  C_19
REMARK    7  A    between atoms: C_17  and  C_20
REMARK                            x       y       z     vdW  Elec       q    Type
REMARK                         _______ _______ _______ _____ _____    ______ ____
ROOT
ATOM      2  O   UNL     1      -1.785  -0.091  24.221  0.00  0.00    -0.421 OA
ATOM      6  N   UNL     1      -3.159  -1.856  24.207  0.00  0.00    -0.112 NA
ATOM      7  N   UNL     1      -1.864  -2.323  24.330  0.00  0.00    -0.109 NA
ATOM     13  C   UNL     1      -3.065  -0.548  24.148  0.00  0.00    +0.222 A 
ATOM     16  C   UNL     1      -1.096  -1.258  24.333  0.00  0.00    +0.254 A 
ENDROOT
BRANCH  13   8
ATOM      5  N   UNL     1      -4.697   2.707  24.554  0.00  0.00    -0.294 NA
ATOM      8  C   UNL     1      -4.154   0.491  24.013  0.00  0.00    +0.092 C 
ATOM      9  C   UNL     1      -5.180   0.504  25.158  0.00  0.00    +0.029 C 
ATOM     10  C   UNL     1      -3.610   1.924  23.962  0.00  0.00    +0.097 C 
ATOM     11  C   UNL     1      -5.141   1.925  25.708  0.00  0.00    +0.085 C 
BRANCH   5  12
ATOM     12  C   UNL     1      -4.277   4.051  24.924  0.00  0.00    +0.158 C 
BRANCH  12  14
ATOM      3  O   UNL     1      -2.145   3.115  25.634  0.00  0.00    -0.464 OA
ATOM     14  C   UNL     1      -2.779   4.158  25.039  0.00  0.00    +0.119 A 
ATOM     15  C   UNL     1      -1.873   5.121  24.659  0.00  0.00    +0.046 A 
ATOM     17  C   UNL     1      -0.819   3.413  25.633  0.00  0.00    +0.102 A 
ATOM     18  C   UNL     1      -0.600   4.637  25.045  0.00  0.00    +0.044 A 
ATOM     20  C   UNL     1       0.074   2.412  26.235  0.00  0.00    +0.086 C 
ENDBRANCH  12  14
ENDBRANCH   5  12
ENDBRANCH  13   8
BRANCH  16  19
ATOM     19  C   UNL     1       0.365  -1.160  24.442  0.00  0.00    +0.326 C 
BRANCH  19   4
ATOM      4  O   UNL     1       0.903  -0.482  23.303  0.00  0.00    -0.483 OA
BRANCH   4  21
ATOM      1  F   UNL     1       6.356   0.191  23.198  0.00  0.00    -0.205 F 
ATOM     21  C   UNL     1       2.259  -0.315  23.277  0.00  0.00    +0.121 A 
ATOM     22  C   UNL     1       3.096  -1.335  23.731  0.00  0.00    +0.048 A 
ATOM     23  C   UNL     1       2.805   0.875  22.797  0.00  0.00    +0.048 A 
ATOM     24  C   UNL     1       4.480  -1.163  23.704  0.00  0.00    +0.042 A 
ATOM     25  C   UNL     1       4.189   1.045  22.770  0.00  0.00    +0.042 A 
ATOM     26  C   UNL     1       5.027   0.026  23.224  0.00  0.00    +0.124 A 
ENDBRANCH   4  21
ENDBRANCH  19   4
ENDBRANCH  16  19
TORSDOF 6
ENDMDL
MODEL 2
REMARK VINA RESULT:      -5.4      2.613      6.484
REMARK  Name = 51137597
REMARK  7 active torsions:
REMARK  status: ('A' for Active; 'I' for Inactive)
REMARK    1  A    between atoms: O_4  and  C_19
REMARK    2  A    between atoms: O_4  and  C_21
REMARK    3  A    between atoms: N_5  and  C_12
REMARK    4  A    between atoms: C_8  and  C_13
REMARK    5  A    between atoms: C_12  and  C_14
REMARK    6  A    between atoms: C_16  and  C_19
REMARK    7  A    between atoms: C_17  and  C_20
REMARK                            x       y       z     vdW  Elec       q    Type
REMARK                         _______ _______ _______ _____ _____    ______ ____
ROOT
ATOM      2  O   UNL     1      -3.303   2.207  24.688  0.00  0.00    -0.421 OA
ATOM      6  N   UNL     1      -3.342   4.400  25.127  0.00  0.00    -0.112 NA
ATOM      7  N   UNL     1      -4.628   3.914  25.267  0.00  0.00    -0.109 NA
ATOM     13  C   UNL     1      -2.603   3.369  24.789  0.00  0.00    +0.222 A 
ATOM     16  C   UNL     1      -4.558   2.630  25.001  0.00  0.00    +0.254 A 
ENDROOT
BRANCH  13   8
ATOM      5  N   UNL     1       0.580   1.840  23.811  0.00  0.00    -0.294 NA
ATOM      8  C   UNL     1      -1.120   3.299  24.505  0.00  0.00    +0.092 C 
ATOM      9  C   UNL     1      -0.249   2.913  25.713  0.00  0.00    +0.029 C 
ATOM     10  C   UNL     1      -0.767   2.268  23.426  0.00  0.00    +0.097 C 
ATOM     11  C   UNL     1       0.523   1.678  25.264  0.00  0.00    +0.085 C 
BRANCH   5  12
ATOM     12  C   UNL     1       0.991   0.620  23.133  0.00  0.00    +0.158 C 
BRANCH  12  14
ATOM      3  O   UNL     1       2.986  -0.700  23.583  0.00  0.00    -0.464 OA
ATOM     14  C   UNL     1       2.489   0.471  23.107  0.00  0.00    +0.119 A 
ATOM     15  C   UNL     1       3.510   1.294  22.689  0.00  0.00    +0.046 A 
ATOM     17  C   UNL     1       4.338  -0.624  23.468  0.00  0.00    +0.102 A 
ATOM     18  C   UNL     1       4.710   0.583  22.925  0.00  0.00    +0.044 A 
ATOM     20  C   UNL     1       5.097  -1.797  23.930  0.00  0.00    +0.086 C 
ENDBRANCH  12  14
ENDBRANCH   5  12
ENDBRANCH  13   8
BRANCH  16  19
ATOM     19  C   UNL     1      -5.621   1.617  24.998  0.00  0.00    +0.326 C 
BRANCH  19   4
ATOM      4  O   UNL     1      -5.270   0.527  25.855  0.00  0.00    -0.483 OA
BRANCH   4  21
ATOM      1  F   UNL     1      -1.684  -3.120  23.844  0.00  0.00    -0.205 F 
ATOM     21  C   UNL     1      -4.378  -0.380  25.355  0.00  0.00    +0.121 A 
ATOM     22  C   UNL     1      -4.664  -1.059  24.170  0.00  0.00    +0.048 A 
ATOM     23  C   UNL     1      -3.182  -0.626  26.029  0.00  0.00    +0.048 A 
ATOM     24  C   UNL     1      -3.754  -1.984  23.661  0.00  0.00    +0.042 A 
ATOM     25  C   UNL     1      -2.272  -1.551  25.518  0.00  0.00    +0.042 A 
ATOM     26  C   UNL     1      -2.558  -2.231  24.334  0.00  0.00    +0.124 A 
ENDBRANCH   4  21
ENDBRANCH  19   4
ENDBRANCH  16  19
TORSDOF 6
ENDMDL
MODEL 3
REMARK VINA RESULT:      -5.2      2.341      6.558
REMARK  Name = 51137597
REMARK  7 active torsions:
REMARK  status: ('A' for Active; 'I' for Inactive)
REMARK    1  A    between atoms: O_4  and  C_19
REMARK    2  A    between atoms: O_4  and  C_21
REMARK    3  A    between atoms: N_5  and  C_12
REMARK    4  A    between atoms: C_8  and  C_13
REMARK    5  A    between atoms: C_12  and  C_14
REMARK    6  A    between atoms: C_16  and  C_19
REMARK    7  A    between atoms: C_17  and  C_20
REMARK                            x       y       z     vdW  Elec       q    Type
REMARK                         _______ _______ _______ _____ _____    ______ ____
ROOT
ATOM      2  O   UNL     1      -3.655   1.013  25.538  0.00  0.00    -0.421 OA
ATOM      6  N   UNL     1      -3.804  -0.709  24.118  0.00  0.00    -0.112 NA
ATOM      7  N   UNL     1      -5.077  -0.208  24.316  0.00  0.00    -0.109 NA
ATOM     13  C   UNL     1      -3.007   0.034  24.849  0.00  0.00    +0.222 A 
ATOM     16  C   UNL     1      -4.942   0.796  25.152  0.00  0.00    +0.254 A 
ENDROOT
BRANCH  13   8
ATOM      5  N   UNL     1       0.503  -0.258  23.842  0.00  0.00    -0.294 NA
ATOM      8  C   UNL     1      -1.508  -0.047  25.028  0.00  0.00    +0.092 C 
ATOM      9  C   UNL     1      -0.955  -1.471  25.203  0.00  0.00    +0.029 C 
ATOM     10  C   UNL     1      -0.733   0.527  23.836  0.00  0.00    +0.097 C 
ATOM     11  C   UNL     1       0.075  -1.635  24.093  0.00  0.00    +0.085 C 
BRANCH   5  12
ATOM     12  C   UNL     1       1.251  -0.128  22.600  0.00  0.00    +0.158 C 
BRANCH  12  14
ATOM      3  O   UNL     1       3.408  -0.871  23.450  0.00  0.00    -0.464 OA
ATOM     14  C   UNL     1       2.713   0.131  22.851  0.00  0.00    +0.119 A 
ATOM     15  C   UNL     1       3.536   1.204  22.596  0.00  0.00    +0.046 A 
ATOM     17  C   UNL     1       4.688  -0.433  23.579  0.00  0.00    +0.102 A 
ATOM     18  C   UNL     1       4.818   0.838  23.070  0.00  0.00    +0.044 A 
ATOM     20  C   UNL     1       5.633  -1.366  24.211  0.00  0.00    +0.086 C 
ENDBRANCH  12  14
ENDBRANCH   5  12
ENDBRANCH  13   8
BRANCH  16  19
ATOM     19  C   UNL     1      -5.962   1.692  25.708  0.00  0.00    +0.326 C 
BRANCH  19   4
ATOM      4  O   UNL     1      -5.797   3.015  25.191  0.00  0.00    -0.483 OA
BRANCH   4  21
ATOM      1  F   UNL     1      -0.674   5.004  25.137  0.00  0.00    -0.205 F 
ATOM     21  C   UNL     1      -4.524   3.510  25.177  0.00  0.00    +0.121 A 
ATOM     22  C   UNL     1      -3.924   3.925  26.367  0.00  0.00    +0.048 A 
ATOM     23  C   UNL     1      -3.823   3.599  23.975  0.00  0.00    +0.048 A 
ATOM     24  C   UNL     1      -2.624   4.430  26.352  0.00  0.00    +0.042 A 
ATOM     25  C   UNL     1      -2.522   4.103  23.961  0.00  0.00    +0.042 A 
ATOM     26  C   UNL     1      -1.923   4.520  25.151  0.00  0.00    +0.124 A 
ENDBRANCH   4  21
ENDBRANCH  19   4
ENDBRANCH  16  19
TORSDOF 6
ENDMDL
MODEL 4
REMARK VINA RESULT:      -5.0      2.734      7.076
REMARK  Name = 51137597
REMARK  7 active torsions:
REMARK  status: ('A' for Active; 'I' for Inactive)
REMARK    1  A    between atoms: O_4  and  C_19
REMARK    2  A    between atoms: O_4  and  C_21
REMARK    3  A    between atoms: N_5  and  C_12
REMARK    4  A    between atoms: C_8  and  C_13
REMARK    5  A    between atoms: C_12  and  C_14
REMARK    6  A    between atoms: C_16  and  C_19
REMARK    7  A    between atoms: C_17  and  C_20
REMARK                            x       y       z     vdW  Elec       q    Type
REMARK                         _______ _______ _______ _____ _____    ______ ____
ROOT
ATOM      2  O   UNL     1      -2.400   2.916  25.909  0.00  0.00    -0.421 OA
ATOM      6  N   UNL     1      -0.726   4.249  25.257  0.00  0.00    -0.112 NA
ATOM      7  N   UNL     1      -1.857   5.028  25.410  0.00  0.00    -0.109 NA
ATOM     13  C   UNL     1      -1.089   3.024  25.560  0.00  0.00    +0.222 A 
ATOM     16  C   UNL     1      -2.809   4.208  25.791  0.00  0.00    +0.254 A 
ENDROOT
BRANCH  13   8
ATOM      5  N   UNL     1       0.753   0.179  24.167  0.00  0.00    -0.294 NA
ATOM      8  C   UNL     1      -0.273   1.752  25.572  0.00  0.00    +0.092 C 
ATOM      9  C   UNL     1      -1.099   0.454  25.562  0.00  0.00    +0.029 C 
ATOM     10  C   UNL     1       0.659   1.628  24.360  0.00  0.00    +0.097 C 
ATOM     11  C   UNL     1      -0.614  -0.314  24.339  0.00  0.00    +0.085 C 
BRANCH   5  12
ATOM     12  C   UNL     1       1.310  -0.174  22.870  0.00  0.00    +0.158 C 
BRANCH  12  14
ATOM      3  O   UNL     1       3.537  -0.748  23.667  0.00  0.00    -0.464 OA
ATOM     14  C   UNL     1       2.802   0.027  22.827  0.00  0.00    +0.119 A 
ATOM     15  C   UNL     1       3.620   0.856  22.095  0.00  0.00    +0.046 A 
ATOM     17  C   UNL     1       4.839  -0.410  23.469  0.00  0.00    +0.102 A 
ATOM     18  C   UNL     1       4.942   0.573  22.512  0.00  0.00    +0.044 A 
ATOM     20  C   UNL     1       5.829  -1.130  24.282  0.00  0.00    +0.086 C 
ENDBRANCH  12  14
ENDBRANCH   5  12
ENDBRANCH  13   8
BRANCH  16  19
ATOM     19  C   UNL     1      -4.216   4.490  26.102  0.00  0.00    +0.326 C 
BRANCH  19   4
ATOM      4  O   UNL     1      -5.069   3.910  25.111  0.00  0.00    -0.483 OA
BRANCH   4  21
ATOM      1  F   UNL     1      -3.885  -1.224  23.550  0.00  0.00    -0.205 F 
ATOM     21  C   UNL     1      -4.775   2.634  24.723  0.00  0.00    +0.121 A 
ATOM     22  C   UNL     1      -5.239   1.553  25.472  0.00  0.00    +0.048 A 
ATOM     23  C   UNL     1      -4.011   2.412  23.578  0.00  0.00    +0.048 A 
ATOM     24  C   UNL     1      -4.938   0.250  25.076  0.00  0.00    +0.042 A 
ATOM     25  C   UNL     1      -3.710   1.109  23.181  0.00  0.00    +0.042 A 
ATOM     26  C   UNL     1      -4.174   0.027  23.931  0.00  0.00    +0.124 A 
ENDBRANCH   4  21
ENDBRANCH  19   4
ENDBRANCH  16  19
TORSDOF 6
ENDMDL
MODEL 5
REMARK VINA RESULT:      -4.4      1.586      3.341
REMARK  Name = 51137597
REMARK  7 active torsions:
REMARK  status: ('A' for Active; 'I' for Inactive)
REMARK    1  A    between atoms: O_4  and  C_19
REMARK    2  A    between atoms: O_4  and  C_21
REMARK    3  A    between atoms: N_5  and  C_12
REMARK    4  A    between atoms: C_8  and  C_13
REMARK    5  A    between atoms: C_12  and  C_14
REMARK    6  A    between atoms: C_16  and  C_19
REMARK    7  A    between atoms: C_17  and  C_20
REMARK                            x       y       z     vdW  Elec       q    Type
REMARK                         _______ _______ _______ _____ _____    ______ ____
ROOT
ATOM      2  O   UNL     1       0.279   1.163  23.676  0.00  0.00    -0.421 OA
ATOM      6  N   UNL     1      -0.587  -0.049  25.345  0.00  0.00    -0.112 NA
ATOM      7  N   UNL     1      -0.160  -0.921  24.362  0.00  0.00    -0.109 NA
ATOM     13  C   UNL     1      -0.311   1.156  24.902  0.00  0.00    +0.222 A 
ATOM     16  C   UNL     1       0.339  -0.170  23.407  0.00  0.00    +0.254 A 
ENDROOT
BRANCH  13   8
ATOM      5  N   UNL     1      -2.218   4.095  25.975  0.00  0.00    -0.294 NA
ATOM      8  C   UNL     1      -0.552   2.500  25.551  0.00  0.00    +0.092 C 
ATOM      9  C   UNL     1      -0.354   3.710  24.622  0.00  0.00    +0.029 C 
ATOM     10  C   UNL     1      -1.979   2.655  26.092  0.00  0.00    +0.097 C 
ATOM     11  C   UNL     1      -1.678   4.463  24.666  0.00  0.00    +0.085 C 
BRANCH   5  12
ATOM     12  C   UNL     1      -3.625   4.438  26.111  0.00  0.00    +0.158 C 
BRANCH  12  14
ATOM      3  O   UNL     1      -3.903   2.202  25.191  0.00  0.00    -0.464 OA
ATOM     14  C   UNL     1      -4.522   3.311  25.674  0.00  0.00    +0.119 A 
ATOM     15  C   UNL     1      -5.888   3.148  25.654  0.00  0.00    +0.046 A 
ATOM     17  C   UNL     1      -4.883   1.322  24.860  0.00  0.00    +0.102 A 
ATOM     18  C   UNL     1      -6.122   1.857  25.124  0.00  0.00    +0.044 A 
ATOM     20  C   UNL     1      -4.441   0.032  24.308  0.00  0.00    +0.086 C 
ENDBRANCH  12  14
ENDBRANCH   5  12
ENDBRANCH  13   8
BRANCH  16  19
ATOM     19  C   UNL     1       0.937  -0.562  22.125  0.00  0.00    +0.326 C 
BRANCH  19   4
ATOM      4  O   UNL     1       2.095   0.233  21.853  0.00  0.00    -0.483 OA
BRANCH   4  21
ATOM      1  F   UNL     1       6.564  -0.826  24.871  0.00  0.00    -0.205 F 
ATOM     21  C   UNL     1       3.206  -0.030  22.603  0.00  0.00    +0.121 A 
ATOM     22  C   UNL     1       4.177   0.956  22.781  0.00  0.00    +0.048 A 
ATOM     23  C   UNL     1       3.368  -1.283  23.193  0.00  0.00    +0.048 A 
ATOM     24  C   UNL     1       5.312   0.686  23.546  0.00  0.00    +0.042 A 
ATOM     25  C   UNL     1       4.502  -1.552  23.959  0.00  0.00    +0.042 A 
ATOM     26  C   UNL     1       5.475  -0.567  24.135  0.00  0.00    +0.124 A 
ENDBRANCH   4  21
ENDBRANCH  19   4
ENDBRANCH  16  19
TORSDOF 6
ENDMDL
MODEL 6
REMARK VINA RESULT:      -3.7     16.151     18.683
REMARK  Name = 51137597
REMARK  7 active torsions:
REMARK  status: ('A' for Active; 'I' for Inactive)
REMARK    1  A    between atoms: O_4  and  C_19
REMARK    2  A    between atoms: O_4  and  C_21
REMARK    3  A    between atoms: N_5  and  C_12
REMARK    4  A    between atoms: C_8  and  C_13
REMARK    5  A    between atoms: C_12  and  C_14
REMARK    6  A    between atoms: C_16  and  C_19
REMARK    7  A    between atoms: C_17  and  C_20
REMARK                            x       y       z     vdW  Elec       q    Type
REMARK                         _______ _______ _______ _____ _____    ______ ____
ROOT
ATOM      2  O   UNL     1      13.453  -7.815  31.016  0.00  0.00    -0.421 OA
ATOM      6  N   UNL     1      14.481  -5.877  31.455  0.00  0.00    -0.112 NA
ATOM      7  N   UNL     1      13.438  -6.019  32.350  0.00  0.00    -0.109 NA
ATOM     13  C   UNL     1      14.452  -6.948  30.696  0.00  0.00    +0.222 A 
ATOM     16  C   UNL     1      12.865  -7.163  32.057  0.00  0.00    +0.254 A 
ENDROOT
BRANCH  13   8
ATOM      5  N   UNL     1      16.663  -6.453  27.817  0.00  0.00    -0.294 NA
ATOM      8  C   UNL     1      15.353  -7.340  29.548  0.00  0.00    +0.092 C 
ATOM      9  C   UNL     1      14.633  -7.542  28.203  0.00  0.00    +0.029 C 
ATOM     10  C   UNL     1      16.437  -6.296  29.255  0.00  0.00    +0.097 C 
ATOM     11  C   UNL     1      15.326  -6.588  27.237  0.00  0.00    +0.085 C 
BRANCH   5  12
ATOM     12  C   UNL     1      17.405  -5.340  27.245  0.00  0.00    +0.158 C 
BRANCH  12  14
ATOM      3  O   UNL     1      16.873  -4.050  25.251  0.00  0.00    -0.464 OA
ATOM     14  C   UNL     1      17.234  -5.260  25.751  0.00  0.00    +0.119 A 
ATOM     15  C   UNL     1      17.368  -6.181  24.738  0.00  0.00    +0.046 A 
ATOM     17  C   UNL     1      16.775  -4.199  23.904  0.00  0.00    +0.102 A 
ATOM     18  C   UNL     1      17.069  -5.492  23.538  0.00  0.00    +0.044 A 
ATOM     20  C   UNL     1      16.391  -3.001  23.143  0.00  0.00    +0.086 C 
ENDBRANCH  12  14
ENDBRANCH   5  12
ENDBRANCH  13   8
BRANCH  16  19
ATOM     19  C   UNL     1      11.711  -7.819  32.684  0.00  0.00    +0.326 C 
BRANCH  19   4
ATOM      4  O   UNL     1      11.264  -8.914  31.880  0.00  0.00    -0.483 OA
BRANCH   4  21
ATOM      1  F   UNL     1       5.891 -10.053  32.057  0.00  0.00    -0.205 F 
ATOM     21  C   UNL     1       9.928  -9.197  31.924  0.00  0.00    +0.121 A 
ATOM     22  C   UNL     1       9.481 -10.492  31.661  0.00  0.00    +0.048 A 
ATOM     23  C   UNL     1       9.012  -8.192  32.232  0.00  0.00    +0.048 A 
ATOM     24  C   UNL     1       8.117 -10.781  31.706  0.00  0.00    +0.042 A 
ATOM     25  C   UNL     1       7.649  -8.481  32.278  0.00  0.00    +0.042 A 
ATOM     26  C   UNL     1       7.201  -9.776  32.013  0.00  0.00    +0.124 A 
ENDBRANCH   4  21
ENDBRANCH  19   4
ENDBRANCH  16  19
TORSDOF 6
ENDMDL
MODEL 7
REMARK VINA RESULT:      -3.7     15.808     17.875
REMARK  Name = 51137597
REMARK  7 active torsions:
REMARK  status: ('A' for Active; 'I' for Inactive)
REMARK    1  A    between atoms: O_4  and  C_19
REMARK    2  A    between atoms: O_4  and  C_21
REMARK    3  A    between atoms: N_5  and  C_12
REMARK    4  A    between atoms: C_8  and  C_13
REMARK    5  A    between atoms: C_12  and  C_14
REMARK    6  A    between atoms: C_16  and  C_19
REMARK    7  A    between atoms: C_17  and  C_20
REMARK                            x       y       z     vdW  Elec       q    Type
REMARK                         _______ _______ _______ _____ _____    ______ ____
ROOT
ATOM      2  O   UNL     1      -5.244 -10.778  12.062  0.00  0.00    -0.421 OA
ATOM      6  N   UNL     1      -6.356  -8.953  12.724  0.00  0.00    -0.112 NA
ATOM      7  N   UNL     1      -6.091  -8.825  11.373  0.00  0.00    -0.109 NA
ATOM     13  C   UNL     1      -5.844 -10.107  13.083  0.00  0.00    +0.222 A 
ATOM     16  C   UNL     1      -5.441  -9.913  11.030  0.00  0.00    +0.254 A 
ENDROOT
BRANCH  13   8
ATOM      5  N   UNL     1      -6.609 -10.550  16.639  0.00  0.00    -0.294 NA
ATOM      8  C   UNL     1      -5.829 -10.775  14.439  0.00  0.00    +0.092 C 
ATOM      9  C   UNL     1      -4.669 -10.352  15.355  0.00  0.00    +0.029 C 
ATOM     10  C   UNL     1      -7.094 -10.492  15.258  0.00  0.00    +0.097 C 
ATOM     11  C   UNL     1      -5.335  -9.830  16.621  0.00  0.00    +0.085 C 
BRANCH   5  12
ATOM     12  C   UNL     1      -7.556  -9.979  17.585  0.00  0.00    +0.158 C 
BRANCH  12  14
ATOM      3  O   UNL     1      -9.041  -8.159  16.949  0.00  0.00    -0.464 OA
ATOM     14  C   UNL     1      -8.808  -9.496  16.903  0.00  0.00    +0.119 A 
ATOM     15  C   UNL     1      -9.812 -10.138  16.214  0.00  0.00    +0.046 A 
ATOM     17  C   UNL     1     -10.206  -7.943  16.282  0.00  0.00    +0.102 A 
ATOM     18  C   UNL     1     -10.720  -9.129  15.812  0.00  0.00    +0.044 A 
ATOM     20  C   UNL     1     -10.661  -6.548  16.203  0.00  0.00    +0.086 C 
ENDBRANCH  12  14
ENDBRANCH   5  12
ENDBRANCH  13   8
BRANCH  16  19
ATOM     19  C   UNL     1      -4.915 -10.313   9.719  0.00  0.00    +0.326 C 
BRANCH  19   4
ATOM      4  O   UNL     1      -5.983 -10.708   8.854  0.00  0.00    -0.483 OA
BRANCH   4  21
ATOM      1  F   UNL     1     -10.226  -7.238   8.453  0.00  0.00    -0.205 F 
ATOM     21  C   UNL     1      -7.038  -9.846   8.754  0.00  0.00    +0.121 A 
ATOM     22  C   UNL     1      -8.309 -10.247   9.167  0.00  0.00    +0.048 A 
ATOM     23  C   UNL     1      -6.844  -8.564   8.241  0.00  0.00    +0.048 A 
ATOM     24  C   UNL     1      -9.385  -9.366   9.065  0.00  0.00    +0.042 A 
ATOM     25  C   UNL     1      -7.921  -7.683   8.140  0.00  0.00    +0.042 A 
ATOM     26  C   UNL     1      -9.192  -8.085   8.551  0.00  0.00    +0.124 A 
ENDBRANCH   4  21
ENDBRANCH  19   4
ENDBRANCH  16  19
TORSDOF 6
ENDMDL
MODEL 8
REMARK VINA RESULT:      -3.5     16.862     18.958
REMARK  Name = 51137597
REMARK  7 active torsions:
REMARK  status: ('A' for Active; 'I' for Inactive)
REMARK    1  A    between atoms: O_4  and  C_19
REMARK    2  A    between atoms: O_4  and  C_21
REMARK    3  A    between atoms: N_5  and  C_12
REMARK    4  A    between atoms: C_8  and  C_13
REMARK    5  A    between atoms: C_12  and  C_14
REMARK    6  A    between atoms: C_16  and  C_19
REMARK    7  A    between atoms: C_17  and  C_20
REMARK                            x       y       z     vdW  Elec       q    Type
REMARK                         _______ _______ _______ _____ _____    ______ ____
ROOT
ATOM      2  O   UNL     1      14.775  -6.944  29.853  0.00  0.00    -0.421 OA
ATOM      6  N   UNL     1      15.898  -5.019  29.655  0.00  0.00    -0.112 NA
ATOM      7  N   UNL     1      14.899  -4.837  30.592  0.00  0.00    -0.109 NA
ATOM     13  C   UNL     1      15.788  -6.264  29.251  0.00  0.00    +0.222 A 
ATOM     16  C   UNL     1      14.269  -5.986  30.675  0.00  0.00    +0.254 A 
ENDROOT
BRANCH  13   8
ATOM      5  N   UNL     1      17.234  -7.039  25.974  0.00  0.00    -0.294 NA
ATOM      8  C   UNL     1      16.610  -7.023  28.235  0.00  0.00    +0.092 C 
ATOM      9  C   UNL     1      15.856  -8.145  27.501  0.00  0.00    +0.029 C 
ATOM     10  C   UNL     1      17.156  -6.126  27.117  0.00  0.00    +0.097 C 
ATOM     11  C   UNL     1      15.990  -7.809  26.021  0.00  0.00    +0.085 C 
BRANCH   5  12
ATOM     12  C   UNL     1      17.403  -6.336  24.711  0.00  0.00    +0.158 C 
BRANCH  12  14
ATOM      3  O   UNL     1      16.847  -4.163  23.766  0.00  0.00    -0.464 OA
ATOM     14  C   UNL     1      17.239  -4.848  24.872  0.00  0.00    +0.119 A 
ATOM     15  C   UNL     1      17.405  -3.992  25.936  0.00  0.00    +0.046 A 
ATOM     17  C   UNL     1      16.762  -2.856  24.128  0.00  0.00    +0.102 A 
ATOM     18  C   UNL     1      17.096  -2.698  25.452  0.00  0.00    +0.044 A 
ATOM     20  C   UNL     1      16.349  -1.915  23.075  0.00  0.00    +0.086 C 
ENDBRANCH  12  14
ENDBRANCH   5  12
ENDBRANCH  13   8
BRANCH  16  19
ATOM     19  C   UNL     1      13.126  -6.367  31.514  0.00  0.00    +0.326 C 
BRANCH  19   4
ATOM      4  O   UNL     1      13.096  -7.785  31.698  0.00  0.00    -0.483 OA
BRANCH   4  21
ATOM      1  F   UNL     1       8.146 -10.061  32.419  0.00  0.00    -0.205 F 
ATOM     21  C   UNL     1      11.865  -8.351  31.877  0.00  0.00    +0.121 A 
ATOM     22  C   UNL     1      11.700  -9.727  31.717  0.00  0.00    +0.048 A 
ATOM     23  C   UNL     1      10.774  -7.553  32.221  0.00  0.00    +0.048 A 
ATOM     24  C   UNL     1      10.443 -10.304  31.900  0.00  0.00    +0.042 A 
ATOM     25  C   UNL     1       9.518  -8.130  32.404  0.00  0.00    +0.042 A 
ATOM     26  C   UNL     1       9.352  -9.507  32.243  0.00  0.00    +0.124 A 
ENDBRANCH   4  21
ENDBRANCH  19   4
ENDBRANCH  16  19
TORSDOF 6
ENDMDL
MODEL 9
REMARK VINA RESULT:      -3.5      1.986      5.435
REMARK  Name = 51137597
REMARK  7 active torsions:
REMARK  status: ('A' for Active; 'I' for Inactive)
REMARK    1  A    between atoms: O_4  and  C_19
REMARK    2  A    between atoms: O_4  and  C_21
REMARK    3  A    between atoms: N_5  and  C_12
REMARK    4  A    between atoms: C_8  and  C_13
REMARK    5  A    between atoms: C_12  and  C_14
REMARK    6  A    between atoms: C_16  and  C_19
REMARK    7  A    between atoms: C_17  and  C_20
REMARK                            x       y       z     vdW  Elec       q    Type
REMARK                         _______ _______ _______ _____ _____    ______ ____
ROOT
ATOM      2  O   UNL     1      -4.270   1.632  25.383  0.00  0.00    -0.421 OA
ATOM      6  N   UNL     1      -6.221   0.803  24.667  0.00  0.00    -0.112 NA
ATOM      7  N   UNL     1      -6.316   2.182  24.663  0.00  0.00    -0.109 NA
ATOM     13  C   UNL     1      -5.010   0.527  25.094  0.00  0.00    +0.222 A 
ATOM     16  C   UNL     1      -5.155   2.624  25.088  0.00  0.00    +0.254 A 
ENDROOT
BRANCH  13   8
ATOM      5  N   UNL     1      -2.264  -1.894  25.234  0.00  0.00    -0.294 NA
ATOM      8  C   UNL     1      -4.344  -0.813  25.302  0.00  0.00    +0.092 C 
ATOM      9  C   UNL     1      -4.264  -1.697  24.046  0.00  0.00    +0.029 C 
ATOM     10  C   UNL     1      -2.893  -0.691  25.784  0.00  0.00    +0.097 C 
ATOM     11  C   UNL     1      -2.782  -2.001  23.870  0.00  0.00    +0.085 C 
BRANCH   5  12
ATOM     12  C   UNL     1      -0.811  -1.829  25.273  0.00  0.00    +0.158 C 
BRANCH  12  14
ATOM      3  O   UNL     1       0.958  -0.967  23.840  0.00  0.00    -0.464 OA
ATOM     14  C   UNL     1      -0.274  -0.751  24.368  0.00  0.00    +0.119 A 
ATOM     15  C   UNL     1      -0.778   0.456  23.941  0.00  0.00    +0.046 A 
ATOM     17  C   UNL     1       1.245   0.113  23.066  0.00  0.00    +0.102 A 
ATOM     18  C   UNL     1       0.209   1.017  23.096  0.00  0.00    +0.044 A 
ATOM     20  C   UNL     1       2.548   0.097  22.385  0.00  0.00    +0.086 C 
ENDBRANCH  12  14
ENDBRANCH   5  12
ENDBRANCH  13   8
BRANCH  16  19
ATOM     19  C   UNL     1      -4.693   4.004  25.280  0.00  0.00    +0.326 C 
BRANCH  19   4
ATOM      4  O   UNL     1      -3.524   4.251  24.495  0.00  0.00    -0.483 OA
BRANCH   4  21
ATOM      1  F   UNL     1       1.272   2.692  26.678  0.00  0.00    -0.205 F 
ATOM     21  C   UNL     1      -2.331   3.864  25.038  0.00  0.00    +0.121 A 
ATOM     22  C   UNL     1      -2.312   3.100  26.205  0.00  0.00    +0.048 A 
ATOM     23  C   UNL     1      -1.134   4.230  24.424  0.00  0.00    +0.048 A 
ATOM     24  C   UNL     1      -1.094   2.705  26.759  0.00  0.00    +0.042 A 
ATOM     25  C   UNL     1       0.083   3.834  24.978  0.00  0.00    +0.042 A 
ATOM     26  C   UNL     1       0.103   3.072  26.146  0.00  0.00    +0.124 A 
ENDBRANCH   4  21
ENDBRANCH  19   4
ENDBRANCH  16  19
TORSDOF 6
ENDMDL
MODEL 10
REMARK VINA RESULT:      -2.5      3.322      7.454
REMARK  Name = 51137597
REMARK  7 active torsions:
REMARK  status: ('A' for Active; 'I' for Inactive)
REMARK    1  A    between atoms: O_4  and  C_19
REMARK    2  A    between atoms: O_4  and  C_21
REMARK    3  A    between atoms: N_5  and  C_12
REMARK    4  A    between atoms: C_8  and  C_13
REMARK    5  A    between atoms: C_12  and  C_14
REMARK    6  A    between atoms: C_16  and  C_19
REMARK    7  A    between atoms: C_17  and  C_20
REMARK                            x       y       z     vdW  Elec       q    Type
REMARK                         _______ _______ _______ _____ _____    ______ ____
ROOT
ATOM      2  O   UNL     1      -1.711   3.195  25.055  0.00  0.00    -0.421 OA
ATOM      6  N   UNL     1      -0.232   4.593  24.127  0.00  0.00    -0.112 NA
ATOM      7  N   UNL     1      -1.008   5.318  25.011  0.00  0.00    -0.109 NA
ATOM     13  C   UNL     1      -0.677   3.359  24.186  0.00  0.00    +0.222 A 
ATOM     16  C   UNL     1      -1.858   4.461  25.529  0.00  0.00    +0.254 A 
ENDROOT
BRANCH  13   8
ATOM      5  N   UNL     1       0.207  -0.163  23.698  0.00  0.00    -0.294 NA
ATOM      8  C   UNL     1      -0.211   2.130  23.440  0.00  0.00    +0.092 C 
ATOM      9  C   UNL     1       1.307   1.886  23.483  0.00  0.00    +0.029 C 
ATOM     10  C   UNL     1      -0.828   0.834  23.979  0.00  0.00    +0.097 C 
ATOM     11  C   UNL     1       1.466   0.487  24.065  0.00  0.00    +0.085 C 
BRANCH   5  12
ATOM     12  C   UNL     1      -0.007  -1.407  24.423  0.00  0.00    +0.158 C 
BRANCH  12  14
ATOM      3  O   UNL     1      -2.249  -2.249  23.989  0.00  0.00    -0.464 OA
ATOM     14  C   UNL     1      -1.443  -1.569  24.845  0.00  0.00    +0.119 A 
ATOM     15  C   UNL     1      -2.149  -1.164  25.955  0.00  0.00    +0.046 A 
ATOM     17  C   UNL     1      -3.483  -2.279  24.557  0.00  0.00    +0.102 A 
ATOM     18  C   UNL     1      -3.474  -1.624  25.767  0.00  0.00    +0.044 A 
ATOM     20  C   UNL     1      -4.533  -2.973  23.797  0.00  0.00    +0.086 C 
ENDBRANCH  12  14
ENDBRANCH   5  12
ENDBRANCH  13   8
BRANCH  16  19
ATOM     19  C   UNL     1      -2.914   4.679  26.526  0.00  0.00    +0.326 C 
BRANCH  19   4
ATOM      4  O   UNL     1      -4.199   4.667  25.899  0.00  0.00    -0.483 OA
BRANCH   4  21
ATOM      1  F   UNL     1      -6.072  -0.225  24.237  0.00  0.00    -0.205 F 
ATOM     21  C   UNL     1      -4.665   3.451  25.485  0.00  0.00    +0.121 A 
ATOM     22  C   UNL     1      -4.184   2.885  24.304  0.00  0.00    +0.048 A 
ATOM     23  C   UNL     1      -5.620   2.775  26.245  0.00  0.00    +0.048 A 
ATOM     24  C   UNL     1      -4.660   1.643  23.883  0.00  0.00    +0.042 A 
ATOM     25  C   UNL     1      -6.095   1.533  25.823  0.00  0.00    +0.042 A 
ATOM     26  C   UNL     1      -5.615   0.967  24.641  0.00  0.00    +0.124 A 
ENDBRANCH   4  21
ENDBRANCH  19   4
ENDBRANCH  16  19
TORSDOF 6
ENDMDL
