MODEL 1
REMARK VINA RESULT:      -3.6      0.000      0.000
REMARK  Name = 51137076
REMARK  3 active torsions:
REMARK  status: ('A' for Active; 'I' for Inactive)
REMARK    1  A    between atoms: N_4  and  C_10
REMARK    2  A    between atoms: C_6  and  C_11
REMARK    3  A    between atoms: C_10  and  C_12
REMARK                            x       y       z     vdW  Elec       q    Type
REMARK                         _______ _______ _______ _____ _____    ______ ____
ROOT
ATOM      4  N   UNL     1       0.498  -0.588  23.730  0.00  0.00    -0.297 NA
ATOM      6  C   UNL     1      -1.251   0.033  25.164  0.00  0.00    +0.060 C 
ATOM      7  C   UNL     1      -1.457  -1.418  24.699  0.00  0.00    +0.027 C 
ATOM      8  C   UNL     1      -0.210   0.607  24.193  0.00  0.00    +0.095 C 
ATOM      9  C   UNL     1      -0.552  -1.576  23.485  0.00  0.00    +0.085 C 
ENDROOT
BRANCH   6  11
ATOM      1  S   UNL     1      -4.030   0.079  25.145  0.00  0.00    -0.072 S 
ATOM      5  N   UNL     1      -2.534   2.169  25.359  0.00  0.00    -0.244 NA
ATOM     11  C   UNL     1      -2.513   0.863  25.234  0.00  0.00    +0.084 A 
ATOM     13  C   UNL     1      -4.816   1.608  25.286  0.00  0.00    +0.039 A 
ATOM     14  C   UNL     1      -3.848   2.612  25.390  0.00  0.00    +0.078 A 
ATOM     17  C   UNL     1      -6.190   1.897  25.302  0.00  0.00    +0.017 A 
ATOM     18  C   UNL     1      -4.275   3.952  25.516  0.00  0.00    +0.029 A 
ATOM     21  C   UNL     1      -6.585   3.232  25.427  0.00  0.00    +0.001 A 
ATOM     22  C   UNL     1      -5.640   4.248  25.532  0.00  0.00    +0.002 A 
ENDBRANCH   6  11
BRANCH   4  10
ATOM     10  C   UNL     1       1.305  -0.331  22.547  0.00  0.00    +0.119 C 
BRANCH  10  12
ATOM      2  F   UNL     1       5.463  -2.185  24.305  0.00  0.00    -0.202 F 
ATOM      3  F   UNL     1       6.775   0.161  23.808  0.00  0.00    -0.202 F 
ATOM     12  C   UNL     1       2.767  -0.199  22.883  0.00  0.00    -0.030 A 
ATOM     15  C   UNL     1       3.451  -1.274  23.450  0.00  0.00    +0.046 A 
ATOM     16  C   UNL     1       3.436   0.998  22.629  0.00  0.00    +0.008 A 
ATOM     19  C   UNL     1       4.806  -1.154  23.762  0.00  0.00    +0.159 A 
ATOM     20  C   UNL     1       4.790   1.119  22.942  0.00  0.00    +0.041 A 
ATOM     23  C   UNL     1       5.475   0.044  23.508  0.00  0.00    +0.158 A 
ENDBRANCH  10  12
ENDBRANCH   4  10
TORSDOF 3
ENDMDL
MODEL 2
REMARK VINA RESULT:      -2.0      3.130      7.408
REMARK  Name = 51137076
REMARK  3 active torsions:
REMARK  status: ('A' for Active; 'I' for Inactive)
REMARK    1  A    between atoms: N_4  and  C_10
REMARK    2  A    between atoms: C_6  and  C_11
REMARK    3  A    between atoms: C_10  and  C_12
REMARK                            x       y       z     vdW  Elec       q    Type
REMARK                         _______ _______ _______ _____ _____    ______ ____
ROOT
ATOM      4  N   UNL     1      -3.115  -0.345  24.623  0.00  0.00    -0.297 NA
ATOM      6  C   UNL     1      -1.057  -1.098  23.789  0.00  0.00    +0.060 C 
ATOM      7  C   UNL     1      -1.376  -1.826  25.106  0.00  0.00    +0.027 C 
ATOM      8  C   UNL     1      -2.015   0.101  23.766  0.00  0.00    +0.095 C 
ATOM      9  C   UNL     1      -2.467  -0.991  25.763  0.00  0.00    +0.085 C 
ENDROOT
BRANCH   6  11
ATOM      1  S   UNL     1       0.761   0.866  23.039  0.00  0.00    -0.072 S 
ATOM      5  N   UNL     1       1.411  -1.481  23.887  0.00  0.00    -0.244 NA
ATOM     11  C   UNL     1       0.391  -0.700  23.619  0.00  0.00    +0.084 A 
ATOM     13  C   UNL     1       2.442   0.498  23.145  0.00  0.00    +0.039 A 
ATOM     14  C   UNL     1       2.594  -0.809  23.620  0.00  0.00    +0.078 A 
ATOM     17  C   UNL     1       3.546   1.306  22.831  0.00  0.00    +0.017 A 
ATOM     18  C   UNL     1       3.899  -1.321  23.786  0.00  0.00    +0.029 A 
ATOM     21  C   UNL     1       4.827   0.775  23.003  0.00  0.00    +0.001 A 
ATOM     22  C   UNL     1       5.003  -0.522  23.474  0.00  0.00    +0.002 A 
ENDBRANCH   6  11
BRANCH   4  10
ATOM     10  C   UNL     1      -3.984   0.751  25.026  0.00  0.00    +0.119 C 
BRANCH  10  12
ATOM      2  F   UNL     1      -0.002   3.371  26.073  0.00  0.00    -0.202 F 
ATOM      3  F   UNL     1      -1.221   5.658  25.205  0.00  0.00    -0.202 F 
ATOM     12  C   UNL     1      -3.246   2.063  25.074  0.00  0.00    -0.030 A 
ATOM     15  C   UNL     1      -1.941   2.110  25.561  0.00  0.00    +0.046 A 
ATOM     16  C   UNL     1      -3.868   3.231  24.630  0.00  0.00    +0.008 A 
ATOM     19  C   UNL     1      -1.255   3.325  25.606  0.00  0.00    +0.159 A 
ATOM     20  C   UNL     1      -3.183   4.445  24.675  0.00  0.00    +0.041 A 
ATOM     23  C   UNL     1      -1.877   4.492  25.163  0.00  0.00    +0.158 A 
ENDBRANCH  10  12
ENDBRANCH   4  10
TORSDOF 3
ENDMDL
MODEL 3
REMARK VINA RESULT:      -1.5      4.445      7.340
REMARK  Name = 51137076
REMARK  3 active torsions:
REMARK  status: ('A' for Active; 'I' for Inactive)
REMARK    1  A    between atoms: N_4  and  C_10
REMARK    2  A    between atoms: C_6  and  C_11
REMARK    3  A    between atoms: C_10  and  C_12
REMARK                            x       y       z     vdW  Elec       q    Type
REMARK                         _______ _______ _______ _____ _____    ______ ____
ROOT
ATOM      4  N   UNL     1      -0.136   3.467  25.153  0.00  0.00    -0.297 NA
ATOM      6  C   UNL     1      -0.177   1.123  25.113  0.00  0.00    +0.060 C 
ATOM      7  C   UNL     1       0.597   1.645  23.891  0.00  0.00    +0.027 C 
ATOM      8  C   UNL     1      -0.941   2.345  25.640  0.00  0.00    +0.095 C 
ATOM      9  C   UNL     1       0.210   3.113  23.777  0.00  0.00    +0.085 C 
ENDROOT
BRANCH   6  11
ATOM      1  S   UNL     1      -0.445  -1.642  24.995  0.00  0.00    -0.072 S 
ATOM      5  N   UNL     1      -2.334   0.034  24.474  0.00  0.00    -0.244 NA
ATOM     11  C   UNL     1      -1.077  -0.061  24.836  0.00  0.00    +0.084 A 
ATOM     13  C   UNL     1      -1.978  -2.289  24.542  0.00  0.00    +0.039 A 
ATOM     14  C   UNL     1      -2.865  -1.236  24.301  0.00  0.00    +0.078 A 
ATOM     17  C   UNL     1      -2.366  -3.632  24.410  0.00  0.00    +0.017 A 
ATOM     18  C   UNL     1      -4.188  -1.541  23.915  0.00  0.00    +0.029 A 
ATOM     21  C   UNL     1      -3.681  -3.906  24.025  0.00  0.00    +0.001 A 
ATOM     22  C   UNL     1      -4.582  -2.875  23.780  0.00  0.00    +0.002 A 
ENDBRANCH   6  11
BRANCH   4  10
ATOM     10  C   UNL     1      -0.844   4.736  25.239  0.00  0.00    +0.119 C 
BRANCH  10  12
ATOM      2  F   UNL     1      -5.044   2.916  23.547  0.00  0.00    -0.202 F 
ATOM      3  F   UNL     1      -6.416   4.008  25.643  0.00  0.00    -0.202 F 
ATOM     12  C   UNL     1      -2.333   4.542  25.347  0.00  0.00    -0.030 A 
ATOM     15  C   UNL     1      -3.012   3.805  24.377  0.00  0.00    +0.046 A 
ATOM     16  C   UNL     1      -3.033   5.099  26.417  0.00  0.00    +0.008 A 
ATOM     19  C   UNL     1      -4.392   3.624  24.477  0.00  0.00    +0.159 A 
ATOM     20  C   UNL     1      -4.413   4.918  26.517  0.00  0.00    +0.041 A 
ATOM     23  C   UNL     1      -5.092   4.181  25.547  0.00  0.00    +0.158 A 
ENDBRANCH  10  12
ENDBRANCH   4  10
TORSDOF 3
ENDMDL
MODEL 4
REMARK VINA RESULT:      -1.5      3.509      7.637
REMARK  Name = 51137076
REMARK  3 active torsions:
REMARK  status: ('A' for Active; 'I' for Inactive)
REMARK    1  A    between atoms: N_4  and  C_10
REMARK    2  A    between atoms: C_6  and  C_11
REMARK    3  A    between atoms: C_10  and  C_12
REMARK                            x       y       z     vdW  Elec       q    Type
REMARK                         _______ _______ _______ _____ _____    ______ ____
ROOT
ATOM      4  N   UNL     1      -3.501   2.292  24.954  0.00  0.00    -0.297 NA
ATOM      6  C   UNL     1      -1.210   2.561  24.531  0.00  0.00    +0.060 C 
ATOM      7  C   UNL     1      -2.022   3.217  23.402  0.00  0.00    +0.027 C 
ATOM      8  C   UNL     1      -2.216   1.659  25.260  0.00  0.00    +0.095 C 
ATOM      9  C   UNL     1      -3.423   2.635  23.535  0.00  0.00    +0.085 C 
ENDROOT
BRANCH   6  11
ATOM      1  S   UNL     1      -0.046   0.118  23.893  0.00  0.00    -0.072 S 
ATOM      5  N   UNL     1       1.175   2.388  23.804  0.00  0.00    -0.244 NA
ATOM     11  C   UNL     1       0.025   1.817  24.075  0.00  0.00    +0.084 A 
ATOM     13  C   UNL     1       1.607   0.112  23.402  0.00  0.00    +0.039 A 
ATOM     14  C   UNL     1       2.093   1.424  23.416  0.00  0.00    +0.078 A 
ATOM     17  C   UNL     1       2.416  -0.975  23.032  0.00  0.00    +0.017 A 
ATOM     18  C   UNL     1       3.436   1.651  23.045  0.00  0.00    +0.029 A 
ATOM     21  C   UNL     1       3.741  -0.721  22.670  0.00  0.00    +0.001 A 
ATOM     22  C   UNL     1       4.247   0.575  22.676  0.00  0.00    +0.002 A 
ENDBRANCH   6  11
BRANCH   4  10
ATOM     10  C   UNL     1      -4.632   1.426  25.254  0.00  0.00    +0.119 C 
BRANCH  10  12
ATOM      2  F   UNL     1      -4.628  -2.731  22.696  0.00  0.00    -0.202 F 
ATOM      3  F   UNL     1      -3.304  -4.023  24.709  0.00  0.00    -0.202 F 
ATOM     12  C   UNL     1      -4.277  -0.030  25.109  0.00  0.00    -0.030 A 
ATOM     15  C   UNL     1      -4.624  -0.720  23.947  0.00  0.00    +0.046 A 
ATOM     16  C   UNL     1      -3.601  -0.690  26.136  0.00  0.00    +0.008 A 
ATOM     19  C   UNL     1      -4.295  -2.069  23.811  0.00  0.00    +0.159 A 
ATOM     20  C   UNL     1      -3.273  -2.039  26.000  0.00  0.00    +0.041 A 
ATOM     23  C   UNL     1      -3.620  -2.728  24.838  0.00  0.00    +0.158 A 
ENDBRANCH  10  12
ENDBRANCH   4  10
TORSDOF 3
ENDMDL
MODEL 5
REMARK VINA RESULT:      -1.4      4.021      7.997
REMARK  Name = 51137076
REMARK  3 active torsions:
REMARK  status: ('A' for Active; 'I' for Inactive)
REMARK    1  A    between atoms: N_4  and  C_10
REMARK    2  A    between atoms: C_6  and  C_11
REMARK    3  A    between atoms: C_10  and  C_12
REMARK                            x       y       z     vdW  Elec       q    Type
REMARK                         _______ _______ _______ _____ _____    ______ ____
ROOT
ATOM      4  N   UNL     1      -3.149  -1.436  24.795  0.00  0.00    -0.297 NA
ATOM      6  C   UNL     1      -0.826  -1.746  24.723  0.00  0.00    +0.060 C 
ATOM      7  C   UNL     1      -1.244  -1.321  26.140  0.00  0.00    +0.027 C 
ATOM      8  C   UNL     1      -2.037  -1.409  23.843  0.00  0.00    +0.095 C 
ATOM      9  C   UNL     1      -2.646  -0.745  25.982  0.00  0.00    +0.085 C 
ENDROOT
BRANCH   6  11
ATOM      1  S   UNL     1       0.397   0.419  23.480  0.00  0.00    -0.072 S 
ATOM      5  N   UNL     1       1.640  -1.679  24.321  0.00  0.00    -0.244 NA
ATOM     11  C   UNL     1       0.457  -1.120  24.224  0.00  0.00    +0.084 A 
ATOM     13  C   UNL     1       2.106   0.363  23.251  0.00  0.00    +0.039 A 
ATOM     14  C   UNL     1       2.596  -0.841  23.767  0.00  0.00    +0.078 A 
ATOM     17  C   UNL     1       2.950   1.315  22.658  0.00  0.00    +0.017 A 
ATOM     18  C   UNL     1       3.982  -1.097  23.685  0.00  0.00    +0.029 A 
ATOM     21  C   UNL     1       4.317   1.037  22.590  0.00  0.00    +0.001 A 
ATOM     22  C   UNL     1       4.829  -0.154  23.095  0.00  0.00    +0.002 A 
ENDBRANCH   6  11
BRANCH   4  10
ATOM     10  C   UNL     1      -4.353  -0.816  24.261  0.00  0.00    +0.119 C 
BRANCH  10  12
ATOM      2  F   UNL     1      -5.794   3.602  25.754  0.00  0.00    -0.202 F 
ATOM      3  F   UNL     1      -3.943   4.802  24.141  0.00  0.00    -0.202 F 
ATOM     12  C   UNL     1      -4.243   0.685  24.228  0.00  0.00    -0.030 A 
ATOM     15  C   UNL     1      -5.086   1.463  25.022  0.00  0.00    +0.046 A 
ATOM     16  C   UNL     1      -3.298   1.298  23.405  0.00  0.00    +0.008 A 
ATOM     19  C   UNL     1      -4.985   2.855  24.993  0.00  0.00    +0.159 A 
ATOM     20  C   UNL     1      -3.197   2.689  23.376  0.00  0.00    +0.041 A 
ATOM     23  C   UNL     1      -4.040   3.467  24.169  0.00  0.00    +0.158 A 
ENDBRANCH  10  12
ENDBRANCH   4  10
TORSDOF 3
ENDMDL
MODEL 6
REMARK VINA RESULT:      -0.9      1.516      2.071
REMARK  Name = 51137076
REMARK  3 active torsions:
REMARK  status: ('A' for Active; 'I' for Inactive)
REMARK    1  A    between atoms: N_4  and  C_10
REMARK    2  A    between atoms: C_6  and  C_11
REMARK    3  A    between atoms: C_10  and  C_12
REMARK                            x       y       z     vdW  Elec       q    Type
REMARK                         _______ _______ _______ _____ _____    ______ ____
ROOT
ATOM      4  N   UNL     1       0.693   1.088  23.088  0.00  0.00    -0.297 NA
ATOM      6  C   UNL     1      -1.170   2.447  23.517  0.00  0.00    +0.060 C 
ATOM      7  C   UNL     1      -0.007   2.863  24.434  0.00  0.00    +0.027 C 
ATOM      8  C   UNL     1      -0.767   1.066  22.982  0.00  0.00    +0.095 C 
ATOM      9  C   UNL     1       0.967   1.693  24.391  0.00  0.00    +0.085 C 
ENDROOT
BRANCH   6  11
ATOM      1  S   UNL     1      -3.233   3.943  24.627  0.00  0.00    -0.072 S 
ATOM      5  N   UNL     1      -3.230   1.371  24.435  0.00  0.00    -0.244 NA
ATOM     11  C   UNL     1      -2.530   2.450  24.176  0.00  0.00    +0.084 A 
ATOM     13  C   UNL     1      -4.611   3.100  25.232  0.00  0.00    +0.039 A 
ATOM     14  C   UNL     1      -4.426   1.727  25.041  0.00  0.00    +0.078 A 
ATOM     17  C   UNL     1      -5.770   3.617  25.832  0.00  0.00    +0.017 A 
ATOM     18  C   UNL     1      -5.441   0.842  25.467  0.00  0.00    +0.029 A 
ATOM     21  C   UNL     1      -6.759   2.719  26.244  0.00  0.00    +0.001 A 
ATOM     22  C   UNL     1      -6.598   1.349  26.066  0.00  0.00    +0.002 A 
ENDBRANCH   6  11
BRANCH   4  10
ATOM     10  C   UNL     1       1.280  -0.237  22.957  0.00  0.00    +0.119 C 
BRANCH  10  12
ATOM      2  F   UNL     1       5.489  -2.336  24.261  0.00  0.00    -0.202 F 
ATOM      3  F   UNL     1       6.887  -0.115  23.499  0.00  0.00    -0.202 F 
ATOM     12  C   UNL     1       2.778  -0.204  23.102  0.00  0.00    -0.030 A 
ATOM     15  C   UNL     1       3.452  -1.307  23.625  0.00  0.00    +0.046 A 
ATOM     16  C   UNL     1       3.492   0.930  22.713  0.00  0.00    +0.008 A 
ATOM     19  C   UNL     1       4.841  -1.278  23.760  0.00  0.00    +0.159 A 
ATOM     20  C   UNL     1       4.880   0.959  22.847  0.00  0.00    +0.041 A 
ATOM     23  C   UNL     1       5.554  -0.144  23.371  0.00  0.00    +0.158 A 
ENDBRANCH  10  12
ENDBRANCH   4  10
TORSDOF 3
ENDMDL
MODEL 7
REMARK VINA RESULT:      -0.1      3.665      8.078
REMARK  Name = 51137076
REMARK  3 active torsions:
REMARK  status: ('A' for Active; 'I' for Inactive)
REMARK    1  A    between atoms: N_4  and  C_10
REMARK    2  A    between atoms: C_6  and  C_11
REMARK    3  A    between atoms: C_10  and  C_12
REMARK                            x       y       z     vdW  Elec       q    Type
REMARK                         _______ _______ _______ _____ _____    ______ ____
ROOT
ATOM      4  N   UNL     1      -2.636   4.427  26.008  0.00  0.00    -0.297 NA
ATOM      6  C   UNL     1      -0.548   3.462  25.553  0.00  0.00    +0.060 C 
ATOM      7  C   UNL     1      -0.582   4.897  25.003  0.00  0.00    +0.027 C 
ATOM      8  C   UNL     1      -2.019   3.113  25.819  0.00  0.00    +0.095 C 
ATOM      9  C   UNL     1      -2.058   5.269  24.960  0.00  0.00    +0.085 C 
ENDROOT
BRANCH   6  11
ATOM      1  S   UNL     1      -0.735   1.106  24.090  0.00  0.00    -0.072 S 
ATOM      5  N   UNL     1       1.399   2.541  24.285  0.00  0.00    -0.244 NA
ATOM     11  C   UNL     1       0.145   2.456  24.662  0.00  0.00    +0.084 A 
ATOM     13  C   UNL     1       0.669   0.559  23.251  0.00  0.00    +0.039 A 
ATOM     14  C   UNL     1       1.715   1.460  23.475  0.00  0.00    +0.078 A 
ATOM     17  C   UNL     1       0.833  -0.585  22.453  0.00  0.00    +0.017 A 
ATOM     18  C   UNL     1       2.968   1.204  22.877  0.00  0.00    +0.029 A 
ATOM     21  C   UNL     1       2.083  -0.815  21.874  0.00  0.00    +0.001 A 
ATOM     22  C   UNL     1       3.139   0.067  22.082  0.00  0.00    +0.002 A 
ENDBRANCH   6  11
BRANCH   4  10
ATOM     10  C   UNL     1      -4.089   4.373  25.937  0.00  0.00    +0.119 C 
BRANCH  10  12
ATOM      2  F   UNL     1      -3.699   0.422  23.099  0.00  0.00    -0.202 F 
ATOM      3  F   UNL     1      -5.920  -0.681  24.249  0.00  0.00    -0.202 F 
ATOM     12  C   UNL     1      -4.579   3.023  25.487  0.00  0.00    -0.030 A 
ATOM     15  C   UNL     1      -3.899   2.335  24.481  0.00  0.00    +0.046 A 
ATOM     16  C   UNL     1      -5.712   2.459  26.074  0.00  0.00    +0.008 A 
ATOM     19  C   UNL     1      -4.352   1.083  24.063  0.00  0.00    +0.159 A 
ATOM     20  C   UNL     1      -6.165   1.208  25.655  0.00  0.00    +0.041 A 
ATOM     23  C   UNL     1      -5.485   0.521  24.650  0.00  0.00    +0.158 A 
ENDBRANCH  10  12
ENDBRANCH   4  10
TORSDOF 3
ENDMDL
MODEL 8
REMARK VINA RESULT:       0.1      4.019      6.943
REMARK  Name = 51137076
REMARK  3 active torsions:
REMARK  status: ('A' for Active; 'I' for Inactive)
REMARK    1  A    between atoms: N_4  and  C_10
REMARK    2  A    between atoms: C_6  and  C_11
REMARK    3  A    between atoms: C_10  and  C_12
REMARK                            x       y       z     vdW  Elec       q    Type
REMARK                         _______ _______ _______ _____ _____    ______ ____
ROOT
ATOM      4  N   UNL     1      -5.766   3.139  25.145  0.00  0.00    -0.297 NA
ATOM      6  C   UNL     1      -5.213   0.909  24.671  0.00  0.00    +0.060 C 
ATOM      7  C   UNL     1      -6.045   0.970  25.963  0.00  0.00    +0.027 C 
ATOM      8  C   UNL     1      -4.751   2.354  24.439  0.00  0.00    +0.095 C 
ATOM      9  C   UNL     1      -5.985   2.426  26.404  0.00  0.00    +0.085 C 
ENDROOT
BRANCH   6  11
ATOM      1  S   UNL     1      -4.288  -1.626  24.005  0.00  0.00    -0.072 S 
ATOM      5  N   UNL     1      -2.892   0.166  25.227  0.00  0.00    -0.244 NA
ATOM     11  C   UNL     1      -4.069  -0.078  24.699  0.00  0.00    +0.084 A 
ATOM     13  C   UNL     1      -2.669  -2.037  24.435  0.00  0.00    +0.039 A 
ATOM     14  C   UNL     1      -2.078  -0.948  25.084  0.00  0.00    +0.078 A 
ATOM     17  C   UNL     1      -1.973  -3.237  24.215  0.00  0.00    +0.017 A 
ATOM     18  C   UNL     1      -0.743  -1.068  25.526  0.00  0.00    +0.029 A 
ATOM     21  C   UNL     1      -0.653  -3.328  24.663  0.00  0.00    +0.001 A 
ATOM     22  C   UNL     1      -0.044  -2.258  25.311  0.00  0.00    +0.002 A 
ENDBRANCH   6  11
BRANCH   4  10
ATOM     10  C   UNL     1      -5.357   4.520  25.353  0.00  0.00    +0.119 C 
BRANCH  10  12
ATOM      2  F   UNL     1      -0.809   3.226  26.563  0.00  0.00    -0.202 F 
ATOM      3  F   UNL     1       0.226   5.140  24.908  0.00  0.00    -0.202 F 
ATOM     12  C   UNL     1      -3.865   4.686  25.234  0.00  0.00    -0.030 A 
ATOM     15  C   UNL     1      -3.012   3.863  25.968  0.00  0.00    +0.046 A 
ATOM     16  C   UNL     1      -3.337   5.662  24.389  0.00  0.00    +0.008 A 
ATOM     19  C   UNL     1      -1.629   4.016  25.858  0.00  0.00    +0.159 A 
ATOM     20  C   UNL     1      -1.955   5.815  24.279  0.00  0.00    +0.041 A 
ATOM     23  C   UNL     1      -1.101   4.992  25.014  0.00  0.00    +0.158 A 
ENDBRANCH  10  12
ENDBRANCH   4  10
TORSDOF 3
ENDMDL
