MODEL 1
REMARK VINA RESULT:       1.0      0.000      0.000
REMARK  Name = 51136774
REMARK  5 active torsions:
REMARK  status: ('A' for Active; 'I' for Inactive)
REMARK    1  A    between atoms: O_4  and  C_18
REMARK    2  A    between atoms: C_9  and  C_14
REMARK    3  A    between atoms: C_10  and  C_15
REMARK    4  A    between atoms: C_14  and  C_16
REMARK    5  A    between atoms: C_15  and  C_18
REMARK                            x       y       z     vdW  Elec       q    Type
REMARK                         _______ _______ _______ _____ _____    ______ ____
ROOT
ATOM      2  O   UNL     1      -1.146   1.975  22.123  0.00  0.00    -0.252 OA
ATOM      3  O   UNL     1       2.864  -0.327  22.202  0.00  0.00    -0.377 OA
ATOM      6  N   UNL     1      -0.476   2.822  24.158  0.00  0.00    -0.285 N 
ATOM      7  N   UNL     1       0.530   0.859  23.239  0.00  0.00    -0.281 N 
ATOM      9  C   UNL     1      -1.869   2.715  26.217  0.00  0.00    +0.016 C 
ATOM     10  C   UNL     1      -2.333   4.166  25.932  0.00  0.00    +0.006 C 
ATOM     11  C   UNL     1      -2.266   4.496  24.431  0.00  0.00    +0.023 C 
ATOM     12  C   UNL     1      -0.484   2.464  25.585  0.00  0.00    +0.113 C 
ATOM     13  C   UNL     1      -0.878   4.199  23.874  0.00  0.00    +0.109 C 
ATOM     17  C   UNL     1      -0.409   1.890  23.113  0.00  0.00    +0.305 C 
ATOM     20  C   UNL     1       0.453  -0.315  22.370  0.00  0.00    +0.137 C 
ATOM     21  C   UNL     1       1.803   0.977  23.961  0.00  0.00    +0.137 C 
ATOM     25  C   UNL     1       1.654  -0.352  21.437  0.00  0.00    +0.179 C 
ATOM     26  C   UNL     1       2.963   0.873  22.974  0.00  0.00    +0.179 C 
ENDROOT
BRANCH   9  14
ATOM     14  C   UNL     1      -2.868   1.644  25.757  0.00  0.00    +0.061 C 
BRANCH  14  16
ATOM      1  F   UNL     1      -4.467  -4.012  22.960  0.00  0.00    -0.205 F 
ATOM      8  N   UNL     1      -1.082   0.170  26.395  0.00  0.00    -0.287 NA
ATOM     16  C   UNL     1      -2.202   0.289  25.762  0.00  0.00    +0.044 C 
ATOM     19  C   UNL     1      -2.857  -0.832  25.039  0.00  0.00    -0.001 A 
ATOM     22  C   UNL     1      -2.056  -1.939  24.734  0.00  0.00    -0.034 A 
ATOM     23  C   UNL     1      -0.467  -1.161  26.451  0.00  0.00    +0.146 C 
ATOM     24  C   UNL     1      -0.612  -1.916  25.136  0.00  0.00    +0.059 C 
ATOM     27  C   UNL     1      -4.200  -0.802  24.658  0.00  0.00    +0.013 A 
ATOM     28  C   UNL     1      -2.602  -3.010  24.020  0.00  0.00    +0.042 A 
ATOM     29  C   UNL     1      -4.740  -1.883  23.959  0.00  0.00    +0.039 A 
ATOM     30  C   UNL     1      -3.943  -2.981  23.637  0.00  0.00    +0.124 A 
ENDBRANCH  14  16
ENDBRANCH   9  14
BRANCH  10  15
ATOM     15  C   UNL     1      -3.723   4.474  26.489  0.00  0.00    +0.124 C 
BRANCH  15  18
ATOM      5  O   UNL     1      -4.894   3.897  24.430  0.00  0.00    -0.251 OA
ATOM     18  C   UNL     1      -4.806   3.856  25.648  0.00  0.00    +0.305 C 
BRANCH  18   4
ATOM      4  O   UNL     1      -5.704   3.227  26.449  0.00  0.00    -0.481 OA
ATOM     31  H   UNL     1      -5.978   2.361  26.079  0.00  0.00    +0.295 HD
ENDBRANCH  18   4
ENDBRANCH  15  18
ENDBRANCH  10  15
TORSDOF 5
ENDMDL
MODEL 2
REMARK VINA RESULT:       2.6      1.963      5.730
REMARK  Name = 51136774
REMARK  5 active torsions:
REMARK  status: ('A' for Active; 'I' for Inactive)
REMARK    1  A    between atoms: O_4  and  C_18
REMARK    2  A    between atoms: C_9  and  C_14
REMARK    3  A    between atoms: C_10  and  C_15
REMARK    4  A    between atoms: C_14  and  C_16
REMARK    5  A    between atoms: C_15  and  C_18
REMARK                            x       y       z     vdW  Elec       q    Type
REMARK                         _______ _______ _______ _____ _____    ______ ____
ROOT
ATOM      2  O   UNL     1      -0.424   3.188  26.227  0.00  0.00    -0.252 OA
ATOM      3  O   UNL     1      -4.460   5.263  25.339  0.00  0.00    -0.377 OA
ATOM      6  N   UNL     1      -0.506   2.517  24.024  0.00  0.00    -0.285 N 
ATOM      7  N   UNL     1      -2.462   3.286  25.162  0.00  0.00    -0.281 N 
ATOM      9  C   UNL     1      -0.283   0.148  23.300  0.00  0.00    +0.016 C 
ATOM     10  C   UNL     1       1.216   0.419  23.007  0.00  0.00    +0.006 C 
ATOM     11  C   UNL     1       1.763   1.563  23.879  0.00  0.00    +0.023 C 
ATOM     12  C   UNL     1      -1.092   1.457  23.191  0.00  0.00    +0.113 C 
ATOM     13  C   UNL     1       0.898   2.811  23.739  0.00  0.00    +0.109 C 
ATOM     17  C   UNL     1      -1.091   3.008  25.201  0.00  0.00    +0.305 C 
ATOM     20  C   UNL     1      -3.205   3.492  26.404  0.00  0.00    +0.137 C 
ATOM     21  C   UNL     1      -3.190   3.712  23.960  0.00  0.00    +0.137 C 
ATOM     25  C   UNL     1      -3.680   4.936  26.494  0.00  0.00    +0.179 C 
ATOM     26  C   UNL     1      -3.687   5.145  24.142  0.00  0.00    +0.179 C 
ENDROOT
BRANCH   9  14
ATOM     14  C   UNL     1      -0.537  -0.526  24.654  0.00  0.00    +0.061 C 
BRANCH  14  16
ATOM      1  F   UNL     1      -6.831   1.123  24.839  0.00  0.00    -0.205 F 
ATOM      8  N   UNL     1      -1.681  -2.625  24.428  0.00  0.00    -0.287 NA
ATOM     16  C   UNL     1      -1.801  -1.349  24.586  0.00  0.00    +0.044 C 
ATOM     19  C   UNL     1      -3.111  -0.657  24.697  0.00  0.00    -0.001 A 
ATOM     22  C   UNL     1      -4.236  -1.362  24.250  0.00  0.00    -0.034 A 
ATOM     23  C   UNL     1      -2.907  -3.432  24.422  0.00  0.00    +0.146 C 
ATOM     24  C   UNL     1      -4.047  -2.738  23.686  0.00  0.00    +0.059 C 
ATOM     27  C   UNL     1      -3.241   0.638  25.203  0.00  0.00    +0.013 A 
ATOM     28  C   UNL     1      -5.493  -0.752  24.290  0.00  0.00    +0.042 A 
ATOM     29  C   UNL     1      -4.503   1.233  25.253  0.00  0.00    +0.039 A 
ATOM     30  C   UNL     1      -5.624   0.542  24.794  0.00  0.00    +0.124 A 
ENDBRANCH  14  16
ENDBRANCH   9  14
BRANCH  10  15
ATOM     15  C   UNL     1       2.090  -0.827  23.144  0.00  0.00    +0.124 C 
BRANCH  15  18
ATOM      5  O   UNL     1       4.075   0.445  22.522  0.00  0.00    -0.251 OA
ATOM     18  C   UNL     1       3.554  -0.483  23.124  0.00  0.00    +0.305 C 
BRANCH  18   4
ATOM      4  O   UNL     1       4.243  -1.368  23.888  0.00  0.00    -0.481 OA
ATOM     31  H   UNL     1       3.668  -2.091  24.218  0.00  0.00    +0.295 HD
ENDBRANCH  18   4
ENDBRANCH  15  18
ENDBRANCH  10  15
TORSDOF 5
ENDMDL
MODEL 3
REMARK VINA RESULT:       3.7      1.585      5.345
REMARK  Name = 51136774
REMARK  5 active torsions:
REMARK  status: ('A' for Active; 'I' for Inactive)
REMARK    1  A    between atoms: O_4  and  C_18
REMARK    2  A    between atoms: C_9  and  C_14
REMARK    3  A    between atoms: C_10  and  C_15
REMARK    4  A    between atoms: C_14  and  C_16
REMARK    5  A    between atoms: C_15  and  C_18
REMARK                            x       y       z     vdW  Elec       q    Type
REMARK                         _______ _______ _______ _____ _____    ______ ____
ROOT
ATOM      2  O   UNL     1      -1.902   3.986  26.393  0.00  0.00    -0.252 OA
ATOM      3  O   UNL     1      -6.406   3.980  25.345  0.00  0.00    -0.377 OA
ATOM      6  N   UNL     1      -1.605   3.145  24.268  0.00  0.00    -0.285 N 
ATOM      7  N   UNL     1      -3.739   3.078  25.344  0.00  0.00    -0.281 N 
ATOM      9  C   UNL     1      -0.340   1.059  23.780  0.00  0.00    +0.016 C 
ATOM     10  C   UNL     1       0.896   1.934  23.447  0.00  0.00    +0.006 C 
ATOM     11  C   UNL     1       0.856   3.277  24.195  0.00  0.00    +0.023 C 
ATOM     12  C   UNL     1      -1.638   1.862  23.550  0.00  0.00    +0.113 C 
ATOM     13  C   UNL     1      -0.464   3.998  23.941  0.00  0.00    +0.109 C 
ATOM     17  C   UNL     1      -2.386   3.436  25.396  0.00  0.00    +0.305 C 
ATOM     20  C   UNL     1      -4.539   3.051  26.568  0.00  0.00    +0.137 C 
ATOM     21  C   UNL     1      -4.538   3.025  24.114  0.00  0.00    +0.137 C 
ATOM     25  C   UNL     1      -5.601   4.139  26.519  0.00  0.00    +0.179 C 
ATOM     26  C   UNL     1      -5.618   4.103  24.158  0.00  0.00    +0.179 C 
ENDROOT
BRANCH   9  14
ATOM     14  C   UNL     1      -0.320   0.472  25.198  0.00  0.00    +0.061 C 
BRANCH  14  16
ATOM      1  F   UNL     1      -5.852  -2.529  23.538  0.00  0.00    -0.205 F 
ATOM      8  N   UNL     1       0.199  -1.858  25.456  0.00  0.00    -0.287 NA
ATOM     16  C   UNL     1      -0.705  -0.987  25.152  0.00  0.00    +0.044 C 
ATOM     19  C   UNL     1      -2.090  -1.348  24.757  0.00  0.00    -0.001 A 
ATOM     22  C   UNL     1      -2.306  -2.671  24.352  0.00  0.00    -0.034 A 
ATOM     23  C   UNL     1      -0.192  -3.273  25.470  0.00  0.00    +0.146 C 
ATOM     24  C   UNL     1      -1.142  -3.617  24.330  0.00  0.00    +0.059 C 
ATOM     27  C   UNL     1      -3.142  -0.429  24.764  0.00  0.00    +0.013 A 
ATOM     28  C   UNL     1      -3.579  -3.065  23.930  0.00  0.00    +0.042 A 
ATOM     29  C   UNL     1      -4.413  -0.836  24.356  0.00  0.00    +0.039 A 
ATOM     30  C   UNL     1      -4.630  -2.148  23.936  0.00  0.00    +0.124 A 
ENDBRANCH  14  16
ENDBRANCH   9  14
BRANCH  10  15
ATOM     15  C   UNL     1       2.224   1.218  23.697  0.00  0.00    +0.124 C 
BRANCH  15  18
ATOM      5  O   UNL     1       1.778  -0.145  21.726  0.00  0.00    -0.251 OA
ATOM     18  C   UNL     1       2.435   0.086  22.730  0.00  0.00    +0.305 C 
BRANCH  18   4
ATOM      4  O   UNL     1       3.488  -0.669  23.133  0.00  0.00    -0.481 OA
ATOM     31  H   UNL     1       3.768  -0.449  24.048  0.00  0.00    +0.295 HD
ENDBRANCH  18   4
ENDBRANCH  15  18
ENDBRANCH  10  15
TORSDOF 5
ENDMDL
MODEL 4
REMARK VINA RESULT:       3.8      2.690      5.175
REMARK  Name = 51136774
REMARK  5 active torsions:
REMARK  status: ('A' for Active; 'I' for Inactive)
REMARK    1  A    between atoms: O_4  and  C_18
REMARK    2  A    between atoms: C_9  and  C_14
REMARK    3  A    between atoms: C_10  and  C_15
REMARK    4  A    between atoms: C_14  and  C_16
REMARK    5  A    between atoms: C_15  and  C_18
REMARK                            x       y       z     vdW  Elec       q    Type
REMARK                         _______ _______ _______ _____ _____    ______ ____
ROOT
ATOM      2  O   UNL     1      -0.172  -1.539  25.184  0.00  0.00    -0.252 OA
ATOM      3  O   UNL     1       2.730  -0.341  21.789  0.00  0.00    -0.377 OA
ATOM      6  N   UNL     1      -1.814  -0.658  23.828  0.00  0.00    -0.285 N 
ATOM      7  N   UNL     1       0.493  -0.133  23.487  0.00  0.00    -0.281 N 
ATOM      9  C   UNL     1      -3.433   1.075  24.580  0.00  0.00    +0.016 C 
ATOM     10  C   UNL     1      -4.462  -0.056  24.840  0.00  0.00    +0.006 C 
ATOM     11  C   UNL     1      -3.766  -1.394  25.142  0.00  0.00    +0.023 C 
ATOM     12  C   UNL     1      -2.425   0.638  23.496  0.00  0.00    +0.113 C 
ATOM     13  C   UNL     1      -2.768  -1.744  24.043  0.00  0.00    +0.109 C 
ATOM     17  C   UNL     1      -0.478  -0.820  24.225  0.00  0.00    +0.305 C 
ATOM     20  C   UNL     1       1.850   0.010  24.014  0.00  0.00    +0.137 C 
ATOM     21  C   UNL     1       0.374   0.200  22.062  0.00  0.00    +0.137 C 
ATOM     25  C   UNL     1       2.828  -0.774  23.150  0.00  0.00    +0.179 C 
ATOM     26  C   UNL     1       1.421  -0.575  21.265  0.00  0.00    +0.179 C 
ENDROOT
BRANCH   9  14
ATOM     14  C   UNL     1      -2.693   1.542  25.841  0.00  0.00    +0.061 C 
BRANCH  14  16
ATOM      1  F   UNL     1       1.157   5.592  22.503  0.00  0.00    -0.205 F 
ATOM      8  N   UNL     1      -3.378   3.719  26.585  0.00  0.00    -0.287 NA
ATOM     16  C   UNL     1      -2.572   3.046  25.834  0.00  0.00    +0.044 C 
ATOM     19  C   UNL     1      -1.544   3.676  24.966  0.00  0.00    -0.001 A 
ATOM     22  C   UNL     1      -1.705   5.038  24.684  0.00  0.00    -0.034 A 
ATOM     23  C   UNL     1      -3.220   5.178  26.624  0.00  0.00    +0.146 C 
ATOM     24  C   UNL     1      -2.892   5.757  25.254  0.00  0.00    +0.059 C 
ATOM     27  C   UNL     1      -0.468   2.965  24.431  0.00  0.00    +0.013 A 
ATOM     28  C   UNL     1      -0.795   5.681  23.841  0.00  0.00    +0.042 A 
ATOM     29  C   UNL     1       0.445   3.620  23.603  0.00  0.00    +0.039 A 
ATOM     30  C   UNL     1       0.280   4.972  23.305  0.00  0.00    +0.124 A 
ENDBRANCH  14  16
ENDBRANCH   9  14
BRANCH  10  15
ATOM     15  C   UNL     1      -5.467   0.288  25.938  0.00  0.00    +0.124 C 
BRANCH  15  18
ATOM      5  O   UNL     1      -6.771   1.838  24.582  0.00  0.00    -0.251 OA
ATOM     18  C   UNL     1      -6.212   1.557  25.632  0.00  0.00    +0.305 C 
BRANCH  18   4
ATOM      4  O   UNL     1      -6.182   2.378  26.713  0.00  0.00    -0.481 OA
ATOM     31  H   UNL     1      -7.017   2.885  26.811  0.00  0.00    +0.295 HD
ENDBRANCH  18   4
ENDBRANCH  15  18
ENDBRANCH  10  15
TORSDOF 5
ENDMDL
MODEL 5
REMARK VINA RESULT:       4.1      2.656      4.990
REMARK  Name = 51136774
REMARK  5 active torsions:
REMARK  status: ('A' for Active; 'I' for Inactive)
REMARK    1  A    between atoms: O_4  and  C_18
REMARK    2  A    between atoms: C_9  and  C_14
REMARK    3  A    between atoms: C_10  and  C_15
REMARK    4  A    between atoms: C_14  and  C_16
REMARK    5  A    between atoms: C_15  and  C_18
REMARK                            x       y       z     vdW  Elec       q    Type
REMARK                         _______ _______ _______ _____ _____    ______ ____
ROOT
ATOM      2  O   UNL     1      -0.032  -1.392  25.298  0.00  0.00    -0.252 OA
ATOM      3  O   UNL     1       2.681  -0.259  21.729  0.00  0.00    -0.377 OA
ATOM      6  N   UNL     1      -1.771  -0.748  23.930  0.00  0.00    -0.285 N 
ATOM      7  N   UNL     1       0.479  -0.082  23.475  0.00  0.00    -0.281 N 
ATOM      9  C   UNL     1      -3.499   0.914  24.593  0.00  0.00    +0.016 C 
ATOM     10  C   UNL     1      -4.431  -0.265  24.974  0.00  0.00    +0.006 C 
ATOM     11  C   UNL     1      -3.627  -1.519  25.359  0.00  0.00    +0.023 C 
ATOM     12  C   UNL     1      -2.488   0.467  23.516  0.00  0.00    +0.113 C 
ATOM     13  C   UNL     1      -2.633  -1.882  24.260  0.00  0.00    +0.109 C 
ATOM     17  C   UNL     1      -0.417  -0.777  24.295  0.00  0.00    +0.305 C 
ATOM     20  C   UNL     1       1.834   0.204  23.945  0.00  0.00    +0.137 C 
ATOM     21  C   UNL     1       0.298   0.124  22.033  0.00  0.00    +0.137 C 
ATOM     25  C   UNL     1       2.847  -0.571  23.116  0.00  0.00    +0.179 C 
ATOM     26  C   UNL     1       1.380  -0.632  21.267  0.00  0.00    +0.179 C 
ENDROOT
BRANCH   9  14
ATOM     14  C   UNL     1      -2.766   1.535  25.789  0.00  0.00    +0.061 C 
BRANCH  14  16
ATOM      1  F   UNL     1      -4.176   7.076  22.677  0.00  0.00    -0.205 F 
ATOM      8  N   UNL     1      -0.638   2.629  25.584  0.00  0.00    -0.287 NA
ATOM     16  C   UNL     1      -1.901   2.681  25.320  0.00  0.00    +0.044 C 
ATOM     19  C   UNL     1      -2.540   3.805  24.589  0.00  0.00    -0.001 A 
ATOM     22  C   UNL     1      -1.814   5.001  24.513  0.00  0.00    -0.034 A 
ATOM     23  C   UNL     1       0.212   3.713  25.076  0.00  0.00    +0.146 C 
ATOM     24  C   UNL     1      -0.470   5.071  25.174  0.00  0.00    +0.059 C 
ATOM     27  C   UNL     1      -3.807   3.708  24.011  0.00  0.00    +0.013 A 
ATOM     28  C   UNL     1      -2.376   6.109  23.874  0.00  0.00    +0.042 A 
ATOM     29  C   UNL     1      -4.353   4.816  23.361  0.00  0.00    +0.039 A 
ATOM     30  C   UNL     1      -3.642   6.014  23.296  0.00  0.00    +0.124 A 
ENDBRANCH  14  16
ENDBRANCH   9  14
BRANCH  10  15
ATOM     15  C   UNL     1      -5.431   0.090  26.074  0.00  0.00    +0.124 C 
BRANCH  15  18
ATOM      5  O   UNL     1      -6.594   1.690  24.649  0.00  0.00    -0.251 OA
ATOM     18  C   UNL     1      -6.189   1.348  25.750  0.00  0.00    +0.305 C 
BRANCH  18   4
ATOM      4  O   UNL     1      -6.369   2.077  26.881  0.00  0.00    -0.481 OA
ATOM     31  H   UNL     1      -7.247   1.912  27.286  0.00  0.00    +0.295 HD
ENDBRANCH  18   4
ENDBRANCH  15  18
ENDBRANCH  10  15
TORSDOF 5
ENDMDL
MODEL 6
REMARK VINA RESULT:       4.1      2.517      4.607
REMARK  Name = 51136774
REMARK  5 active torsions:
REMARK  status: ('A' for Active; 'I' for Inactive)
REMARK    1  A    between atoms: O_4  and  C_18
REMARK    2  A    between atoms: C_9  and  C_14
REMARK    3  A    between atoms: C_10  and  C_15
REMARK    4  A    between atoms: C_14  and  C_16
REMARK    5  A    between atoms: C_15  and  C_18
REMARK                            x       y       z     vdW  Elec       q    Type
REMARK                         _______ _______ _______ _____ _____    ______ ____
ROOT
ATOM      2  O   UNL     1      -4.345  -0.263  26.570  0.00  0.00    -0.252 OA
ATOM      3  O   UNL     1      -4.190  -3.692  23.471  0.00  0.00    -0.377 OA
ATOM      6  N   UNL     1      -4.365   1.132  24.737  0.00  0.00    -0.285 N 
ATOM      7  N   UNL     1      -3.666  -1.147  24.556  0.00  0.00    -0.281 N 
ATOM      9  C   UNL     1      -2.758   3.003  24.417  0.00  0.00    +0.016 C 
ATOM     10  C   UNL     1      -3.831   3.970  24.979  0.00  0.00    +0.006 C 
ATOM     11  C   UNL     1      -4.801   3.246  25.928  0.00  0.00    +0.023 C 
ATOM     12  C   UNL     1      -3.432   1.764  23.792  0.00  0.00    +0.113 C 
ATOM     13  C   UNL     1      -5.406   2.021  25.251  0.00  0.00    +0.109 C 
ATOM     17  C   UNL     1      -4.137  -0.103  25.361  0.00  0.00    +0.305 C 
ATOM     20  C   UNL     1      -3.108  -2.352  25.168  0.00  0.00    +0.137 C 
ATOM     21  C   UNL     1      -3.967  -1.294  23.126  0.00  0.00    +0.137 C 
ATOM     25  C   UNL     1      -4.010  -3.545  24.884  0.00  0.00    +0.179 C 
ATOM     26  C   UNL     1      -4.822  -2.540  22.908  0.00  0.00    +0.179 C 
ENDROOT
BRANCH   9  14
ATOM     14  C   UNL     1      -1.707   2.576  25.450  0.00  0.00    +0.061 C 
BRANCH  14  16
ATOM      1  F   UNL     1       0.180  -3.649  25.698  0.00  0.00    -0.205 F 
ATOM      8  N   UNL     1       0.150   2.484  23.929  0.00  0.00    -0.287 NA
ATOM     16  C   UNL     1      -0.589   1.830  24.763  0.00  0.00    +0.044 C 
ATOM     19  C   UNL     1      -0.397   0.389  25.070  0.00  0.00    -0.001 A 
ATOM     22  C   UNL     1       0.365  -0.354  24.160  0.00  0.00    -0.034 A 
ATOM     23  C   UNL     1       1.273   1.774  23.307  0.00  0.00    +0.146 C 
ATOM     24  C   UNL     1       0.916   0.337  22.949  0.00  0.00    +0.059 C 
ATOM     27  C   UNL     1      -0.951  -0.224  26.196  0.00  0.00    +0.013 A 
ATOM     28  C   UNL     1       0.549  -1.723  24.370  0.00  0.00    +0.042 A 
ATOM     29  C   UNL     1      -0.749  -1.589  26.405  0.00  0.00    +0.039 A 
ATOM     30  C   UNL     1      -0.004  -2.337  25.494  0.00  0.00    +0.124 A 
ENDBRANCH  14  16
ENDBRANCH   9  14
BRANCH  10  15
ATOM     15  C   UNL     1      -3.234   5.203  25.657  0.00  0.00    +0.124 C 
BRANCH  15  18
ATOM      5  O   UNL     1      -0.869   5.525  25.162  0.00  0.00    -0.251 OA
ATOM     18  C   UNL     1      -2.046   5.731  24.903  0.00  0.00    +0.305 C 
BRANCH  18   4
ATOM      4  O   UNL     1      -2.467   6.493  23.861  0.00  0.00    -0.481 OA
ATOM     31  H   UNL     1      -2.640   7.420  24.133  0.00  0.00    +0.295 HD
ENDBRANCH  18   4
ENDBRANCH  15  18
ENDBRANCH  10  15
TORSDOF 5
ENDMDL
