MODEL 1
REMARK VINA RESULT:      -5.8      0.000      0.000
REMARK  Name = 14457639
REMARK  6 active torsions:
REMARK  status: ('A' for Active; 'I' for Inactive)
REMARK    1  A    between atoms: O_1  and  C_14
REMARK    2  A    between atoms: O_1  and  C_20
REMARK    3  A    between atoms: N_5  and  C_12
REMARK    4  A    between atoms: C_7  and  C_14
REMARK    5  A    between atoms: C_12  and  C_16
REMARK    6  A    between atoms: C_15  and  C_17
REMARK                            x       y       z     vdW  Elec       q    Type
REMARK                         _______ _______ _______ _____ _____    ______ ____
ROOT
ATOM      3  O   UNL     1       1.925   1.371  23.486  0.00  0.00    -0.276 OA
ATOM      4  N   UNL     1      -0.285   1.642  24.183  0.00  0.00    -0.282 N 
ATOM      5  N   UNL     1      -3.977   2.189  24.514  0.00  0.00    -0.328 N 
ATOM      6  N   UNL     1      -3.406   4.244  25.180  0.00  0.00    -0.240 NA
ATOM      7  C   UNL     1       0.072   2.751  25.108  0.00  0.00    +0.191 C 
ATOM      8  C   UNL     1      -0.894   3.954  25.071  0.00  0.00    +0.091 C 
ATOM      9  C   UNL     1      -2.615   2.226  24.519  0.00  0.00    +0.059 A 
ATOM     10  C   UNL     1      -1.686   1.136  24.172  0.00  0.00    +0.163 C 
ATOM     11  C   UNL     1      -2.291   3.493  24.934  0.00  0.00    +0.066 A 
ATOM     13  C   UNL     1      -4.408   3.428  24.919  0.00  0.00    +0.200 A 
ATOM     15  C   UNL     1       0.753   0.986  23.502  0.00  0.00    +0.213 C 
ATOM     17  C   UNL     1       0.376  -0.266  22.748  0.00  0.00    +0.109 C 
ENDROOT
BRANCH   7  14
ATOM      2  O   UNL     1      -0.524   1.192  26.847  0.00  0.00    -0.249 OA
ATOM     14  C   UNL     1       0.157   2.139  26.476  0.00  0.00    +0.328 C 
BRANCH  14   1
ATOM      1  O   UNL     1       1.095   2.799  27.214  0.00  0.00    -0.467 OA
ATOM     20  C   UNL     1       1.157   2.437  28.597  0.00  0.00    +0.280 C 
ENDBRANCH  14   1
ENDBRANCH   7  14
BRANCH   5  12
ATOM     12  C   UNL     1      -4.820   1.074  24.158  0.00  0.00    +0.158 C 
BRANCH  12  16
ATOM     16  C   UNL     1      -4.224  -0.232  24.612  0.00  0.00    -0.028 A 
ATOM     18  C   UNL     1      -4.124  -1.286  23.714  0.00  0.00    +0.005 A 
ATOM     19  C   UNL     1      -3.784  -0.364  25.922  0.00  0.00    +0.005 A 
ATOM     21  C   UNL     1      -3.572  -2.496  24.135  0.00  0.00    +0.000 A 
ATOM     22  C   UNL     1      -3.231  -1.573  26.342  0.00  0.00    +0.000 A 
ATOM     23  C   UNL     1      -3.125  -2.640  25.450  0.00  0.00    +0.000 A 
ENDBRANCH  12  16
ENDBRANCH   5  12
TORSDOF 4
ENDMDL
MODEL 2
REMARK VINA RESULT:      -5.4      1.888      4.390
REMARK  Name = 14457639
REMARK  6 active torsions:
REMARK  status: ('A' for Active; 'I' for Inactive)
REMARK    1  A    between atoms: O_1  and  C_14
REMARK    2  A    between atoms: O_1  and  C_20
REMARK    3  A    between atoms: N_5  and  C_12
REMARK    4  A    between atoms: C_7  and  C_14
REMARK    5  A    between atoms: C_12  and  C_16
REMARK    6  A    between atoms: C_15  and  C_17
REMARK                            x       y       z     vdW  Elec       q    Type
REMARK                         _______ _______ _______ _____ _____    ______ ____
ROOT
ATOM      3  O   UNL     1       0.697   2.461  26.314  0.00  0.00    -0.276 OA
ATOM      4  N   UNL     1      -0.980   1.175  25.325  0.00  0.00    -0.282 N 
ATOM      5  N   UNL     1      -4.017  -0.847  24.467  0.00  0.00    -0.328 N 
ATOM      6  N   UNL     1      -2.659  -2.606  24.697  0.00  0.00    -0.240 NA
ATOM      7  C   UNL     1      -0.024   0.101  24.943  0.00  0.00    +0.191 C 
ATOM      8  C   UNL     1      -0.531  -1.333  25.204  0.00  0.00    +0.091 C 
ATOM      9  C   UNL     1      -2.782  -0.344  24.751  0.00  0.00    +0.059 A 
ATOM     10  C   UNL     1      -2.396   1.073  24.873  0.00  0.00    +0.163 C 
ATOM     11  C   UNL     1      -1.969  -1.441  24.883  0.00  0.00    +0.066 A 
ATOM     13  C   UNL     1      -3.892  -2.213  24.446  0.00  0.00    +0.200 A 
ATOM     15  C   UNL     1      -0.468   2.336  25.926  0.00  0.00    +0.213 C 
ATOM     17  C   UNL     1      -1.432   3.484  26.099  0.00  0.00    +0.109 C 
ENDROOT
BRANCH   7  14
ATOM      2  O   UNL     1      -0.281   1.140  22.782  0.00  0.00    -0.249 OA
ATOM     14  C   UNL     1       0.298   0.330  23.493  0.00  0.00    +0.328 C 
BRANCH  14   1
ATOM      1  O   UNL     1       1.315  -0.497  23.116  0.00  0.00    -0.467 OA
ATOM     20  C   UNL     1       2.446   0.150  22.525  0.00  0.00    +0.280 C 
ENDBRANCH  14   1
ENDBRANCH   7  14
BRANCH   5  12
ATOM     12  C   UNL     1      -5.230  -0.103  24.230  0.00  0.00    +0.158 C 
BRANCH  12  16
ATOM     16  C   UNL     1      -5.066   1.347  24.601  0.00  0.00    -0.028 A 
ATOM     18  C   UNL     1      -4.432   2.211  23.718  0.00  0.00    +0.005 A 
ATOM     19  C   UNL     1      -5.551   1.800  25.820  0.00  0.00    +0.005 A 
ATOM     21  C   UNL     1      -4.280   3.555  24.062  0.00  0.00    +0.000 A 
ATOM     22  C   UNL     1      -5.400   3.143  26.163  0.00  0.00    +0.000 A 
ATOM     23  C   UNL     1      -4.764   4.021  25.285  0.00  0.00    +0.000 A 
ENDBRANCH  12  16
ENDBRANCH   5  12
TORSDOF 4
ENDMDL
MODEL 3
REMARK VINA RESULT:      -5.0      2.881      5.958
REMARK  Name = 14457639
REMARK  6 active torsions:
REMARK  status: ('A' for Active; 'I' for Inactive)
REMARK    1  A    between atoms: O_1  and  C_14
REMARK    2  A    between atoms: O_1  and  C_20
REMARK    3  A    between atoms: N_5  and  C_12
REMARK    4  A    between atoms: C_7  and  C_14
REMARK    5  A    between atoms: C_12  and  C_16
REMARK    6  A    between atoms: C_15  and  C_17
REMARK                            x       y       z     vdW  Elec       q    Type
REMARK                         _______ _______ _______ _____ _____    ______ ____
ROOT
ATOM      3  O   UNL     1      -4.333  -1.028  26.112  0.00  0.00    -0.276 OA
ATOM      4  N   UNL     1      -2.545  -0.101  24.934  0.00  0.00    -0.282 N 
ATOM      5  N   UNL     1       0.775   0.948  23.550  0.00  0.00    -0.328 N 
ATOM      6  N   UNL     1       0.442   2.821  24.721  0.00  0.00    -0.240 NA
ATOM      7  C   UNL     1      -2.982   1.290  25.232  0.00  0.00    +0.191 C 
ATOM      8  C   UNL     1      -1.843   2.246  25.645  0.00  0.00    +0.091 C 
ATOM      9  C   UNL     1      -0.447   0.821  24.137  0.00  0.00    +0.059 A 
ATOM     10  C   UNL     1      -1.384  -0.311  24.025  0.00  0.00    +0.163 C 
ATOM     11  C   UNL     1      -0.629   1.982  24.846  0.00  0.00    +0.066 A 
ATOM     13  C   UNL     1       1.272   2.170  23.931  0.00  0.00    +0.200 A 
ATOM     15  C   UNL     1      -3.363  -1.159  25.361  0.00  0.00    +0.213 C 
ATOM     17  C   UNL     1      -3.003  -2.534  24.854  0.00  0.00    +0.109 C 
ENDROOT
BRANCH   7  14
ATOM      2  O   UNL     1      -3.149   2.066  22.956  0.00  0.00    -0.249 OA
ATOM     14  C   UNL     1      -3.704   1.770  24.006  0.00  0.00    +0.328 C 
BRANCH  14   1
ATOM      1  O   UNL     1      -5.044   1.818  24.255  0.00  0.00    -0.467 OA
ATOM     20  C   UNL     1      -5.424   2.511  25.447  0.00  0.00    +0.280 C 
ENDBRANCH  14   1
ENDBRANCH   7  14
BRANCH   5  12
ATOM     12  C   UNL     1       1.435  -0.002  22.688  0.00  0.00    +0.158 C 
BRANCH  12  16
ATOM     16  C   UNL     1       2.892  -0.141  23.038  0.00  0.00    -0.028 A 
ATOM     18  C   UNL     1       3.350  -1.326  23.600  0.00  0.00    +0.005 A 
ATOM     19  C   UNL     1       3.758   0.915  22.795  0.00  0.00    +0.005 A 
ATOM     21  C   UNL     1       4.701  -1.455  23.924  0.00  0.00    +0.000 A 
ATOM     22  C   UNL     1       5.109   0.786  23.119  0.00  0.00    +0.000 A 
ATOM     23  C   UNL     1       5.580  -0.399  23.684  0.00  0.00    +0.000 A 
ENDBRANCH  12  16
ENDBRANCH   5  12
TORSDOF 4
ENDMDL
MODEL 4
REMARK VINA RESULT:      -4.1      2.436      4.223
REMARK  Name = 14457639
REMARK  6 active torsions:
REMARK  status: ('A' for Active; 'I' for Inactive)
REMARK    1  A    between atoms: O_1  and  C_14
REMARK    2  A    between atoms: O_1  and  C_20
REMARK    3  A    between atoms: N_5  and  C_12
REMARK    4  A    between atoms: C_7  and  C_14
REMARK    5  A    between atoms: C_12  and  C_16
REMARK    6  A    between atoms: C_15  and  C_17
REMARK                            x       y       z     vdW  Elec       q    Type
REMARK                         _______ _______ _______ _____ _____    ______ ____
ROOT
ATOM      3  O   UNL     1      -5.857   3.490  26.410  0.00  0.00    -0.276 OA
ATOM      4  N   UNL     1      -3.837   2.782  25.484  0.00  0.00    -0.282 N 
ATOM      5  N   UNL     1      -0.730   0.974  24.423  0.00  0.00    -0.328 N 
ATOM      6  N   UNL     1       0.294   2.279  25.920  0.00  0.00    -0.240 NA
ATOM      7  C   UNL     1      -3.099   3.953  26.028  0.00  0.00    +0.191 C 
ATOM      8  C   UNL     1      -1.727   3.616  26.648  0.00  0.00    +0.091 C 
ATOM      9  C   UNL     1      -1.690   1.792  24.939  0.00  0.00    +0.059 A 
ATOM     10  C   UNL     1      -3.120   1.834  24.586  0.00  0.00    +0.163 C 
ATOM     11  C   UNL     1      -1.036   2.583  25.850  0.00  0.00    +0.066 A 
ATOM     13  C   UNL     1       0.448   1.304  25.045  0.00  0.00    +0.200 A 
ATOM     15  C   UNL     1      -5.226   2.724  25.677  0.00  0.00    +0.213 C 
ATOM     17  C   UNL     1      -5.964   1.642  24.928  0.00  0.00    +0.109 C 
ENDROOT
BRANCH   7  14
ATOM      2  O   UNL     1      -3.716   4.941  23.917  0.00  0.00    -0.249 OA
ATOM     14  C   UNL     1      -2.979   4.931  24.894  0.00  0.00    +0.328 C 
BRANCH  14   1
ATOM      1  O   UNL     1      -1.940   5.781  25.133  0.00  0.00    -0.467 OA
ATOM     20  C   UNL     1      -0.734   5.496  24.417  0.00  0.00    +0.280 C 
ENDBRANCH  14   1
ENDBRANCH   7  14
BRANCH   5  12
ATOM     12  C   UNL     1      -0.899  -0.046  23.417  0.00  0.00    +0.158 C 
BRANCH  12  16
ATOM     16  C   UNL     1      -1.934  -1.059  23.830  0.00  0.00    -0.028 A 
ATOM     18  C   UNL     1      -3.260  -0.868  23.468  0.00  0.00    +0.005 A 
ATOM     19  C   UNL     1      -1.547  -2.169  24.568  0.00  0.00    +0.005 A 
ATOM     21  C   UNL     1      -4.219  -1.807  23.851  0.00  0.00    +0.000 A 
ATOM     22  C   UNL     1      -2.505  -3.108  24.950  0.00  0.00    +0.000 A 
ATOM     23  C   UNL     1      -3.841  -2.927  24.592  0.00  0.00    +0.000 A 
ENDBRANCH  12  16
ENDBRANCH   5  12
TORSDOF 4
ENDMDL
MODEL 5
REMARK VINA RESULT:      -3.7      2.661      4.689
REMARK  Name = 14457639
REMARK  6 active torsions:
REMARK  status: ('A' for Active; 'I' for Inactive)
REMARK    1  A    between atoms: O_1  and  C_14
REMARK    2  A    between atoms: O_1  and  C_20
REMARK    3  A    between atoms: N_5  and  C_12
REMARK    4  A    between atoms: C_7  and  C_14
REMARK    5  A    between atoms: C_12  and  C_16
REMARK    6  A    between atoms: C_15  and  C_17
REMARK                            x       y       z     vdW  Elec       q    Type
REMARK                         _______ _______ _______ _____ _____    ______ ____
ROOT
ATOM      3  O   UNL     1      -6.169   4.118  25.492  0.00  0.00    -0.276 OA
ATOM      4  N   UNL     1      -4.145   2.969  25.334  0.00  0.00    -0.282 N 
ATOM      5  N   UNL     1      -0.861   1.247  25.878  0.00  0.00    -0.328 N 
ATOM      6  N   UNL     1       0.028   3.133  25.076  0.00  0.00    -0.240 NA
ATOM      7  C   UNL     1      -3.598   3.932  24.340  0.00  0.00    +0.191 C 
ATOM      8  C   UNL     1      -2.135   4.354  24.593  0.00  0.00    +0.091 C 
ATOM      9  C   UNL     1      -1.908   2.056  25.551  0.00  0.00    +0.059 A 
ATOM     10  C   UNL     1      -3.346   1.760  25.680  0.00  0.00    +0.163 C 
ATOM     11  C   UNL     1      -1.337   3.202  25.059  0.00  0.00    +0.066 A 
ATOM     13  C   UNL     1       0.284   1.940  25.575  0.00  0.00    +0.200 A 
ATOM     15  C   UNL     1      -5.473   3.134  25.756  0.00  0.00    +0.213 C 
ATOM     17  C   UNL     1      -6.057   2.020  26.590  0.00  0.00    +0.109 C 
ENDROOT
BRANCH   7  14
ATOM      2  O   UNL     1      -4.295   3.833  22.034  0.00  0.00    -0.249 OA
ATOM     14  C   UNL     1      -3.774   3.285  22.996  0.00  0.00    +0.328 C 
BRANCH  14   1
ATOM      1  O   UNL     1      -3.267   2.019  23.030  0.00  0.00    -0.467 OA
ATOM     20  C   UNL     1      -2.397   1.675  21.947  0.00  0.00    +0.280 C 
ENDBRANCH  14   1
ENDBRANCH   7  14
BRANCH   5  12
ATOM     12  C   UNL     1      -0.924  -0.082  26.434  0.00  0.00    +0.158 C 
BRANCH  12  16
ATOM     16  C   UNL     1      -1.781  -0.990  25.591  0.00  0.00    -0.028 A 
ATOM     18  C   UNL     1      -3.148  -1.050  25.825  0.00  0.00    +0.005 A 
ATOM     19  C   UNL     1      -1.192  -1.753  24.593  0.00  0.00    +0.005 A 
ATOM     21  C   UNL     1      -3.942  -1.890  25.044  0.00  0.00    +0.000 A 
ATOM     22  C   UNL     1      -1.986  -2.593  23.811  0.00  0.00    +0.000 A 
ATOM     23  C   UNL     1      -3.361  -2.662  24.037  0.00  0.00    +0.000 A 
ENDBRANCH  12  16
ENDBRANCH   5  12
TORSDOF 4
ENDMDL
MODEL 6
REMARK VINA RESULT:      -3.0      2.113      2.843
REMARK  Name = 14457639
REMARK  6 active torsions:
REMARK  status: ('A' for Active; 'I' for Inactive)
REMARK    1  A    between atoms: O_1  and  C_14
REMARK    2  A    between atoms: O_1  and  C_20
REMARK    3  A    between atoms: N_5  and  C_12
REMARK    4  A    between atoms: C_7  and  C_14
REMARK    5  A    between atoms: C_12  and  C_16
REMARK    6  A    between atoms: C_15  and  C_17
REMARK                            x       y       z     vdW  Elec       q    Type
REMARK                         _______ _______ _______ _____ _____    ______ ____
ROOT
ATOM      3  O   UNL     1       0.083   3.521  23.372  0.00  0.00    -0.276 OA
ATOM      4  N   UNL     1      -1.767   2.558  24.418  0.00  0.00    -0.282 N 
ATOM      5  N   UNL     1      -4.690   0.474  25.495  0.00  0.00    -0.328 N 
ATOM      6  N   UNL     1      -5.922   2.096  24.577  0.00  0.00    -0.240 NA
ATOM      7  C   UNL     1      -2.559   3.814  24.323  0.00  0.00    +0.191 C 
ATOM      8  C   UNL     1      -4.023   3.617  23.880  0.00  0.00    +0.091 C 
ATOM      9  C   UNL     1      -3.813   1.417  25.049  0.00  0.00    +0.059 A 
ATOM     10  C   UNL     1      -2.343   1.397  25.153  0.00  0.00    +0.163 C 
ATOM     11  C   UNL     1      -4.593   2.401  24.495  0.00  0.00    +0.066 A 
ATOM     13  C   UNL     1      -5.948   0.928  25.188  0.00  0.00    +0.200 A 
ATOM     15  C   UNL     1      -0.432   2.580  23.983  0.00  0.00    +0.213 C 
ATOM     17  C   UNL     1       0.397   1.359  24.294  0.00  0.00    +0.109 C 
ENDROOT
BRANCH   7  14
ATOM      2  O   UNL     1      -3.248   4.270  26.588  0.00  0.00    -0.249 OA
ATOM     14  C   UNL     1      -2.461   4.468  25.672  0.00  0.00    +0.328 C 
BRANCH  14   1
ATOM      1  O   UNL     1      -1.377   5.295  25.700  0.00  0.00    -0.467 OA
ATOM     20  C   UNL     1      -1.211   6.132  24.551  0.00  0.00    +0.280 C 
ENDBRANCH  14   1
ENDBRANCH   7  14
BRANCH   5  12
ATOM     12  C   UNL     1      -4.376  -0.764  26.165  0.00  0.00    +0.158 C 
BRANCH  12  16
ATOM     16  C   UNL     1      -3.290  -1.518  25.444  0.00  0.00    -0.028 A 
ATOM     18  C   UNL     1      -3.630  -2.396  24.423  0.00  0.00    +0.005 A 
ATOM     19  C   UNL     1      -1.965  -1.327  25.809  0.00  0.00    +0.005 A 
ATOM     21  C   UNL     1      -2.625  -3.095  23.755  0.00  0.00    +0.000 A 
ATOM     22  C   UNL     1      -0.960  -2.025  25.141  0.00  0.00    +0.000 A 
ATOM     23  C   UNL     1      -1.289  -2.910  24.114  0.00  0.00    +0.000 A 
ENDBRANCH  12  16
ENDBRANCH   5  12
TORSDOF 4
ENDMDL
MODEL 7
REMARK VINA RESULT:      -2.7      2.421      5.341
REMARK  Name = 14457639
REMARK  6 active torsions:
REMARK  status: ('A' for Active; 'I' for Inactive)
REMARK    1  A    between atoms: O_1  and  C_14
REMARK    2  A    between atoms: O_1  and  C_20
REMARK    3  A    between atoms: N_5  and  C_12
REMARK    4  A    between atoms: C_7  and  C_14
REMARK    5  A    between atoms: C_12  and  C_16
REMARK    6  A    between atoms: C_15  and  C_17
REMARK                            x       y       z     vdW  Elec       q    Type
REMARK                         _______ _______ _______ _____ _____    ______ ____
ROOT
ATOM      3  O   UNL     1       0.153  -2.190  25.458  0.00  0.00    -0.276 OA
ATOM      4  N   UNL     1      -1.670  -0.862  24.862  0.00  0.00    -0.282 N 
ATOM      5  N   UNL     1      -4.242   1.821  24.378  0.00  0.00    -0.328 N 
ATOM      6  N   UNL     1      -5.446   0.647  25.848  0.00  0.00    -0.240 NA
ATOM      7  C   UNL     1      -2.649  -1.859  25.370  0.00  0.00    +0.191 C 
ATOM      8  C   UNL     1      -3.814  -1.258  26.185  0.00  0.00    +0.091 C 
ATOM      9  C   UNL     1      -3.502   0.719  24.687  0.00  0.00    +0.059 A 
ATOM     10  C   UNL     1      -2.176   0.350  24.158  0.00  0.00    +0.163 C 
ATOM     11  C   UNL     1      -4.263   0.015  25.586  0.00  0.00    +0.066 A 
ATOM     13  C   UNL     1      -5.404   1.733  25.102  0.00  0.00    +0.200 A 
ATOM     15  C   UNL     1      -0.307  -1.197  24.888  0.00  0.00    +0.213 C 
ATOM     17  C   UNL     1       0.630  -0.258  24.168  0.00  0.00    +0.109 C 
ENDROOT
BRANCH   7  14
ATOM      2  O   UNL     1      -2.461  -3.429  23.550  0.00  0.00    -0.249 OA
ATOM     14  C   UNL     1      -3.135  -2.615  24.167  0.00  0.00    +0.328 C 
BRANCH  14   1
ATOM      1  O   UNL     1      -4.419  -2.249  23.886  0.00  0.00    -0.467 OA
ATOM     20  C   UNL     1      -5.191  -3.216  23.167  0.00  0.00    +0.280 C 
ENDBRANCH  14   1
ENDBRANCH   7  14
BRANCH   5  12
ATOM     12  C   UNL     1      -3.890   2.882  23.466  0.00  0.00    +0.158 C 
BRANCH  12  16
ATOM     16  C   UNL     1      -2.713   3.673  23.972  0.00  0.00    -0.028 A 
ATOM     18  C   UNL     1      -2.929   4.764  24.803  0.00  0.00    +0.005 A 
ATOM     19  C   UNL     1      -1.428   3.301  23.601  0.00  0.00    +0.005 A 
ATOM     21  C   UNL     1      -1.838   5.497  25.272  0.00  0.00    +0.000 A 
ATOM     22  C   UNL     1      -0.338   4.033  24.070  0.00  0.00    +0.000 A 
ATOM     23  C   UNL     1      -0.542   5.132  24.906  0.00  0.00    +0.000 A 
ENDBRANCH  12  16
ENDBRANCH   5  12
TORSDOF 4
ENDMDL
MODEL 8
REMARK VINA RESULT:      -2.6      2.490      6.058
REMARK  Name = 14457639
REMARK  6 active torsions:
REMARK  status: ('A' for Active; 'I' for Inactive)
REMARK    1  A    between atoms: O_1  and  C_14
REMARK    2  A    between atoms: O_1  and  C_20
REMARK    3  A    between atoms: N_5  and  C_12
REMARK    4  A    between atoms: C_7  and  C_14
REMARK    5  A    between atoms: C_12  and  C_16
REMARK    6  A    between atoms: C_15  and  C_17
REMARK                            x       y       z     vdW  Elec       q    Type
REMARK                         _______ _______ _______ _____ _____    ______ ____
ROOT
ATOM      3  O   UNL     1      -6.145   0.477  24.407  0.00  0.00    -0.276 OA
ATOM      4  N   UNL     1      -3.845   0.576  24.789  0.00  0.00    -0.282 N 
ATOM      5  N   UNL     1      -0.188   1.384  24.922  0.00  0.00    -0.328 N 
ATOM      6  N   UNL     1       0.024  -0.283  23.449  0.00  0.00    -0.240 NA
ATOM      7  C   UNL     1      -3.632  -0.805  24.279  0.00  0.00    +0.191 C 
ATOM      8  C   UNL     1      -2.411  -0.964  23.349  0.00  0.00    +0.091 C 
ATOM      9  C   UNL     1      -1.438   0.875  24.736  0.00  0.00    +0.059 A 
ATOM     10  C   UNL     1      -2.691   1.313  25.377  0.00  0.00    +0.163 C 
ATOM     11  C   UNL     1      -1.281  -0.146  23.833  0.00  0.00    +0.066 A 
ATOM     13  C   UNL     1       0.659   0.654  24.125  0.00  0.00    +0.200 A 
ATOM     15  C   UNL     1      -5.162   1.055  24.879  0.00  0.00    +0.213 C 
ATOM     17  C   UNL     1      -5.353   2.367  25.600  0.00  0.00    +0.109 C 
ENDROOT
BRANCH   7  14
ATOM      2  O   UNL     1      -3.455  -1.265  26.639  0.00  0.00    -0.249 OA
ATOM     14  C   UNL     1      -3.535  -1.685  25.492  0.00  0.00    +0.328 C 
BRANCH  14   1
ATOM      1  O   UNL     1      -3.551  -2.993  25.108  0.00  0.00    -0.467 OA
ATOM     20  C   UNL     1      -4.260  -3.271  23.896  0.00  0.00    +0.280 C 
ENDBRANCH  14   1
ENDBRANCH   7  14
BRANCH   5  12
ATOM     12  C   UNL     1       0.191   2.475  25.785  0.00  0.00    +0.158 C 
BRANCH  12  16
ATOM     16  C   UNL     1      -0.691   3.676  25.573  0.00  0.00    -0.028 A 
ATOM     18  C   UNL     1      -1.899   3.765  26.252  0.00  0.00    +0.005 A 
ATOM     19  C   UNL     1      -0.287   4.677  24.701  0.00  0.00    +0.005 A 
ATOM     21  C   UNL     1      -2.718   4.878  26.055  0.00  0.00    +0.000 A 
ATOM     22  C   UNL     1      -1.104   5.790  24.505  0.00  0.00    +0.000 A 
ATOM     23  C   UNL     1      -2.320   5.891  25.182  0.00  0.00    +0.000 A 
ENDBRANCH  12  16
ENDBRANCH   5  12
TORSDOF 4
ENDMDL
MODEL 9
REMARK VINA RESULT:      -2.4      2.276      5.128
REMARK  Name = 14457639
REMARK  6 active torsions:
REMARK  status: ('A' for Active; 'I' for Inactive)
REMARK    1  A    between atoms: O_1  and  C_14
REMARK    2  A    between atoms: O_1  and  C_20
REMARK    3  A    between atoms: N_5  and  C_12
REMARK    4  A    between atoms: C_7  and  C_14
REMARK    5  A    between atoms: C_12  and  C_16
REMARK    6  A    between atoms: C_15  and  C_17
REMARK                            x       y       z     vdW  Elec       q    Type
REMARK                         _______ _______ _______ _____ _____    ______ ____
ROOT
ATOM      3  O   UNL     1      -4.363  -1.822  23.532  0.00  0.00    -0.276 OA
ATOM      4  N   UNL     1      -2.668  -0.364  24.197  0.00  0.00    -0.282 N 
ATOM      5  N   UNL     1      -0.249   2.456  24.688  0.00  0.00    -0.328 N 
ATOM      6  N   UNL     1       1.167   1.172  23.531  0.00  0.00    -0.240 NA
ATOM      7  C   UNL     1      -1.606  -1.373  23.938  0.00  0.00    +0.191 C 
ATOM      8  C   UNL     1      -0.359  -0.822  23.214  0.00  0.00    +0.091 C 
ATOM      9  C   UNL     1      -0.914   1.298  24.418  0.00  0.00    +0.059 A 
ATOM     10  C   UNL     1      -2.288   0.939  24.812  0.00  0.00    +0.163 C 
ATOM     11  C   UNL     1      -0.025   0.527  23.712  0.00  0.00    +0.066 A 
ATOM     13  C   UNL     1       1.001   2.333  24.133  0.00  0.00    +0.200 A 
ATOM     15  C   UNL     1      -4.007  -0.753  24.036  0.00  0.00    +0.213 C 
ATOM     17  C   UNL     1      -5.053   0.223  24.514  0.00  0.00    +0.109 C 
ENDROOT
BRANCH   7  14
ATOM      2  O   UNL     1      -0.143  -1.955  25.764  0.00  0.00    -0.249 OA
ATOM     14  C   UNL     1      -1.264  -1.968  25.274  0.00  0.00    +0.328 C 
BRANCH  14   1
ATOM      1  O   UNL     1      -2.385  -2.508  25.833  0.00  0.00    -0.467 OA
ATOM     20  C   UNL     1      -2.940  -1.775  26.930  0.00  0.00    +0.280 C 
ENDBRANCH  14   1
ENDBRANCH   7  14
BRANCH   5  12
ATOM     12  C   UNL     1      -0.743   3.599  25.416  0.00  0.00    +0.158 C 
BRANCH  12  16
ATOM     16  C   UNL     1      -2.241   3.715  25.305  0.00  0.00    -0.028 A 
ATOM     18  C   UNL     1      -3.009   3.765  26.460  0.00  0.00    +0.005 A 
ATOM     19  C   UNL     1      -2.832   3.768  24.051  0.00  0.00    +0.005 A 
ATOM     21  C   UNL     1      -4.397   3.872  26.358  0.00  0.00    +0.000 A 
ATOM     22  C   UNL     1      -4.219   3.876  23.948  0.00  0.00    +0.000 A 
ATOM     23  C   UNL     1      -5.001   3.928  25.102  0.00  0.00    +0.000 A 
ENDBRANCH  12  16
ENDBRANCH   5  12
TORSDOF 4
ENDMDL
