MODEL 1
REMARK VINA RESULT:      -5.9      0.000      0.000
REMARK  Name = 56775296
REMARK  5 active torsions:
REMARK  status: ('A' for Active; 'I' for Inactive)
REMARK    1  A    between atoms: N_4  and  C_11
REMARK    2  A    between atoms: N_6  and  C_17
REMARK    3  A    between atoms: C_11  and  C_15
REMARK    4  A    between atoms: C_11  and  C_16
REMARK    5  A    between atoms: C_17  and  C_18
REMARK                            x       y       z     vdW  Elec       q    Type
REMARK                         _______ _______ _______ _____ _____    ______ ____
ROOT
ATOM      1  O   UNL     1      -2.304   0.608  23.161  0.00  0.00    -0.364 OA
ATOM      2  O   UNL     1      -3.869   3.708  23.939  0.00  0.00    -0.273 OA
ATOM      3  O   UNL     1       2.132  -0.999  22.979  0.00  0.00    -0.253 OA
ATOM      4  N   UNL     1      -2.075   2.676  25.004  0.00  0.00    -0.290 N 
ATOM      5  N   UNL     1       0.600   0.485  23.857  0.00  0.00    -0.281 N 
ATOM      6  N   UNL     1       2.683   1.237  23.098  0.00  0.00    -0.300 N 
ATOM      7  C   UNL     1      -1.146   1.554  25.046  0.00  0.00    +0.124 C 
ATOM      8  C   UNL     1      -1.685   0.280  24.402  0.00  0.00    +0.158 C 
ATOM      9  C   UNL     1       0.141   1.814  24.259  0.00  0.00    +0.134 C 
ATOM     10  C   UNL     1      -0.423  -0.523  24.115  0.00  0.00    +0.142 C 
ATOM     12  C   UNL     1      -3.138   2.730  24.107  0.00  0.00    +0.242 C 
ATOM     13  C   UNL     1      -3.427   1.435  23.366  0.00  0.00    +0.256 C 
ATOM     14  C   UNL     1       1.829   0.157  23.289  0.00  0.00    +0.302 C 
ATOM     19  H   UNL     1       2.377   2.175  23.331  0.00  0.00    +0.150 HD
ENDROOT
BRANCH   4  11
ATOM     11  C   UNL     1      -1.756   3.829  25.835  0.00  0.00    +0.070 C 
ATOM     15  C   UNL     1      -3.000   4.316  26.566  0.00  0.00    +0.028 C 
ATOM     16  C   UNL     1      -1.138   4.940  24.995  0.00  0.00    +0.028 C 
ENDBRANCH   4  11
BRANCH   6  17
ATOM     17  C   UNL     1       3.999   1.090  22.519  0.00  0.00    +0.102 C 
ATOM     18  C   UNL     1       4.985   0.525  23.521  0.00  0.00    +0.024 C 
ENDBRANCH   6  17
TORSDOF 2
ENDMDL
MODEL 2
REMARK VINA RESULT:      -3.8     13.299     17.338
REMARK  Name = 56775296
REMARK  5 active torsions:
REMARK  status: ('A' for Active; 'I' for Inactive)
REMARK    1  A    between atoms: N_4  and  C_11
REMARK    2  A    between atoms: N_6  and  C_17
REMARK    3  A    between atoms: C_11  and  C_15
REMARK    4  A    between atoms: C_11  and  C_16
REMARK    5  A    between atoms: C_17  and  C_18
REMARK                            x       y       z     vdW  Elec       q    Type
REMARK                         _______ _______ _______ _____ _____    ______ ____
ROOT
ATOM      1  O   UNL     1      14.381   7.102  17.691  0.00  0.00    -0.364 OA
ATOM      2  O   UNL     1      17.380   5.452  18.659  0.00  0.00    -0.273 OA
ATOM      3  O   UNL     1      10.732   9.094  19.931  0.00  0.00    -0.253 OA
ATOM      4  N   UNL     1      16.401   7.350  19.583  0.00  0.00    -0.290 N 
ATOM      5  N   UNL     1      12.955   8.480  19.928  0.00  0.00    -0.281 N 
ATOM      6  N   UNL     1      11.595   8.013  21.775  0.00  0.00    -0.300 N 
ATOM      7  C   UNL     1      15.288   8.291  19.575  0.00  0.00    +0.124 C 
ATOM      8  C   UNL     1      14.586   8.407  18.225  0.00  0.00    +0.158 C 
ATOM      9  C   UNL     1      14.152   7.881  20.516  0.00  0.00    +0.134 C 
ATOM     10  C   UNL     1      13.230   8.998  18.592  0.00  0.00    +0.142 C 
ATOM     12  C   UNL     1      16.538   6.350  18.623  0.00  0.00    +0.242 C 
ATOM     13  C   UNL     1      15.612   6.472  17.425  0.00  0.00    +0.256 C 
ATOM     14  C   UNL     1      11.690   8.568  20.504  0.00  0.00    +0.302 C 
ATOM     19  H   UNL     1      12.398   7.556  22.192  0.00  0.00    +0.150 HD
ENDROOT
BRANCH   4  11
ATOM     11  C   UNL     1      17.291   7.389  20.735  0.00  0.00    +0.070 C 
ATOM     15  C   UNL     1      16.809   6.424  21.811  0.00  0.00    +0.028 C 
ATOM     16  C   UNL     1      17.405   8.808  21.276  0.00  0.00    +0.028 C 
ENDBRANCH   4  11
BRANCH   6  17
ATOM     17  C   UNL     1      10.361   8.009  22.528  0.00  0.00    +0.102 C 
ATOM     18  C   UNL     1       9.607   6.707  22.349  0.00  0.00    +0.024 C 
ENDBRANCH   6  17
TORSDOF 2
ENDMDL
MODEL 3
REMARK VINA RESULT:      -3.7      2.653      4.460
REMARK  Name = 56775296
REMARK  5 active torsions:
REMARK  status: ('A' for Active; 'I' for Inactive)
REMARK    1  A    between atoms: N_4  and  C_11
REMARK    2  A    between atoms: N_6  and  C_17
REMARK    3  A    between atoms: C_11  and  C_15
REMARK    4  A    between atoms: C_11  and  C_16
REMARK    5  A    between atoms: C_17  and  C_18
REMARK                            x       y       z     vdW  Elec       q    Type
REMARK                         _______ _______ _______ _____ _____    ______ ____
ROOT
ATOM      1  O   UNL     1      -0.103   2.149  25.544  0.00  0.00    -0.364 OA
ATOM      2  O   UNL     1      -2.128   5.006  26.174  0.00  0.00    -0.273 OA
ATOM      3  O   UNL     1      -0.869  -2.340  24.295  0.00  0.00    -0.253 OA
ATOM      4  N   UNL     1      -2.345   3.412  24.493  0.00  0.00    -0.290 N 
ATOM      5  N   UNL     1      -1.559  -0.139  24.287  0.00  0.00    -0.281 N 
ATOM      6  N   UNL     1      -3.059  -1.853  24.825  0.00  0.00    -0.300 N 
ATOM      7  C   UNL     1      -1.855   2.177  23.894  0.00  0.00    +0.124 C 
ATOM      8  C   UNL     1      -0.379   1.900  24.168  0.00  0.00    +0.158 C 
ATOM      9  C   UNL     1      -2.544   0.928  24.451  0.00  0.00    +0.134 C 
ATOM     10  C   UNL     1      -0.256   0.403  23.914  0.00  0.00    +0.142 C 
ATOM     12  C   UNL     1      -1.689   4.040  25.548  0.00  0.00    +0.242 C 
ATOM     13  C   UNL     1      -0.298   3.509  25.854  0.00  0.00    +0.256 C 
ATOM     14  C   UNL     1      -1.765  -1.506  24.456  0.00  0.00    +0.302 C 
ATOM     19  H   UNL     1      -3.753  -1.132  24.985  0.00  0.00    +0.150 HD
ENDROOT
BRANCH   4  11
ATOM     11  C   UNL     1      -3.648   3.889  24.050  0.00  0.00    +0.070 C 
ATOM     15  C   UNL     1      -4.726   3.487  25.048  0.00  0.00    +0.028 C 
ATOM     16  C   UNL     1      -3.963   3.366  22.655  0.00  0.00    +0.028 C 
ENDBRANCH   4  11
BRANCH   6  17
ATOM     17  C   UNL     1      -3.460  -3.224  25.048  0.00  0.00    +0.102 C 
ATOM     18  C   UNL     1      -4.204  -3.786  23.854  0.00  0.00    +0.024 C 
ENDBRANCH   6  17
TORSDOF 2
ENDMDL
MODEL 4
REMARK VINA RESULT:      -3.4      2.097      6.272
REMARK  Name = 56775296
REMARK  5 active torsions:
REMARK  status: ('A' for Active; 'I' for Inactive)
REMARK    1  A    between atoms: N_4  and  C_11
REMARK    2  A    between atoms: N_6  and  C_17
REMARK    3  A    between atoms: C_11  and  C_15
REMARK    4  A    between atoms: C_11  and  C_16
REMARK    5  A    between atoms: C_17  and  C_18
REMARK                            x       y       z     vdW  Elec       q    Type
REMARK                         _______ _______ _______ _____ _____    ______ ____
ROOT
ATOM      1  O   UNL     1       0.514   2.434  24.083  0.00  0.00    -0.364 OA
ATOM      2  O   UNL     1       1.084  -0.602  22.318  0.00  0.00    -0.273 OA
ATOM      3  O   UNL     1      -3.126   4.401  26.359  0.00  0.00    -0.253 OA
ATOM      4  N   UNL     1      -0.085  -0.271  24.303  0.00  0.00    -0.290 N 
ATOM      5  N   UNL     1      -2.044   2.500  25.628  0.00  0.00    -0.281 N 
ATOM      6  N   UNL     1      -4.350   2.751  25.313  0.00  0.00    -0.300 N 
ATOM      7  C   UNL     1      -0.578   0.670  25.301  0.00  0.00    +0.124 C 
ATOM      8  C   UNL     1       0.239   1.956  25.397  0.00  0.00    +0.158 C 
ATOM      9  C   UNL     1      -1.986   1.185  24.993  0.00  0.00    +0.134 C 
ATOM     10  C   UNL     1      -0.721   2.925  26.074  0.00  0.00    +0.142 C 
ATOM     12  C   UNL     1       0.748   0.120  23.258  0.00  0.00    +0.242 C 
ATOM     13  C   UNL     1       1.323   1.522  23.378  0.00  0.00    +0.256 C 
ATOM     14  C   UNL     1      -3.172   3.298  25.808  0.00  0.00    +0.302 C 
ATOM     19  H   UNL     1      -4.334   1.859  24.833  0.00  0.00    +0.150 HD
ENDROOT
BRANCH   4  11
ATOM     11  C   UNL     1      -0.628  -1.622  24.344  0.00  0.00    +0.070 C 
ATOM     15  C   UNL     1      -2.139  -1.580  24.525  0.00  0.00    +0.028 C 
ATOM     16  C   UNL     1       0.040  -2.434  25.446  0.00  0.00    +0.028 C 
ENDBRANCH   4  11
BRANCH   6  17
ATOM     17  C   UNL     1      -5.620   3.435  25.407  0.00  0.00    +0.102 C 
ATOM     18  C   UNL     1      -6.725   2.494  25.841  0.00  0.00    +0.024 C 
ENDBRANCH   6  17
TORSDOF 2
ENDMDL
MODEL 5
REMARK VINA RESULT:      -3.2      3.262      4.515
REMARK  Name = 56775296
REMARK  5 active torsions:
REMARK  status: ('A' for Active; 'I' for Inactive)
REMARK    1  A    between atoms: N_4  and  C_11
REMARK    2  A    between atoms: N_6  and  C_17
REMARK    3  A    between atoms: C_11  and  C_15
REMARK    4  A    between atoms: C_11  and  C_16
REMARK    5  A    between atoms: C_17  and  C_18
REMARK                            x       y       z     vdW  Elec       q    Type
REMARK                         _______ _______ _______ _____ _____    ______ ____
ROOT
ATOM      1  O   UNL     1      -3.604   3.331  24.430  0.00  0.00    -0.364 OA
ATOM      2  O   UNL     1      -6.284   1.100  25.135  0.00  0.00    -0.273 OA
ATOM      3  O   UNL     1       0.920   3.714  25.731  0.00  0.00    -0.253 OA
ATOM      4  N   UNL     1      -4.046   0.604  24.739  0.00  0.00    -0.290 N 
ATOM      5  N   UNL     1      -0.931   2.384  25.378  0.00  0.00    -0.281 N 
ATOM      6  N   UNL     1       0.329   2.170  27.338  0.00  0.00    -0.300 N 
ATOM      7  C   UNL     1      -2.702   1.100  24.470  0.00  0.00    +0.124 C 
ATOM      8  C   UNL     1      -2.672   2.465  23.788  0.00  0.00    +0.158 C 
ATOM      9  C   UNL     1      -1.886   1.339  25.743  0.00  0.00    +0.134 C 
ATOM     10  C   UNL     1      -1.263   2.967  24.081  0.00  0.00    +0.142 C 
ATOM     12  C   UNL     1      -5.155   1.444  24.783  0.00  0.00    +0.242 C 
ATOM     13  C   UNL     1      -4.920   2.855  24.270  0.00  0.00    +0.256 C 
ATOM     14  C   UNL     1       0.163   2.820  26.121  0.00  0.00    +0.302 C 
ATOM     19  H   UNL     1      -0.340   1.469  27.636  0.00  0.00    +0.150 HD
ENDROOT
BRANCH   4  11
ATOM     11  C   UNL     1      -4.168  -0.795  25.124  0.00  0.00    +0.070 C 
ATOM     15  C   UNL     1      -3.029  -1.191  26.055  0.00  0.00    +0.028 C 
ATOM     16  C   UNL     1      -4.210  -1.688  23.891  0.00  0.00    +0.028 C 
ENDBRANCH   4  11
BRANCH   6  17
ATOM     17  C   UNL     1       1.407   2.490  28.246  0.00  0.00    +0.102 C 
ATOM     18  C   UNL     1       0.953   2.429  29.690  0.00  0.00    +0.024 C 
ENDBRANCH   6  17
TORSDOF 2
ENDMDL
MODEL 6
REMARK VINA RESULT:      -3.2     17.088     19.467
REMARK  Name = 56775296
REMARK  5 active torsions:
REMARK  status: ('A' for Active; 'I' for Inactive)
REMARK    1  A    between atoms: N_4  and  C_11
REMARK    2  A    between atoms: N_6  and  C_17
REMARK    3  A    between atoms: C_11  and  C_15
REMARK    4  A    between atoms: C_11  and  C_16
REMARK    5  A    between atoms: C_17  and  C_18
REMARK                            x       y       z     vdW  Elec       q    Type
REMARK                         _______ _______ _______ _____ _____    ______ ____
ROOT
ATOM      1  O   UNL     1      16.871  -4.746  27.311  0.00  0.00    -0.364 OA
ATOM      2  O   UNL     1      17.073  -6.448  24.193  0.00  0.00    -0.273 OA
ATOM      3  O   UNL     1      14.419  -5.280  31.312  0.00  0.00    -0.253 OA
ATOM      4  N   UNL     1      16.919  -7.347  26.334  0.00  0.00    -0.290 N 
ATOM      5  N   UNL     1      15.350  -6.219  29.422  0.00  0.00    -0.281 N 
ATOM      6  N   UNL     1      13.156  -6.739  30.051  0.00  0.00    -0.300 N 
ATOM      7  C   UNL     1      16.790  -7.107  27.766  0.00  0.00    +0.124 C 
ATOM      8  C   UNL     1      17.322  -5.750  28.216  0.00  0.00    +0.158 C 
ATOM      9  C   UNL     1      15.333  -7.075  28.237  0.00  0.00    +0.134 C 
ATOM     10  C   UNL     1      16.634  -5.537  29.558  0.00  0.00    +0.142 C 
ATOM     12  C   UNL     1      17.092  -6.313  25.418  0.00  0.00    +0.242 C 
ATOM     13  C   UNL     1      17.405  -4.956  26.025  0.00  0.00    +0.256 C 
ATOM     14  C   UNL     1      14.315  -6.026  30.334  0.00  0.00    +0.302 C 
ATOM     19  H   UNL     1      13.102  -7.310  29.215  0.00  0.00    +0.150 HD
ENDROOT
BRANCH   4  11
ATOM     11  C   UNL     1      16.699  -8.711  25.870  0.00  0.00    +0.070 C 
ATOM     15  C   UNL     1      15.211  -8.972  25.678  0.00  0.00    +0.028 C 
ATOM     16  C   UNL     1      17.316  -9.711  26.839  0.00  0.00    +0.028 C 
ENDBRANCH   4  11
BRANCH   6  17
ATOM     17  C   UNL     1      11.978  -6.663  30.884  0.00  0.00    +0.102 C 
ATOM     18  C   UNL     1      11.773  -7.941  31.672  0.00  0.00    +0.024 C 
ENDBRANCH   6  17
TORSDOF 2
ENDMDL
MODEL 7
REMARK VINA RESULT:      -3.1     17.049     19.637
REMARK  Name = 56775296
REMARK  5 active torsions:
REMARK  status: ('A' for Active; 'I' for Inactive)
REMARK    1  A    between atoms: N_4  and  C_11
REMARK    2  A    between atoms: N_6  and  C_17
REMARK    3  A    between atoms: C_11  and  C_15
REMARK    4  A    between atoms: C_11  and  C_16
REMARK    5  A    between atoms: C_17  and  C_18
REMARK                            x       y       z     vdW  Elec       q    Type
REMARK                         _______ _______ _______ _____ _____    ______ ____
ROOT
ATOM      1  O   UNL     1      15.962  -6.677  26.766  0.00  0.00    -0.364 OA
ATOM      2  O   UNL     1      15.005  -9.992  25.900  0.00  0.00    -0.273 OA
ATOM      3  O   UNL     1      15.587  -3.929  30.589  0.00  0.00    -0.253 OA
ATOM      4  N   UNL     1      15.914  -9.216  27.896  0.00  0.00    -0.290 N 
ATOM      5  N   UNL     1      15.715  -6.044  29.677  0.00  0.00    -0.281 N 
ATOM      6  N   UNL     1      14.100  -5.543  31.296  0.00  0.00    -0.300 N 
ATOM      7  C   UNL     1      16.391  -8.079  28.674  0.00  0.00    +0.124 C 
ATOM      8  C   UNL     1      16.887  -6.912  27.824  0.00  0.00    +0.158 C 
ATOM      9  C   UNL     1      15.294  -7.436  29.526  0.00  0.00    +0.134 C 
ATOM     10  C   UNL     1      16.830  -5.734  28.789  0.00  0.00    +0.142 C 
ATOM     12  C   UNL     1      15.537  -9.099  26.561  0.00  0.00    +0.242 C 
ATOM     13  C   UNL     1      15.906  -7.783  25.896  0.00  0.00    +0.256 C 
ATOM     14  C   UNL     1      15.164  -5.087  30.527  0.00  0.00    +0.302 C 
ATOM     19  H   UNL     1      13.761  -6.491  31.184  0.00  0.00    +0.150 HD
ENDROOT
BRANCH   4  11
ATOM     11  C   UNL     1      15.692 -10.462  28.616  0.00  0.00    +0.070 C 
ATOM     15  C   UNL     1      14.290 -10.487  29.212  0.00  0.00    +0.028 C 
ATOM     16  C   UNL     1      16.753 -10.656  29.691  0.00  0.00    +0.028 C 
ENDBRANCH   4  11
BRANCH   6  17
ATOM     17  C   UNL     1      13.402  -4.692  32.233  0.00  0.00    +0.102 C 
ATOM     18  C   UNL     1      11.904  -4.914  32.173  0.00  0.00    +0.024 C 
ENDBRANCH   6  17
TORSDOF 2
ENDMDL
MODEL 8
REMARK VINA RESULT:      -3.0      1.874      2.414
REMARK  Name = 56775296
REMARK  5 active torsions:
REMARK  status: ('A' for Active; 'I' for Inactive)
REMARK    1  A    between atoms: N_4  and  C_11
REMARK    2  A    between atoms: N_6  and  C_17
REMARK    3  A    between atoms: C_11  and  C_15
REMARK    4  A    between atoms: C_11  and  C_16
REMARK    5  A    between atoms: C_17  and  C_18
REMARK                            x       y       z     vdW  Elec       q    Type
REMARK                         _______ _______ _______ _____ _____    ______ ____
ROOT
ATOM      1  O   UNL     1      -4.046  -0.586  24.762  0.00  0.00    -0.364 OA
ATOM      2  O   UNL     1      -6.073   2.293  24.254  0.00  0.00    -0.273 OA
ATOM      3  O   UNL     1       0.558  -1.590  24.450  0.00  0.00    -0.253 OA
ATOM      4  N   UNL     1      -3.989   2.144  25.280  0.00  0.00    -0.290 N 
ATOM      5  N   UNL     1      -1.108  -0.035  24.801  0.00  0.00    -0.281 N 
ATOM      6  N   UNL     1       0.671   0.435  23.353  0.00  0.00    -0.300 N 
ATOM      7  C   UNL     1      -2.861   1.304  25.663  0.00  0.00    +0.124 C 
ATOM      8  C   UNL     1      -3.219  -0.168  25.845  0.00  0.00    +0.158 C 
ATOM      9  C   UNL     1      -1.762   1.257  24.597  0.00  0.00    +0.134 C 
ATOM     10  C   UNL     1      -1.872  -0.869  25.723  0.00  0.00    +0.142 C 
ATOM     12  C   UNL     1      -5.149   1.621  24.715  0.00  0.00    +0.242 C 
ATOM     13  C   UNL     1      -5.272   0.107  24.773  0.00  0.00    +0.256 C 
ATOM     14  C   UNL     1       0.077  -0.477  24.218  0.00  0.00    +0.302 C 
ATOM     19  H   UNL     1       0.220   1.322  23.162  0.00  0.00    +0.150 HD
ENDROOT
BRANCH   4  11
ATOM     11  C   UNL     1      -3.797   3.586  25.361  0.00  0.00    +0.070 C 
ATOM     15  C   UNL     1      -3.523   4.163  23.978  0.00  0.00    +0.028 C 
ATOM     16  C   UNL     1      -2.674   3.922  26.333  0.00  0.00    +0.028 C 
ENDBRANCH   4  11
BRANCH   6  17
ATOM     17  C   UNL     1       1.904   0.150  22.655  0.00  0.00    +0.102 C 
ATOM     18  C   UNL     1       1.643  -0.524  21.324  0.00  0.00    +0.024 C 
ENDBRANCH   6  17
TORSDOF 2
ENDMDL
MODEL 9
REMARK VINA RESULT:      -2.7      2.563      6.102
REMARK  Name = 56775296
REMARK  5 active torsions:
REMARK  status: ('A' for Active; 'I' for Inactive)
REMARK    1  A    between atoms: N_4  and  C_11
REMARK    2  A    between atoms: N_6  and  C_17
REMARK    3  A    between atoms: C_11  and  C_15
REMARK    4  A    between atoms: C_11  and  C_16
REMARK    5  A    between atoms: C_17  and  C_18
REMARK                            x       y       z     vdW  Elec       q    Type
REMARK                         _______ _______ _______ _____ _____    ______ ____
ROOT
ATOM      1  O   UNL     1       0.097   0.965  24.042  0.00  0.00    -0.364 OA
ATOM      2  O   UNL     1      -0.851  -2.344  23.139  0.00  0.00    -0.273 OA
ATOM      3  O   UNL     1      -2.147   4.854  25.506  0.00  0.00    -0.253 OA
ATOM      4  N   UNL     1      -1.635  -1.035  24.896  0.00  0.00    -0.290 N 
ATOM      5  N   UNL     1      -2.072   2.554  25.349  0.00  0.00    -0.281 N 
ATOM      6  N   UNL     1      -4.036   3.717  24.831  0.00  0.00    -0.300 N 
ATOM      7  C   UNL     1      -1.599   0.246  25.590  0.00  0.00    +0.124 C 
ATOM      8  C   UNL     1      -0.290   1.010  25.413  0.00  0.00    +0.158 C 
ATOM      9  C   UNL     1      -2.644   1.237  25.070  0.00  0.00    +0.134 C 
ATOM     10  C   UNL     1      -0.676   2.442  25.760  0.00  0.00    +0.142 C 
ATOM     12  C   UNL     1      -0.775  -1.335  23.843  0.00  0.00    +0.242 C 
ATOM     13  C   UNL     1       0.371  -0.358  23.644  0.00  0.00    +0.256 C 
ATOM     14  C   UNL     1      -2.712   3.787  25.248  0.00  0.00    +0.302 C 
ATOM     19  H   UNL     1      -4.448   2.822  24.592  0.00  0.00    +0.150 HD
ENDROOT
BRANCH   4  11
ATOM     11  C   UNL     1      -2.721  -1.942  25.240  0.00  0.00    +0.070 C 
ATOM     15  C   UNL     1      -3.793  -1.920  24.157  0.00  0.00    +0.028 C 
ATOM     16  C   UNL     1      -3.303  -1.588  26.602  0.00  0.00    +0.028 C 
ENDBRANCH   4  11
BRANCH   6  17
ATOM     17  C   UNL     1      -4.859   4.893  24.666  0.00  0.00    +0.102 C 
ATOM     18  C   UNL     1      -6.106   4.822  25.523  0.00  0.00    +0.024 C 
ENDBRANCH   6  17
TORSDOF 2
ENDMDL
MODEL 10
REMARK VINA RESULT:      -2.6      2.690      3.797
REMARK  Name = 56775296
REMARK  5 active torsions:
REMARK  status: ('A' for Active; 'I' for Inactive)
REMARK    1  A    between atoms: N_4  and  C_11
REMARK    2  A    between atoms: N_6  and  C_17
REMARK    3  A    between atoms: C_11  and  C_15
REMARK    4  A    between atoms: C_11  and  C_16
REMARK    5  A    between atoms: C_17  and  C_18
REMARK                            x       y       z     vdW  Elec       q    Type
REMARK                         _______ _______ _______ _____ _____    ______ ____
ROOT
ATOM      1  O   UNL     1      -1.017   3.560  24.846  0.00  0.00    -0.364 OA
ATOM      2  O   UNL     1      -3.500   4.955  26.978  0.00  0.00    -0.273 OA
ATOM      3  O   UNL     1       0.033  -0.752  23.232  0.00  0.00    -0.253 OA
ATOM      4  N   UNL     1      -3.743   3.327  25.334  0.00  0.00    -0.290 N 
ATOM      5  N   UNL     1      -1.542   0.734  24.027  0.00  0.00    -0.281 N 
ATOM      6  N   UNL     1      -1.437  -1.450  24.866  0.00  0.00    -0.300 N 
ATOM      7  C   UNL     1      -3.106   2.486  24.328  0.00  0.00    +0.124 C 
ATOM      8  C   UNL     1      -1.808   3.063  23.770  0.00  0.00    +0.158 C 
ATOM      9  C   UNL     1      -2.665   1.126  24.877  0.00  0.00    +0.134 C 
ATOM     10  C   UNL     1      -1.112   1.842  23.181  0.00  0.00    +0.142 C 
ATOM     12  C   UNL     1      -3.047   4.311  26.030  0.00  0.00    +0.242 C 
ATOM     13  C   UNL     1      -1.665   4.633  25.489  0.00  0.00    +0.256 C 
ATOM     14  C   UNL     1      -0.914  -0.509  23.986  0.00  0.00    +0.302 C 
ATOM     19  H   UNL     1      -2.190  -1.194  25.495  0.00  0.00    +0.150 HD
ENDROOT
BRANCH   4  11
ATOM     11  C   UNL     1      -5.111   2.991  25.705  0.00  0.00    +0.070 C 
ATOM     15  C   UNL     1      -5.608   1.808  24.885  0.00  0.00    +0.028 C 
ATOM     16  C   UNL     1      -6.022   4.201  25.539  0.00  0.00    +0.028 C 
ENDBRANCH   4  11
BRANCH   6  17
ATOM     17  C   UNL     1      -0.912  -2.792  24.965  0.00  0.00    +0.102 C 
ATOM     18  C   UNL     1       0.445  -2.808  25.638  0.00  0.00    +0.024 C 
ENDBRANCH   6  17
TORSDOF 2
ENDMDL
