MODEL 1
REMARK VINA RESULT:       9.3      0.000      0.000
REMARK  Name = 11883105
REMARK  8 active torsions:
REMARK  status: ('A' for Active; 'I' for Inactive)
REMARK    1  A    between atoms: O_3  and  C_16
REMARK    2  A    between atoms: O_4  and  C_21
REMARK    3  A    between atoms: C_11  and  C_19
REMARK    4  A    between atoms: C_13  and  C_21
REMARK    5  A    between atoms: C_13  and  C_22
REMARK    6  A    between atoms: C_14  and  C_24
REMARK    7  A    between atoms: C_24  and  C_25
REMARK    8  A    between atoms: C_27  and  C_28
REMARK                            x       y       z     vdW  Elec       q    Type
REMARK                         _______ _______ _______ _____ _____    ______ ____
ROOT
ATOM      1  S   UNL     1       0.617   2.157  25.547  0.00  0.00    -0.057 S 
ATOM      6  O   UNL     1       1.908   0.104  21.583  0.00  0.00    -0.275 OA
ATOM      7  N   UNL     1      -0.194   1.365  23.221  0.00  0.00    -0.229 NA
ATOM      8  N   UNL     1       2.125   0.983  23.752  0.00  0.00    -0.264 N 
ATOM     11  C   UNL     1      -3.774   2.320  24.289  0.00  0.00    -0.019 C 
ATOM     12  C   UNL     1      -3.264   3.497  25.231  0.00  0.00    +0.011 C 
ATOM     13  C   UNL     1      -4.351   4.244  26.096  0.00  0.00    +0.021 C 
ATOM     14  C   UNL     1      -2.631   2.017  23.215  0.00  0.00    +0.054 C 
ATOM     15  C   UNL     1      -5.048   2.780  23.532  0.00  0.00    +0.010 C 
ATOM     16  C   UNL     1      -5.572   4.591  25.197  0.00  0.00    +0.123 C 
ATOM     17  C   UNL     1      -2.003   3.074  26.038  0.00  0.00    +0.049 C 
ATOM     18  C   UNL     1      -6.114   3.389  24.431  0.00  0.00    +0.032 C 
ATOM     19  C   UNL     1      -4.102   1.023  25.071  0.00  0.00    +0.012 C 
ATOM     20  C   UNL     1      -1.280   1.922  23.873  0.00  0.00    +0.058 A 
ATOM     22  C   UNL     1      -3.757   5.588  26.607  0.00  0.00    +0.016 C 
ATOM     23  C   UNL     1      -1.015   2.418  25.133  0.00  0.00    +0.015 A 
ATOM     26  C   UNL     1       0.856   1.428  24.010  0.00  0.00    +0.165 A 
ATOM     28  C   UNL     1       2.587   0.355  22.582  0.00  0.00    +0.222 C 
ATOM     37  H   UNL     1       2.794   1.131  24.504  0.00  0.00    +0.157 HD
ENDROOT
BRANCH  28  27
ATOM     27  C   UNL     1       4.083  -0.018  22.642  0.00  0.00    +0.075 C 
ATOM     29  C   UNL     1       5.013   0.906  23.457  0.00  0.00    +0.013 C 
ATOM     30  C   UNL     1       4.493  -1.153  23.603  0.00  0.00    +0.013 C 
ATOM     31  C   UNL     1       5.795  -0.364  23.858  0.00  0.00    +0.001 C 
ENDBRANCH  28  27
BRANCH  16   3
ATOM      3  O   UNL     1      -6.627   5.151  25.977  0.00  0.00    -0.391 OA
ATOM     35  H   UNL     1      -6.228   5.763  26.619  0.00  0.00    +0.210 HD
ENDBRANCH  16   3
BRANCH  13  21
ATOM     21  C   UNL     1      -4.798   3.481  27.362  0.00  0.00    +0.165 C 
BRANCH  21   4
ATOM      4  O   UNL     1      -5.929   2.711  27.026  0.00  0.00    -0.394 OA
ATOM     36  H   UNL     1      -6.593   2.850  27.722  0.00  0.00    +0.209 HD
ENDBRANCH  21   4
ENDBRANCH  13  21
BRANCH  14  24
ATOM     24  C   UNL     1      -2.905   0.803  22.315  0.00  0.00    +0.106 C 
BRANCH  24  25
ATOM      2  S   UNL     1       0.222  -1.867  25.078  0.00  0.00    -0.061 S 
ATOM      5  O   UNL     1      -3.971  -1.178  23.168  0.00  0.00    -0.275 OA
ATOM      9  N   UNL     1      -1.720  -0.733  23.689  0.00  0.00    -0.265 N 
ATOM     10  N   UNL     1      -2.163  -2.834  24.837  0.00  0.00    -0.233 NA
ATOM     25  C   UNL     1      -2.958  -0.491  23.101  0.00  0.00    +0.219 C 
ATOM     32  C   UNL     1      -1.389  -1.830  24.488  0.00  0.00    +0.164 A 
ATOM     33  C   UNL     1      -0.129  -3.346  25.873  0.00  0.00    +0.068 A 
ATOM     34  C   UNL     1      -1.438  -3.702  25.630  0.00  0.00    +0.120 A 
ATOM     38  H   UNL     1      -0.962  -0.069  23.554  0.00  0.00    +0.157 HD
ENDBRANCH  24  25
ENDBRANCH  14  24
TORSDOF 6
ENDMDL
MODEL 2
REMARK VINA RESULT:      11.2      2.633      4.231
REMARK  Name = 11883105
REMARK  8 active torsions:
REMARK  status: ('A' for Active; 'I' for Inactive)
REMARK    1  A    between atoms: O_3  and  C_16
REMARK    2  A    between atoms: O_4  and  C_21
REMARK    3  A    between atoms: C_11  and  C_19
REMARK    4  A    between atoms: C_13  and  C_21
REMARK    5  A    between atoms: C_13  and  C_22
REMARK    6  A    between atoms: C_14  and  C_24
REMARK    7  A    between atoms: C_24  and  C_25
REMARK    8  A    between atoms: C_27  and  C_28
REMARK                            x       y       z     vdW  Elec       q    Type
REMARK                         _______ _______ _______ _____ _____    ______ ____
ROOT
ATOM      1  S   UNL     1      -0.808  -0.796  23.223  0.00  0.00    -0.057 S 
ATOM      6  O   UNL     1       3.194   1.457  23.928  0.00  0.00    -0.275 OA
ATOM      7  N   UNL     1       0.259   1.353  24.190  0.00  0.00    -0.229 NA
ATOM      8  N   UNL     1       1.758  -0.262  23.214  0.00  0.00    -0.264 N 
ATOM     11  C   UNL     1      -3.305   2.693  24.798  0.00  0.00    -0.019 C 
ATOM     12  C   UNL     1      -3.898   1.235  25.034  0.00  0.00    +0.011 C 
ATOM     13  C   UNL     1      -5.459   1.120  25.232  0.00  0.00    +0.021 C 
ATOM     14  C   UNL     1      -1.731   2.634  25.063  0.00  0.00    +0.054 C 
ATOM     15  C   UNL     1      -3.937   3.679  25.816  0.00  0.00    +0.010 C 
ATOM     16  C   UNL     1      -5.929   2.203  26.243  0.00  0.00    +0.123 C 
ATOM     17  C   UNL     1      -3.318   0.212  24.015  0.00  0.00    +0.049 C 
ATOM     18  C   UNL     1      -5.455   3.607  25.882  0.00  0.00    +0.032 C 
ATOM     19  C   UNL     1      -3.566   3.223  23.365  0.00  0.00    +0.012 C 
ATOM     20  C   UNL     1      -1.108   1.448  24.374  0.00  0.00    +0.058 A 
ATOM     22  C   UNL     1      -5.791  -0.267  25.852  0.00  0.00    +0.016 C 
ATOM     23  C   UNL     1      -1.837   0.364  23.928  0.00  0.00    +0.015 A 
ATOM     26  C   UNL     1       0.530   0.216  23.587  0.00  0.00    +0.165 A 
ATOM     28  C   UNL     1       3.006   0.361  23.394  0.00  0.00    +0.222 C 
ATOM     37  H   UNL     1       1.746  -1.170  22.757  0.00  0.00    +0.157 HD
ENDROOT
BRANCH  28  27
ATOM     27  C   UNL     1       4.185  -0.469  22.844  0.00  0.00    +0.075 C 
ATOM     29  C   UNL     1       5.603   0.121  23.003  0.00  0.00    +0.013 C 
ATOM     30  C   UNL     1       4.669  -1.663  23.690  0.00  0.00    +0.013 C 
ATOM     31  C   UNL     1       6.097  -1.327  23.212  0.00  0.00    +0.001 C 
ENDBRANCH  28  27
BRANCH  16   3
ATOM      3  O   UNL     1      -7.352   2.212  26.345  0.00  0.00    -0.391 OA
ATOM     35  H   UNL     1      -7.708   1.774  25.553  0.00  0.00    +0.210 HD
ENDBRANCH  16   3
BRANCH  13  21
ATOM     21  C   UNL     1      -6.277   1.195  23.923  0.00  0.00    +0.165 C 
BRANCH  21   4
ATOM      4  O   UNL     1      -7.589   1.589  24.256  0.00  0.00    -0.394 OA
ATOM     36  H   UNL     1      -8.181   1.230  23.575  0.00  0.00    +0.209 HD
ENDBRANCH  21   4
ENDBRANCH  13  21
BRANCH  14  24
ATOM     24  C   UNL     1      -0.979   3.932  24.736  0.00  0.00    +0.106 C 
BRANCH  24  25
ATOM      2  S   UNL     1       0.898   1.789  28.788  0.00  0.00    -0.061 S 
ATOM      5  O   UNL     1       1.015   5.059  25.472  0.00  0.00    -0.275 OA
ATOM      9  N   UNL     1       0.211   3.191  26.656  0.00  0.00    -0.265 N 
ATOM     10  N   UNL     1       2.204   3.834  27.898  0.00  0.00    -0.233 NA
ATOM     25  C   UNL     1       0.210   4.151  25.649  0.00  0.00    +0.219 C 
ATOM     32  C   UNL     1       1.152   3.076  27.681  0.00  0.00    +0.164 A 
ATOM     33  C   UNL     1       2.308   2.273  29.636  0.00  0.00    +0.068 A 
ATOM     34  C   UNL     1       2.865   3.372  29.019  0.00  0.00    +0.120 A 
ATOM     38  H   UNL     1      -0.521   2.486  26.677  0.00  0.00    +0.157 HD
ENDBRANCH  24  25
ENDBRANCH  14  24
TORSDOF 6
ENDMDL
