MODEL 1
REMARK VINA RESULT:       2.8      0.000      0.000
REMARK  Name = 11912000
REMARK  9 active torsions:
REMARK  status: ('A' for Active; 'I' for Inactive)
REMARK    1  A    between atoms: S_1  and  N_9
REMARK    2  A    between atoms: S_1  and  C_20
REMARK    3  A    between atoms: O_6  and  C_21
REMARK    4  A    between atoms: O_6  and  C_30
REMARK    5  A    between atoms: O_7  and  C_24
REMARK    6  A    between atoms: O_7  and  C_32
REMARK    7  A    between atoms: N_9  and  C_15
REMARK    8  A    between atoms: N_10  and  C_16
REMARK    9  A    between atoms: C_23  and  C_29
REMARK                            x       y       z     vdW  Elec       q    Type
REMARK                         _______ _______ _______ _____ _____    ______ ____
ROOT
ATOM      2  O   UNL     1      -0.903   2.574  26.932  0.00  0.00    -0.370 OA
ATOM      3  O   UNL     1      -1.283   4.247  24.320  0.00  0.00    -0.370 OA
ATOM     13  C   UNL     1      -2.150   3.382  25.073  0.00  0.00    +0.170 C 
ATOM     14  C   UNL     1      -1.303   2.236  25.594  0.00  0.00    +0.171 C 
ATOM     15  C   UNL     1      -2.629   4.083  26.322  0.00  0.00    +0.133 C 
ATOM     16  C   UNL     1      -0.103   2.217  24.677  0.00  0.00    +0.130 C 
ATOM     17  C   UNL     1      -1.506   3.821  27.306  0.00  0.00    +0.183 C 
ATOM     18  C   UNL     1       0.032   3.675  24.276  0.00  0.00    +0.185 C 
ENDROOT
BRANCH  16  10
ATOM     10  N   UNL     1      -0.381   1.402  23.514  0.00  0.00    -0.306 N 
ATOM     11  N   UNL     1       1.839   0.656  23.370  0.00  0.00    -0.211 NA
ATOM     12  N   UNL     1       0.179  -0.087  21.789  0.00  0.00    -0.223 NA
ATOM     19  C   UNL     1       0.574   0.635  22.873  0.00  0.00    +0.216 A 
ATOM     23  C   UNL     1       2.744  -0.104  22.720  0.00  0.00    +0.111 A 
ATOM     26  C   UNL     1       1.135  -0.825  21.189  0.00  0.00    +0.116 A 
ATOM     27  C   UNL     1       2.447  -0.873  21.613  0.00  0.00    +0.051 A 
ATOM     36  H   UNL     1      -1.331   1.336  23.167  0.00  0.00    +0.149 HD
BRANCH  23  29
ATOM      8  O   UNL     1       4.487  -1.203  23.876  0.00  0.00    -0.461 OA
ATOM     29  C   UNL     1       4.073  -0.061  23.269  0.00  0.00    +0.153 A 
ATOM     31  C   UNL     1       5.052   0.902  23.325  0.00  0.00    +0.051 A 
ATOM     33  C   UNL     1       6.141   0.314  24.010  0.00  0.00    +0.042 A 
ATOM     34  C   UNL     1       5.748  -0.966  24.325  0.00  0.00    +0.196 A 
ENDBRANCH  23  29
ENDBRANCH  16  10
BRANCH  15   9
ATOM      9  N   UNL     1      -3.875   3.440  26.807  0.00  0.00    -0.182 NA
ATOM     35  H   UNL     1      -3.817   2.939  27.701  0.00  0.00    +0.148 HD
BRANCH   9   1
ATOM      1  S   UNL     1      -5.104   3.041  25.705  0.00  0.00    +0.062 S 
ATOM      4  O   UNL     1      -5.206   4.080  24.697  0.00  0.00    -0.153 OA
ATOM      5  O   UNL     1      -6.279   2.625  26.446  0.00  0.00    -0.153 OA
BRANCH   1  20
ATOM     20  C   UNL     1      -4.443   1.594  24.931  0.00  0.00    +0.150 A 
ATOM     21  C   UNL     1      -3.979   1.653  23.626  0.00  0.00    +0.147 A 
ATOM     22  C   UNL     1      -4.405   0.416  25.657  0.00  0.00    +0.077 A 
ATOM     24  C   UNL     1      -3.889  -0.736  25.063  0.00  0.00    +0.122 A 
ATOM     25  C   UNL     1      -3.462   0.501  23.033  0.00  0.00    +0.051 A 
ATOM     28  C   UNL     1      -3.417  -0.693  23.752  0.00  0.00    +0.049 A 
BRANCH  21   6
ATOM      6  O   UNL     1      -4.013   2.810  22.906  0.00  0.00    -0.493 OA
ATOM     30  C   UNL     1      -3.172   2.881  21.756  0.00  0.00    +0.277 C 
ENDBRANCH  21   6
BRANCH  24   7
ATOM      7  O   UNL     1      -3.846  -1.902  25.764  0.00  0.00    -0.495 OA
ATOM     32  C   UNL     1      -3.252  -3.027  25.118  0.00  0.00    +0.277 C 
ENDBRANCH  24   7
ENDBRANCH   1  20
ENDBRANCH   9   1
ENDBRANCH  15   9
TORSDOF 7
ENDMDL
MODEL 2
REMARK VINA RESULT:       3.2      2.269      6.691
REMARK  Name = 11912000
REMARK  9 active torsions:
REMARK  status: ('A' for Active; 'I' for Inactive)
REMARK    1  A    between atoms: S_1  and  N_9
REMARK    2  A    between atoms: S_1  and  C_20
REMARK    3  A    between atoms: O_6  and  C_21
REMARK    4  A    between atoms: O_6  and  C_30
REMARK    5  A    between atoms: O_7  and  C_24
REMARK    6  A    between atoms: O_7  and  C_32
REMARK    7  A    between atoms: N_9  and  C_15
REMARK    8  A    between atoms: N_10  and  C_16
REMARK    9  A    between atoms: C_23  and  C_29
REMARK                            x       y       z     vdW  Elec       q    Type
REMARK                         _______ _______ _______ _____ _____    ______ ____
ROOT
ATOM      2  O   UNL     1      -1.398   2.894  23.425  0.00  0.00    -0.370 OA
ATOM      3  O   UNL     1      -1.415   5.254  25.473  0.00  0.00    -0.370 OA
ATOM     13  C   UNL     1      -1.404   3.823  25.616  0.00  0.00    +0.170 C 
ATOM     14  C   UNL     1      -2.270   3.253  24.509  0.00  0.00    +0.171 C 
ATOM     15  C   UNL     1      -0.026   3.281  25.322  0.00  0.00    +0.133 C 
ATOM     16  C   UNL     1      -3.161   4.405  24.106  0.00  0.00    +0.130 C 
ATOM     17  C   UNL     1      -0.038   3.136  23.813  0.00  0.00    +0.183 C 
ATOM     18  C   UNL     1      -2.292   5.614  24.397  0.00  0.00    +0.185 C 
ENDROOT
BRANCH  16  10
ATOM     10  N   UNL     1      -4.346   4.429  24.936  0.00  0.00    -0.306 N 
ATOM     11  N   UNL     1      -4.485   2.087  24.996  0.00  0.00    -0.211 NA
ATOM     12  N   UNL     1      -6.100   3.453  26.151  0.00  0.00    -0.223 NA
ATOM     19  C   UNL     1      -4.996   3.289  25.374  0.00  0.00    +0.216 A 
ATOM     23  C   UNL     1      -5.144   0.997  25.441  0.00  0.00    +0.111 A 
ATOM     26  C   UNL     1      -6.708   2.321  26.562  0.00  0.00    +0.116 A 
ATOM     27  C   UNL     1      -6.272   1.053  26.235  0.00  0.00    +0.051 A 
ATOM     36  H   UNL     1      -4.703   5.317  25.268  0.00  0.00    +0.149 HD
BRANCH  23  29
ATOM      8  O   UNL     1      -3.929  -0.951  25.995  0.00  0.00    -0.461 OA
ATOM     29  C   UNL     1      -4.580  -0.259  25.026  0.00  0.00    +0.153 A 
ATOM     31  C   UNL     1      -4.547  -0.942  23.834  0.00  0.00    +0.051 A 
ATOM     33  C   UNL     1      -3.828  -2.134  24.086  0.00  0.00    +0.042 A 
ATOM     34  C   UNL     1      -3.473  -2.093  25.414  0.00  0.00    +0.196 A 
ENDBRANCH  23  29
ENDBRANCH  16  10
BRANCH  15   9
ATOM      9  N   UNL     1       0.128   1.946  25.949  0.00  0.00    -0.182 NA
ATOM     35  H   UNL     1       0.907   1.833  26.609  0.00  0.00    +0.148 HD
BRANCH   9   1
ATOM      1  S   UNL     1      -0.527   0.575  25.189  0.00  0.00    +0.062 S 
ATOM      4  O   UNL     1      -1.790   0.925  24.567  0.00  0.00    -0.153 OA
ATOM      5  O   UNL     1      -0.450  -0.547  26.104  0.00  0.00    -0.153 OA
BRANCH   1  20
ATOM     20  C   UNL     1       0.650   0.275  23.903  0.00  0.00    +0.150 A 
ATOM     21  C   UNL     1       0.356  -0.617  22.885  0.00  0.00    +0.147 A 
ATOM     22  C   UNL     1       1.859   0.949  23.944  0.00  0.00    +0.077 A 
ATOM     24  C   UNL     1       2.800   0.725  22.939  0.00  0.00    +0.122 A 
ATOM     25  C   UNL     1       1.297  -0.841  21.880  0.00  0.00    +0.051 A 
ATOM     28  C   UNL     1       2.519  -0.170  21.907  0.00  0.00    +0.049 A 
BRANCH  21   6
ATOM      6  O   UNL     1      -0.833  -1.284  22.838  0.00  0.00    -0.493 OA
ATOM     30  C   UNL     1      -0.902  -2.533  23.521  0.00  0.00    +0.277 C 
ENDBRANCH  21   6
BRANCH  24   7
ATOM      7  O   UNL     1       3.994   1.379  22.967  0.00  0.00    -0.495 OA
ATOM     32  C   UNL     1       5.132   0.636  23.399  0.00  0.00    +0.277 C 
ENDBRANCH  24   7
ENDBRANCH   1  20
ENDBRANCH   9   1
ENDBRANCH  15   9
TORSDOF 7
ENDMDL
MODEL 3
REMARK VINA RESULT:       5.2      2.420      4.061
REMARK  Name = 11912000
REMARK  9 active torsions:
REMARK  status: ('A' for Active; 'I' for Inactive)
REMARK    1  A    between atoms: S_1  and  N_9
REMARK    2  A    between atoms: S_1  and  C_20
REMARK    3  A    between atoms: O_6  and  C_21
REMARK    4  A    between atoms: O_6  and  C_30
REMARK    5  A    between atoms: O_7  and  C_24
REMARK    6  A    between atoms: O_7  and  C_32
REMARK    7  A    between atoms: N_9  and  C_15
REMARK    8  A    between atoms: N_10  and  C_16
REMARK    9  A    between atoms: C_23  and  C_29
REMARK                            x       y       z     vdW  Elec       q    Type
REMARK                         _______ _______ _______ _____ _____    ______ ____
ROOT
ATOM      2  O   UNL     1      -2.055   3.201  26.645  0.00  0.00    -0.370 OA
ATOM      3  O   UNL     1      -0.159   5.222  25.202  0.00  0.00    -0.370 OA
ATOM     13  C   UNL     1      -1.351   4.526  24.798  0.00  0.00    +0.170 C 
ATOM     14  C   UNL     1      -1.300   3.145  25.424  0.00  0.00    +0.171 C 
ATOM     15  C   UNL     1      -2.566   5.169  25.422  0.00  0.00    +0.133 C 
ATOM     16  C   UNL     1       0.165   2.928  25.723  0.00  0.00    +0.130 C 
ATOM     17  C   UNL     1      -2.634   4.506  26.784  0.00  0.00    +0.183 C 
ATOM     18  C   UNL     1       0.664   4.339  25.975  0.00  0.00    +0.185 C 
ENDROOT
BRANCH  16  10
ATOM     10  N   UNL     1       0.828   2.362  24.568  0.00  0.00    -0.306 N 
ATOM     11  N   UNL     1      -0.434   0.386  24.676  0.00  0.00    -0.211 NA
ATOM     12  N   UNL     1       1.231   0.700  22.962  0.00  0.00    -0.223 NA
ATOM     19  C   UNL     1       0.532   1.112  24.053  0.00  0.00    +0.216 A 
ATOM     23  C   UNL     1      -0.696  -0.827  24.147  0.00  0.00    +0.111 A 
ATOM     26  C   UNL     1       0.916  -0.523  22.485  0.00  0.00    +0.116 A 
ATOM     27  C   UNL     1      -0.047  -1.339  23.042  0.00  0.00    +0.051 A 
ATOM     36  H   UNL     1       1.511   2.916  24.064  0.00  0.00    +0.149 HD
BRANCH  23  29
ATOM      8  O   UNL     1      -2.217  -0.986  25.948  0.00  0.00    -0.461 OA
ATOM     29  C   UNL     1      -1.723  -1.571  24.827  0.00  0.00    +0.153 A 
ATOM     31  C   UNL     1      -2.337  -2.778  24.596  0.00  0.00    +0.051 A 
ATOM     33  C   UNL     1      -3.272  -2.948  25.644  0.00  0.00    +0.042 A 
ATOM     34  C   UNL     1      -3.161  -1.832  26.440  0.00  0.00    +0.196 A 
ENDBRANCH  23  29
ENDBRANCH  16  10
BRANCH  15   9
ATOM      9  N   UNL     1      -3.774   4.816  24.636  0.00  0.00    -0.182 NA
ATOM     35  H   UNL     1      -3.936   5.352  23.775  0.00  0.00    +0.148 HD
BRANCH   9   1
ATOM      1  S   UNL     1      -5.080   4.042  25.397  0.00  0.00    +0.062 S 
ATOM      4  O   UNL     1      -6.325   4.608  24.913  0.00  0.00    -0.153 OA
ATOM      5  O   UNL     1      -4.816   3.970  26.820  0.00  0.00    -0.153 OA
BRANCH   1  20
ATOM     20  C   UNL     1      -4.948   2.396  24.763  0.00  0.00    +0.150 A 
ATOM     21  C   UNL     1      -5.833   1.416  25.181  0.00  0.00    +0.147 A 
ATOM     22  C   UNL     1      -3.945   2.120  23.849  0.00  0.00    +0.077 A 
ATOM     24  C   UNL     1      -3.824   0.827  23.338  0.00  0.00    +0.122 A 
ATOM     25  C   UNL     1      -5.712   0.123  24.670  0.00  0.00    +0.051 A 
ATOM     28  C   UNL     1      -4.707  -0.171  23.749  0.00  0.00    +0.049 A 
BRANCH  21   6
ATOM      6  O   UNL     1      -6.823   1.681  26.080  0.00  0.00    -0.493 OA
ATOM     30  C   UNL     1      -6.616   1.238  27.419  0.00  0.00    +0.277 C 
ENDBRANCH  21   6
BRANCH  24   7
ATOM      7  O   UNL     1      -2.842   0.539  22.440  0.00  0.00    -0.495 OA
ATOM     32  C   UNL     1      -2.255   1.638  21.745  0.00  0.00    +0.277 C 
ENDBRANCH  24   7
ENDBRANCH   1  20
ENDBRANCH   9   1
ENDBRANCH  15   9
TORSDOF 7
ENDMDL
MODEL 4
REMARK VINA RESULT:       5.6      1.031      1.909
REMARK  Name = 11912000
REMARK  9 active torsions:
REMARK  status: ('A' for Active; 'I' for Inactive)
REMARK    1  A    between atoms: S_1  and  N_9
REMARK    2  A    between atoms: S_1  and  C_20
REMARK    3  A    between atoms: O_6  and  C_21
REMARK    4  A    between atoms: O_6  and  C_30
REMARK    5  A    between atoms: O_7  and  C_24
REMARK    6  A    between atoms: O_7  and  C_32
REMARK    7  A    between atoms: N_9  and  C_15
REMARK    8  A    between atoms: N_10  and  C_16
REMARK    9  A    between atoms: C_23  and  C_29
REMARK                            x       y       z     vdW  Elec       q    Type
REMARK                         _______ _______ _______ _____ _____    ______ ____
ROOT
ATOM      2  O   UNL     1      -1.270   2.649  26.845  0.00  0.00    -0.370 OA
ATOM      3  O   UNL     1      -0.560   4.208  24.232  0.00  0.00    -0.370 OA
ATOM     13  C   UNL     1      -1.788   3.685  24.767  0.00  0.00    +0.170 C 
ATOM     14  C   UNL     1      -1.460   2.371  25.448  0.00  0.00    +0.171 C 
ATOM     15  C   UNL     1      -2.286   4.567  25.886  0.00  0.00    +0.133 C 
ATOM     16  C   UNL     1      -0.155   1.943  24.818  0.00  0.00    +0.130 C 
ATOM     17  C   UNL     1      -1.532   4.039  27.090  0.00  0.00    +0.183 C 
ATOM     18  C   UNL     1       0.497   3.269  24.472  0.00  0.00    +0.185 C 
ENDROOT
BRANCH  16  10
ATOM     10  N   UNL     1      -0.413   1.183  23.614  0.00  0.00    -0.306 N 
ATOM     11  N   UNL     1       1.834   0.535  23.411  0.00  0.00    -0.211 NA
ATOM     12  N   UNL     1       0.187  -0.185  21.805  0.00  0.00    -0.223 NA
ATOM     19  C   UNL     1       0.565   0.491  22.923  0.00  0.00    +0.216 A 
ATOM     23  C   UNL     1       2.761  -0.151  22.712  0.00  0.00    +0.111 A 
ATOM     26  C   UNL     1       1.165  -0.850  21.156  0.00  0.00    +0.116 A 
ATOM     27  C   UNL     1       2.483  -0.870  21.567  0.00  0.00    +0.051 A 
ATOM     36  H   UNL     1      -1.363   1.099  23.272  0.00  0.00    +0.149 HD
BRANCH  23  29
ATOM      8  O   UNL     1       4.532  -1.222  23.851  0.00  0.00    -0.461 OA
ATOM     29  C   UNL     1       4.093  -0.086  23.252  0.00  0.00    +0.153 A 
ATOM     31  C   UNL     1       5.054   0.895  23.305  0.00  0.00    +0.051 A 
ATOM     33  C   UNL     1       6.158   0.324  23.980  0.00  0.00    +0.042 A 
ATOM     34  C   UNL     1       5.792  -0.964  24.292  0.00  0.00    +0.196 A 
ENDBRANCH  23  29
ENDBRANCH  16  10
BRANCH  15   9
ATOM      9  N   UNL     1      -3.741   4.353  26.078  0.00  0.00    -0.182 NA
ATOM     35  H   UNL     1      -4.056   4.159  27.037  0.00  0.00    +0.148 HD
BRANCH   9   1
ATOM      1  S   UNL     1      -4.703   3.860  24.768  0.00  0.00    +0.062 S 
ATOM      4  O   UNL     1      -4.055   4.234  23.525  0.00  0.00    -0.153 OA
ATOM      5  O   UNL     1      -6.076   4.251  25.023  0.00  0.00    -0.153 OA
BRANCH   1  20
ATOM     20  C   UNL     1      -4.635   2.098  24.909  0.00  0.00    +0.150 A 
ATOM     21  C   UNL     1      -5.425   1.442  25.839  0.00  0.00    +0.147 A 
ATOM     22  C   UNL     1      -3.777   1.402  24.074  0.00  0.00    +0.077 A 
ATOM     24  C   UNL     1      -3.708   0.012  24.170  0.00  0.00    +0.122 A 
ATOM     25  C   UNL     1      -5.356   0.052  25.936  0.00  0.00    +0.051 A 
ATOM     28  C   UNL     1      -4.498  -0.663  25.101  0.00  0.00    +0.049 A 
BRANCH  21   6
ATOM      6  O   UNL     1      -6.272   2.121  26.665  0.00  0.00    -0.493 OA
ATOM     30  C   UNL     1      -7.019   1.349  27.602  0.00  0.00    +0.277 C 
ENDBRANCH  21   6
BRANCH  24   7
ATOM      7  O   UNL     1      -2.870  -0.686  23.357  0.00  0.00    -0.495 OA
ATOM     32  C   UNL     1      -2.218  -1.824  23.918  0.00  0.00    +0.277 C 
ENDBRANCH  24   7
ENDBRANCH   1  20
ENDBRANCH   9   1
ENDBRANCH  15   9
TORSDOF 7
ENDMDL
MODEL 5
REMARK VINA RESULT:       6.4      2.227      3.339
REMARK  Name = 11912000
REMARK  9 active torsions:
REMARK  status: ('A' for Active; 'I' for Inactive)
REMARK    1  A    between atoms: S_1  and  N_9
REMARK    2  A    between atoms: S_1  and  C_20
REMARK    3  A    between atoms: O_6  and  C_21
REMARK    4  A    between atoms: O_6  and  C_30
REMARK    5  A    between atoms: O_7  and  C_24
REMARK    6  A    between atoms: O_7  and  C_32
REMARK    7  A    between atoms: N_9  and  C_15
REMARK    8  A    between atoms: N_10  and  C_16
REMARK    9  A    between atoms: C_23  and  C_29
REMARK                            x       y       z     vdW  Elec       q    Type
REMARK                         _______ _______ _______ _____ _____    ______ ____
ROOT
ATOM      2  O   UNL     1      -2.483   3.314  26.448  0.00  0.00    -0.370 OA
ATOM      3  O   UNL     1      -1.379   5.540  24.553  0.00  0.00    -0.370 OA
ATOM     13  C   UNL     1      -2.227   4.398  24.345  0.00  0.00    +0.170 C 
ATOM     14  C   UNL     1      -1.711   3.285  25.236  0.00  0.00    +0.171 C 
ATOM     15  C   UNL     1      -3.615   4.677  24.869  0.00  0.00    +0.133 C 
ATOM     16  C   UNL     1      -0.278   3.670  25.518  0.00  0.00    +0.130 C 
ATOM     17  C   UNL     1      -3.495   4.326  26.340  0.00  0.00    +0.183 C 
ATOM     18  C   UNL     1      -0.325   5.186  25.459  0.00  0.00    +0.185 C 
ENDROOT
BRANCH  16  10
ATOM     10  N   UNL     1       0.587   3.156  24.478  0.00  0.00    -0.306 N 
ATOM     11  N   UNL     1      -0.177   0.957  24.780  0.00  0.00    -0.211 NA
ATOM     12  N   UNL     1       1.494   1.471  23.121  0.00  0.00    -0.223 NA
ATOM     19  C   UNL     1       0.636   1.822  24.116  0.00  0.00    +0.216 A 
ATOM     23  C   UNL     1      -0.103  -0.335  24.400  0.00  0.00    +0.111 A 
ATOM     26  C   UNL     1       1.516   0.163  22.791  0.00  0.00    +0.116 A 
ATOM     27  C   UNL     1       0.732  -0.795  23.402  0.00  0.00    +0.051 A 
ATOM     36  H   UNL     1       1.157   3.799  23.940  0.00  0.00    +0.149 HD
BRANCH  23  29
ATOM      8  O   UNL     1      -1.719  -0.644  26.095  0.00  0.00    -0.461 OA
ATOM     29  C   UNL     1      -0.973  -1.226  25.120  0.00  0.00    +0.153 A 
ATOM     31  C   UNL     1      -1.231  -2.573  25.049  0.00  0.00    +0.051 A 
ATOM     33  C   UNL     1      -2.201  -2.840  26.044  0.00  0.00    +0.042 A 
ATOM     34  C   UNL     1      -2.465  -1.635  26.652  0.00  0.00    +0.196 A 
ENDBRANCH  23  29
ENDBRANCH  16  10
BRANCH  15   9
ATOM      9  N   UNL     1      -4.586   3.765  24.218  0.00  0.00    -0.182 NA
ATOM     35  H   UNL     1      -5.089   4.133  23.401  0.00  0.00    +0.148 HD
BRANCH   9   1
ATOM      1  S   UNL     1      -5.256   2.476  25.098  0.00  0.00    +0.062 S 
ATOM      4  O   UNL     1      -6.693   2.449  24.899  0.00  0.00    -0.153 OA
ATOM      5  O   UNL     1      -4.705   2.490  26.439  0.00  0.00    -0.153 OA
BRANCH   1  20
ATOM     20  C   UNL     1      -4.565   1.073  24.272  0.00  0.00    +0.150 A 
ATOM     21  C   UNL     1      -3.658   1.249  23.239  0.00  0.00    +0.147 A 
ATOM     22  C   UNL     1      -4.954  -0.192  24.681  0.00  0.00    +0.077 A 
ATOM     24  C   UNL     1      -4.422  -1.311  24.041  0.00  0.00    +0.122 A 
ATOM     25  C   UNL     1      -3.126   0.130  22.599  0.00  0.00    +0.051 A 
ATOM     28  C   UNL     1      -3.507  -1.150  23.000  0.00  0.00    +0.049 A 
BRANCH  21   6
ATOM      6  O   UNL     1      -3.270   2.491  22.832  0.00  0.00    -0.493 OA
ATOM     30  C   UNL     1      -2.542   2.573  21.609  0.00  0.00    +0.277 C 
ENDBRANCH  21   6
BRANCH  24   7
ATOM      7  O   UNL     1      -4.795  -2.561  24.431  0.00  0.00    -0.495 OA
ATOM     32  C   UNL     1      -4.428  -3.644  23.579  0.00  0.00    +0.277 C 
ENDBRANCH  24   7
ENDBRANCH   1  20
ENDBRANCH   9   1
ENDBRANCH  15   9
TORSDOF 7
ENDMDL
MODEL 6
REMARK VINA RESULT:       6.5      2.648      6.066
REMARK  Name = 11912000
REMARK  9 active torsions:
REMARK  status: ('A' for Active; 'I' for Inactive)
REMARK    1  A    between atoms: S_1  and  N_9
REMARK    2  A    between atoms: S_1  and  C_20
REMARK    3  A    between atoms: O_6  and  C_21
REMARK    4  A    between atoms: O_6  and  C_30
REMARK    5  A    between atoms: O_7  and  C_24
REMARK    6  A    between atoms: O_7  and  C_32
REMARK    7  A    between atoms: N_9  and  C_15
REMARK    8  A    between atoms: N_10  and  C_16
REMARK    9  A    between atoms: C_23  and  C_29
REMARK                            x       y       z     vdW  Elec       q    Type
REMARK                         _______ _______ _______ _____ _____    ______ ____
ROOT
ATOM      2  O   UNL     1      -1.543   3.688  23.039  0.00  0.00    -0.370 OA
ATOM      3  O   UNL     1      -1.817   6.112  24.992  0.00  0.00    -0.370 OA
ATOM     13  C   UNL     1      -1.398   4.748  25.164  0.00  0.00    +0.170 C 
ATOM     14  C   UNL     1      -2.266   3.891  24.264  0.00  0.00    +0.171 C 
ATOM     15  C   UNL     1      -0.002   4.559  24.619  0.00  0.00    +0.133 C 
ATOM     16  C   UNL     1      -3.491   4.740  24.015  0.00  0.00    +0.130 C 
ATOM     17  C   UNL     1      -0.250   4.301  23.146  0.00  0.00    +0.183 C 
ATOM     18  C   UNL     1      -2.939   6.151  24.100  0.00  0.00    +0.185 C 
ENDROOT
BRANCH  16  10
ATOM     10  N   UNL     1      -4.467   4.520  25.061  0.00  0.00    -0.306 N 
ATOM     11  N   UNL     1      -4.534   2.208  24.664  0.00  0.00    -0.211 NA
ATOM     12  N   UNL     1      -5.890   3.209  26.387  0.00  0.00    -0.223 NA
ATOM     19  C   UNL     1      -4.978   3.276  25.380  0.00  0.00    +0.216 A 
ATOM     23  C   UNL     1      -5.054   1.011  25.002  0.00  0.00    +0.111 A 
ATOM     26  C   UNL     1      -6.368   1.980  26.673  0.00  0.00    +0.116 A 
ATOM     27  C   UNL     1      -5.983   0.834  26.008  0.00  0.00    +0.051 A 
ATOM     36  H   UNL     1      -4.764   5.300  25.636  0.00  0.00    +0.149 HD
BRANCH  23  29
ATOM      8  O   UNL     1      -5.129  -1.300  24.516  0.00  0.00    -0.461 OA
ATOM     29  C   UNL     1      -4.565  -0.099  24.228  0.00  0.00    +0.153 A 
ATOM     31  C   UNL     1      -3.627  -0.228  23.233  0.00  0.00    +0.051 A 
ATOM     33  C   UNL     1      -3.613  -1.599  22.884  0.00  0.00    +0.042 A 
ATOM     34  C   UNL     1      -4.543  -2.209  23.692  0.00  0.00    +0.196 A 
ENDBRANCH  23  29
ENDBRANCH  16  10
BRANCH  15   9
ATOM      9  N   UNL     1       0.615   3.360  25.237  0.00  0.00    -0.182 NA
ATOM     35  H   UNL     1       1.389   2.923  24.722  0.00  0.00    +0.148 HD
BRANCH   9   1
ATOM      1  S   UNL     1      -0.266   2.438  26.358  0.00  0.00    +0.062 S 
ATOM      4  O   UNL     1      -1.608   2.977  26.478  0.00  0.00    -0.153 OA
ATOM      5  O   UNL     1       0.548   2.236  27.540  0.00  0.00    -0.153 OA
BRANCH   1  20
ATOM     20  C   UNL     1      -0.379   0.876  25.536  0.00  0.00    +0.150 A 
ATOM     21  C   UNL     1       0.387   0.624  24.410  0.00  0.00    +0.147 A 
ATOM     22  C   UNL     1      -1.246  -0.077  26.045  0.00  0.00    +0.077 A 
ATOM     24  C   UNL     1      -1.350  -1.315  25.411  0.00  0.00    +0.122 A 
ATOM     25  C   UNL     1       0.283  -0.614  23.776  0.00  0.00    +0.051 A 
ATOM     28  C   UNL     1      -0.585  -1.583  24.276  0.00  0.00    +0.049 A 
BRANCH  21   6
ATOM      6  O   UNL     1       1.243   1.557  23.903  0.00  0.00    -0.493 OA
ATOM     30  C   UNL     1       2.341   1.076  23.132  0.00  0.00    +0.277 C 
ENDBRANCH  21   6
BRANCH  24   7
ATOM      7  O   UNL     1      -2.199  -2.261  25.899  0.00  0.00    -0.495 OA
ATOM     32  C   UNL     1      -3.118  -1.850  26.909  0.00  0.00    +0.277 C 
ENDBRANCH  24   7
ENDBRANCH   1  20
ENDBRANCH   9   1
ENDBRANCH  15   9
TORSDOF 7
ENDMDL
MODEL 7
REMARK VINA RESULT:       6.7      2.232      4.684
REMARK  Name = 11912000
REMARK  9 active torsions:
REMARK  status: ('A' for Active; 'I' for Inactive)
REMARK    1  A    between atoms: S_1  and  N_9
REMARK    2  A    between atoms: S_1  and  C_20
REMARK    3  A    between atoms: O_6  and  C_21
REMARK    4  A    between atoms: O_6  and  C_30
REMARK    5  A    between atoms: O_7  and  C_24
REMARK    6  A    between atoms: O_7  and  C_32
REMARK    7  A    between atoms: N_9  and  C_15
REMARK    8  A    between atoms: N_10  and  C_16
REMARK    9  A    between atoms: C_23  and  C_29
REMARK                            x       y       z     vdW  Elec       q    Type
REMARK                         _______ _______ _______ _____ _____    ______ ____
ROOT
ATOM      2  O   UNL     1      -3.705   1.976  22.509  0.00  0.00    -0.370 OA
ATOM      3  O   UNL     1      -5.552   2.130  25.025  0.00  0.00    -0.370 OA
ATOM     13  C   UNL     1      -4.230   2.617  24.740  0.00  0.00    +0.170 C 
ATOM     14  C   UNL     1      -3.541   1.576  23.879  0.00  0.00    +0.171 C 
ATOM     15  C   UNL     1      -4.304   3.838  23.854  0.00  0.00    +0.133 C 
ATOM     16  C   UNL     1      -4.312   0.304  24.149  0.00  0.00    +0.130 C 
ATOM     17  C   UNL     1      -4.388   3.238  22.464  0.00  0.00    +0.183 C 
ATOM     18  C   UNL     1      -5.705   0.820  24.460  0.00  0.00    +0.185 C 
ENDROOT
BRANCH  16  10
ATOM     10  N   UNL     1      -3.760  -0.373  25.302  0.00  0.00    -0.306 N 
ATOM     11  N   UNL     1      -1.631  -0.533  24.327  0.00  0.00    -0.211 NA
ATOM     12  N   UNL     1      -2.053  -1.411  26.532  0.00  0.00    -0.223 NA
ATOM     19  C   UNL     1      -2.442  -0.785  25.390  0.00  0.00    +0.216 A 
ATOM     23  C   UNL     1      -0.353  -0.947  24.447  0.00  0.00    +0.111 A 
ATOM     26  C   UNL     1      -0.761  -1.798  26.584  0.00  0.00    +0.116 A 
ATOM     27  C   UNL     1       0.144  -1.591  25.563  0.00  0.00    +0.051 A 
ATOM     36  H   UNL     1      -4.341  -0.518  26.121  0.00  0.00    +0.149 HD
BRANCH  23  29
ATOM      8  O   UNL     1       1.764  -0.335  23.598  0.00  0.00    -0.461 OA
ATOM     29  C   UNL     1       0.480  -0.668  23.308  0.00  0.00    +0.153 A 
ATOM     31  C   UNL     1       0.268  -0.658  21.951  0.00  0.00    +0.051 A 
ATOM     33  C   UNL     1       1.505  -0.296  21.365  0.00  0.00    +0.042 A 
ATOM     34  C   UNL     1       2.382  -0.110  22.408  0.00  0.00    +0.196 A 
ENDBRANCH  23  29
ENDBRANCH  16  10
BRANCH  15   9
ATOM      9  N   UNL     1      -3.052   4.622  23.983  0.00  0.00    -0.182 NA
ATOM     35  H   UNL     1      -2.411   4.601  23.181  0.00  0.00    +0.148 HD
BRANCH   9   1
ATOM      1  S   UNL     1      -2.449   5.006  25.523  0.00  0.00    +0.062 S 
ATOM      4  O   UNL     1      -3.467   4.735  26.521  0.00  0.00    -0.153 OA
ATOM      5  O   UNL     1      -1.812   6.306  25.465  0.00  0.00    -0.153 OA
BRANCH   1  20
ATOM     20  C   UNL     1      -1.162   3.808  25.719  0.00  0.00    +0.150 A 
ATOM     21  C   UNL     1      -0.448   3.367  24.617  0.00  0.00    +0.147 A 
ATOM     22  C   UNL     1      -0.893   3.331  26.991  0.00  0.00    +0.077 A 
ATOM     24  C   UNL     1       0.118   2.386  27.166  0.00  0.00    +0.122 A 
ATOM     25  C   UNL     1       0.563   2.421  24.792  0.00  0.00    +0.051 A 
ATOM     28  C   UNL     1       0.845   1.931  26.066  0.00  0.00    +0.049 A 
BRANCH  21   6
ATOM      6  O   UNL     1      -0.707   3.833  23.362  0.00  0.00    -0.493 OA
ATOM     30  C   UNL     1       0.120   4.889  22.880  0.00  0.00    +0.277 C 
ENDBRANCH  21   6
BRANCH  24   7
ATOM      7  O   UNL     1       0.393   1.905  28.410  0.00  0.00    -0.495 OA
ATOM     32  C   UNL     1       1.540   2.436  29.071  0.00  0.00    +0.277 C 
ENDBRANCH  24   7
ENDBRANCH   1  20
ENDBRANCH   9   1
ENDBRANCH  15   9
TORSDOF 7
ENDMDL
