MODEL 1
REMARK VINA RESULT:      -4.8      0.000      0.000
REMARK  Name = 25390222
REMARK  11 active torsions:
REMARK  status: ('A' for Active; 'I' for Inactive)
REMARK    1  A    between atoms: O_2  and  C_8
REMARK    2  A    between atoms: O_3  and  C_10
REMARK    3  A    between atoms: N_6  and  C_13
REMARK    4  A    between atoms: N_7  and  C_16
REMARK    5  A    between atoms: N_7  and  C_17
REMARK    6  A    between atoms: C_9  and  C_12
REMARK    7  A    between atoms: C_11  and  C_13
REMARK    8  A    between atoms: C_12  and  C_14
REMARK    9  A    between atoms: C_15  and  C_18
REMARK   10  A    between atoms: C_16  and  C_19
REMARK   11  A    between atoms: C_26  and  C_30
REMARK                            x       y       z     vdW  Elec       q    Type
REMARK                         _______ _______ _______ _____ _____    ______ ____
ROOT
ATOM      1  O   UNL     1      -2.119   3.192  23.317  0.00  0.00    -0.366 OA
ATOM      8  C   UNL     1      -2.288   4.177  25.476  0.00  0.00    +0.175 C 
ATOM      9  C   UNL     1      -2.984   4.020  24.128  0.00  0.00    +0.159 C 
ATOM     10  C   UNL     1      -1.491   2.893  25.570  0.00  0.00    +0.176 C 
ATOM     11  C   UNL     1      -1.036   2.710  24.131  0.00  0.00    +0.167 C 
ENDROOT
BRANCH   8   2
ATOM      2  O   UNL     1      -1.411   5.300  25.394  0.00  0.00    -0.387 OA
ATOM     31  H   UNL     1      -1.823   5.947  24.796  0.00  0.00    +0.210 HD
ENDBRANCH   8   2
BRANCH  10   3
ATOM      3  O   UNL     1      -0.401   2.976  26.464  0.00  0.00    -0.387 OA
ATOM     32  H   UNL     1       0.276   3.535  26.047  0.00  0.00    +0.210 HD
ENDBRANCH  10   3
BRANCH   9  12
ATOM     12  C   UNL     1      -4.333   3.324  24.231  0.00  0.00    +0.130 C 
BRANCH  12  14
ATOM      4  O   UNL     1      -3.604   1.372  23.048  0.00  0.00    -0.276 OA
ATOM      7  N   UNL     1      -4.907   1.013  24.932  0.00  0.00    -0.300 N 
ATOM     14  C   UNL     1      -4.241   1.821  24.005  0.00  0.00    +0.218 C 
ATOM     17  C   UNL     1      -5.654   1.564  26.056  0.00  0.00    +0.132 C 
BRANCH   7  16
ATOM     16  C   UNL     1      -4.906  -0.445  24.844  0.00  0.00    +0.142 C 
BRANCH  16  19
ATOM     19  C   UNL     1      -3.525  -1.017  24.995  0.00  0.00    -0.030 A 
ATOM     22  C   UNL     1      -2.674  -0.529  25.986  0.00  0.00    +0.005 A 
ATOM     23  C   UNL     1      -3.096  -2.035  24.145  0.00  0.00    +0.005 A 
ATOM     27  C   UNL     1      -1.391  -1.060  26.126  0.00  0.00    +0.000 A 
ATOM     28  C   UNL     1      -1.814  -2.566  24.285  0.00  0.00    +0.000 A 
ATOM     29  C   UNL     1      -0.962  -2.079  25.276  0.00  0.00    +0.000 A 
ENDBRANCH  16  19
ENDBRANCH   7  16
ENDBRANCH  12  14
ENDBRANCH   9  12
BRANCH  11  13
ATOM     13  C   UNL     1      -0.731   1.266  23.775  0.00  0.00    +0.138 C 
BRANCH  13   6
ATOM      5  O   UNL     1       0.775  -0.399  21.985  0.00  0.00    -0.270 OA
ATOM      6  N   UNL     1       0.677   1.007  23.829  0.00  0.00    -0.309 N 
ATOM     15  C   UNL     1       1.329   0.183  22.915  0.00  0.00    +0.244 C 
ATOM     33  H   UNL     1       1.206   1.501  24.540  0.00  0.00    +0.149 HD
BRANCH  15  18
ATOM     18  C   UNL     1       2.787  -0.005  23.123  0.00  0.00    +0.037 A 
ATOM     20  C   UNL     1       3.274  -1.225  23.591  0.00  0.00    +0.013 A 
ATOM     21  C   UNL     1       3.671   1.039  22.848  0.00  0.00    +0.013 A 
ATOM     24  C   UNL     1       4.644  -1.402  23.786  0.00  0.00    +0.004 A 
ATOM     25  C   UNL     1       5.041   0.862  23.043  0.00  0.00    +0.004 A 
ATOM     26  C   UNL     1       5.528  -0.358  23.512  0.00  0.00    -0.050 A 
ATOM     30  C   UNL     1       6.992  -0.547  23.721  0.00  0.00    +0.044 C 
ENDBRANCH  15  18
ENDBRANCH  13   6
ENDBRANCH  11  13
TORSDOF 9
ENDMDL
MODEL 2
REMARK VINA RESULT:      -3.9      1.488      4.022
REMARK  Name = 25390222
REMARK  11 active torsions:
REMARK  status: ('A' for Active; 'I' for Inactive)
REMARK    1  A    between atoms: O_2  and  C_8
REMARK    2  A    between atoms: O_3  and  C_10
REMARK    3  A    between atoms: N_6  and  C_13
REMARK    4  A    between atoms: N_7  and  C_16
REMARK    5  A    between atoms: N_7  and  C_17
REMARK    6  A    between atoms: C_9  and  C_12
REMARK    7  A    between atoms: C_11  and  C_13
REMARK    8  A    between atoms: C_12  and  C_14
REMARK    9  A    between atoms: C_15  and  C_18
REMARK   10  A    between atoms: C_16  and  C_19
REMARK   11  A    between atoms: C_26  and  C_30
REMARK                            x       y       z     vdW  Elec       q    Type
REMARK                         _______ _______ _______ _____ _____    ______ ____
ROOT
ATOM      1  O   UNL     1      -2.711   0.066  25.641  0.00  0.00    -0.366 OA
ATOM      8  C   UNL     1      -3.215  -2.097  24.788  0.00  0.00    +0.175 C 
ATOM      9  C   UNL     1      -3.790  -0.890  25.521  0.00  0.00    +0.159 C 
ATOM     10  C   UNL     1      -2.127  -1.465  23.946  0.00  0.00    +0.176 C 
ATOM     11  C   UNL     1      -1.578  -0.412  24.895  0.00  0.00    +0.167 C 
ENDROOT
BRANCH   8   2
ATOM      2  O   UNL     1      -2.644  -2.974  25.759  0.00  0.00    -0.387 OA
ATOM     31  H   UNL     1      -1.785  -3.270  25.413  0.00  0.00    +0.210 HD
ENDBRANCH   8   2
BRANCH  10   3
ATOM      3  O   UNL     1      -1.132  -2.381  23.538  0.00  0.00    -0.387 OA
ATOM     32  H   UNL     1      -0.356  -1.865  23.264  0.00  0.00    +0.210 HD
ENDBRANCH  10   3
BRANCH   9  12
ATOM     12  C   UNL     1      -4.926  -0.217  24.763  0.00  0.00    +0.130 C 
BRANCH  12  14
ATOM      4  O   UNL     1      -3.986   1.611  23.531  0.00  0.00    -0.276 OA
ATOM      7  N   UNL     1      -5.238   2.160  25.404  0.00  0.00    -0.300 N 
ATOM     14  C   UNL     1      -4.666   1.260  24.499  0.00  0.00    +0.218 C 
ATOM     17  C   UNL     1      -6.039   1.724  26.541  0.00  0.00    +0.132 C 
BRANCH   7  16
ATOM     16  C   UNL     1      -5.075   3.606  25.279  0.00  0.00    +0.142 C 
BRANCH  16  19
ATOM     19  C   UNL     1      -3.629   4.007  25.222  0.00  0.00    -0.030 A 
ATOM     22  C   UNL     1      -3.201   4.937  24.276  0.00  0.00    +0.005 A 
ATOM     23  C   UNL     1      -2.715   3.448  26.115  0.00  0.00    +0.005 A 
ATOM     27  C   UNL     1      -1.856   5.309  24.223  0.00  0.00    +0.000 A 
ATOM     28  C   UNL     1      -1.373   3.819  26.061  0.00  0.00    +0.000 A 
ATOM     29  C   UNL     1      -0.943   4.750  25.116  0.00  0.00    +0.000 A 
ENDBRANCH  16  19
ENDBRANCH   7  16
ENDBRANCH  12  14
ENDBRANCH   9  12
BRANCH  11  13
ATOM     13  C   UNL     1      -0.907   0.749  24.183  0.00  0.00    +0.138 C 
BRANCH  13   6
ATOM      5  O   UNL     1       0.647  -0.281  22.000  0.00  0.00    -0.270 OA
ATOM      6  N   UNL     1       0.516   0.582  24.150  0.00  0.00    -0.309 N 
ATOM     15  C   UNL     1       1.191   0.073  23.044  0.00  0.00    +0.244 C 
ATOM     33  H   UNL     1       1.033   0.907  24.960  0.00  0.00    +0.149 HD
BRANCH  15  18
ATOM     18  C   UNL     1       2.663  -0.063  23.177  0.00  0.00    +0.037 A 
ATOM     20  C   UNL     1       3.215  -1.255  23.646  0.00  0.00    +0.013 A 
ATOM     21  C   UNL     1       3.496   1.002  22.831  0.00  0.00    +0.013 A 
ATOM     24  C   UNL     1       4.599  -1.382  23.771  0.00  0.00    +0.004 A 
ATOM     25  C   UNL     1       4.879   0.875  22.956  0.00  0.00    +0.004 A 
ATOM     26  C   UNL     1       5.431  -0.317  23.426  0.00  0.00    -0.050 A 
ATOM     30  C   UNL     1       6.910  -0.453  23.560  0.00  0.00    +0.044 C 
ENDBRANCH  15  18
ENDBRANCH  13   6
ENDBRANCH  11  13
TORSDOF 9
ENDMDL
MODEL 3
REMARK VINA RESULT:      -3.7      1.386      6.305
REMARK  Name = 25390222
REMARK  11 active torsions:
REMARK  status: ('A' for Active; 'I' for Inactive)
REMARK    1  A    between atoms: O_2  and  C_8
REMARK    2  A    between atoms: O_3  and  C_10
REMARK    3  A    between atoms: N_6  and  C_13
REMARK    4  A    between atoms: N_7  and  C_16
REMARK    5  A    between atoms: N_7  and  C_17
REMARK    6  A    between atoms: C_9  and  C_12
REMARK    7  A    between atoms: C_11  and  C_13
REMARK    8  A    between atoms: C_12  and  C_14
REMARK    9  A    between atoms: C_15  and  C_18
REMARK   10  A    between atoms: C_16  and  C_19
REMARK   11  A    between atoms: C_26  and  C_30
REMARK                            x       y       z     vdW  Elec       q    Type
REMARK                         _______ _______ _______ _____ _____    ______ ____
ROOT
ATOM      1  O   UNL     1      -2.064   3.373  26.595  0.00  0.00    -0.366 OA
ATOM      8  C   UNL     1      -1.042   4.210  24.616  0.00  0.00    +0.175 C 
ATOM      9  C   UNL     1      -0.828   3.336  25.847  0.00  0.00    +0.159 C 
ATOM     10  C   UNL     1      -2.536   4.081  24.396  0.00  0.00    +0.176 C 
ATOM     11  C   UNL     1      -3.055   4.075  25.824  0.00  0.00    +0.167 C 
ENDROOT
BRANCH   8   2
ATOM      2  O   UNL     1      -0.707   5.553  24.963  0.00  0.00    -0.387 OA
ATOM     31  H   UNL     1       0.263   5.613  24.984  0.00  0.00    +0.210 HD
ENDBRANCH   8   2
BRANCH  10   3
ATOM      3  O   UNL     1      -3.082   5.139  23.637  0.00  0.00    -0.387 OA
ATOM     32  H   UNL     1      -3.086   4.859  22.707  0.00  0.00    +0.210 HD
ENDBRANCH  10   3
BRANCH   9  12
ATOM     12  C   UNL     1      -0.536   1.881  25.502  0.00  0.00    +0.130 C 
BRANCH  12  14
ATOM      4  O   UNL     1       1.025   2.706  23.882  0.00  0.00    -0.276 OA
ATOM      7  N   UNL     1       0.480   0.456  23.743  0.00  0.00    -0.300 N 
ATOM     14  C   UNL     1       0.394   1.734  24.307  0.00  0.00    +0.218 C 
ATOM     17  C   UNL     1      -0.274  -0.679  24.260  0.00  0.00    +0.132 C 
BRANCH   7  16
ATOM     16  C   UNL     1       1.331   0.163  22.593  0.00  0.00    +0.142 C 
BRANCH  16  19
ATOM     19  C   UNL     1       2.769  -0.021  22.989  0.00  0.00    -0.030 A 
ATOM     22  C   UNL     1       3.194  -1.237  23.522  0.00  0.00    +0.005 A 
ATOM     23  C   UNL     1       3.676   1.025  22.823  0.00  0.00    +0.005 A 
ATOM     27  C   UNL     1       4.530  -1.408  23.890  0.00  0.00    +0.000 A 
ATOM     28  C   UNL     1       5.010   0.854  23.191  0.00  0.00    +0.000 A 
ATOM     29  C   UNL     1       5.437  -0.363  23.724  0.00  0.00    +0.000 A 
ENDBRANCH  16  19
ENDBRANCH   7  16
ENDBRANCH  12  14
ENDBRANCH   9  12
BRANCH  11  13
ATOM     13  C   UNL     1      -4.401   3.387  25.972  0.00  0.00    +0.138 C 
BRANCH  13   6
ATOM      5  O   UNL     1      -3.834   1.981  23.534  0.00  0.00    -0.270 OA
ATOM      6  N   UNL     1      -4.276   1.968  25.811  0.00  0.00    -0.309 N 
ATOM     15  C   UNL     1      -3.998   1.369  24.586  0.00  0.00    +0.244 C 
ATOM     33  H   UNL     1      -4.346   1.405  26.652  0.00  0.00    +0.149 HD
BRANCH  15  18
ATOM     18  C   UNL     1      -3.927  -0.115  24.581  0.00  0.00    +0.037 A 
ATOM     20  C   UNL     1      -4.336  -0.829  23.455  0.00  0.00    +0.013 A 
ATOM     21  C   UNL     1      -3.449  -0.794  25.702  0.00  0.00    +0.013 A 
ATOM     24  C   UNL     1      -4.269  -2.222  23.450  0.00  0.00    +0.004 A 
ATOM     25  C   UNL     1      -3.382  -2.187  25.697  0.00  0.00    +0.004 A 
ATOM     26  C   UNL     1      -3.792  -2.901  24.571  0.00  0.00    -0.050 A 
ATOM     30  C   UNL     1      -3.721  -4.391  24.566  0.00  0.00    +0.044 C 
ENDBRANCH  15  18
ENDBRANCH  13   6
ENDBRANCH  11  13
TORSDOF 9
ENDMDL
MODEL 4
REMARK VINA RESULT:      -1.9      2.779      7.248
REMARK  Name = 25390222
REMARK  11 active torsions:
REMARK  status: ('A' for Active; 'I' for Inactive)
REMARK    1  A    between atoms: O_2  and  C_8
REMARK    2  A    between atoms: O_3  and  C_10
REMARK    3  A    between atoms: N_6  and  C_13
REMARK    4  A    between atoms: N_7  and  C_16
REMARK    5  A    between atoms: N_7  and  C_17
REMARK    6  A    between atoms: C_9  and  C_12
REMARK    7  A    between atoms: C_11  and  C_13
REMARK    8  A    between atoms: C_12  and  C_14
REMARK    9  A    between atoms: C_15  and  C_18
REMARK   10  A    between atoms: C_16  and  C_19
REMARK   11  A    between atoms: C_26  and  C_30
REMARK                            x       y       z     vdW  Elec       q    Type
REMARK                         _______ _______ _______ _____ _____    ______ ____
ROOT
ATOM      1  O   UNL     1      -1.359  -2.682  23.729  0.00  0.00    -0.366 OA
ATOM      8  C   UNL     1      -0.124  -1.418  25.320  0.00  0.00    +0.175 C 
ATOM      9  C   UNL     1      -0.125  -1.948  23.891  0.00  0.00    +0.159 C 
ATOM     10  C   UNL     1      -1.605  -1.274  25.603  0.00  0.00    +0.176 C 
ATOM     11  C   UNL     1      -2.170  -2.498  24.902  0.00  0.00    +0.167 C 
ENDROOT
BRANCH   8   2
ATOM      2  O   UNL     1       0.446  -2.418  26.163  0.00  0.00    -0.387 OA
ATOM     31  H   UNL     1       0.508  -2.043  27.058  0.00  0.00    +0.210 HD
ENDBRANCH   8   2
BRANCH  10   3
ATOM      3  O   UNL     1      -1.913  -1.263  26.981  0.00  0.00    -0.387 OA
ATOM     32  H   UNL     1      -2.545  -0.541  27.133  0.00  0.00    +0.210 HD
ENDBRANCH  10   3
BRANCH   9  12
ATOM     12  C   UNL     1      -0.101  -0.841  22.845  0.00  0.00    +0.130 C 
BRANCH  12  14
ATOM      4  O   UNL     1       1.841   0.386  23.529  0.00  0.00    -0.276 OA
ATOM      7  N   UNL     1      -0.166   1.549  23.510  0.00  0.00    -0.300 N 
ATOM     14  C   UNL     1       0.624   0.409  23.325  0.00  0.00    +0.218 C 
ATOM     17  C   UNL     1      -1.602   1.554  23.263  0.00  0.00    +0.132 C 
BRANCH   7  16
ATOM     16  C   UNL     1       0.390   2.821  23.967  0.00  0.00    +0.142 C 
BRANCH  16  19
ATOM     19  C   UNL     1      -0.608   3.620  24.755  0.00  0.00    -0.030 A 
ATOM     22  C   UNL     1      -1.283   3.031  25.824  0.00  0.00    +0.005 A 
ATOM     23  C   UNL     1      -0.858   4.949  24.418  0.00  0.00    +0.005 A 
ATOM     27  C   UNL     1      -2.210   3.774  26.557  0.00  0.00    +0.000 A 
ATOM     28  C   UNL     1      -1.785   5.691  25.150  0.00  0.00    +0.000 A 
ATOM     29  C   UNL     1      -2.461   5.103  26.220  0.00  0.00    +0.000 A 
ENDBRANCH  16  19
ENDBRANCH   7  16
ENDBRANCH  12  14
ENDBRANCH   9  12
BRANCH  11  13
ATOM     13  C   UNL     1      -3.626  -2.343  24.499  0.00  0.00    +0.138 C 
BRANCH  13   6
ATOM      5  O   UNL     1      -3.664  -0.057  22.763  0.00  0.00    -0.270 OA
ATOM      6  N   UNL     1      -4.114  -1.034  24.818  0.00  0.00    -0.309 N 
ATOM     15  C   UNL     1      -4.095   0.021  23.910  0.00  0.00    +0.244 C 
ATOM     33  H   UNL     1      -4.536  -0.914  25.733  0.00  0.00    +0.149 HD
BRANCH  15  18
ATOM     18  C   UNL     1      -4.614   1.322  24.403  0.00  0.00    +0.037 A 
ATOM     20  C   UNL     1      -5.430   1.366  25.534  0.00  0.00    +0.013 A 
ATOM     21  C   UNL     1      -4.283   2.502  23.737  0.00  0.00    +0.013 A 
ATOM     24  C   UNL     1      -5.917   2.588  25.996  0.00  0.00    +0.004 A 
ATOM     25  C   UNL     1      -4.770   3.725  24.200  0.00  0.00    +0.004 A 
ATOM     26  C   UNL     1      -5.587   3.767  25.329  0.00  0.00    -0.050 A 
ATOM     30  C   UNL     1      -6.109   5.075  25.824  0.00  0.00    +0.044 C 
ENDBRANCH  15  18
ENDBRANCH  13   6
ENDBRANCH  11  13
TORSDOF 9
ENDMDL
MODEL 5
REMARK VINA RESULT:      -0.9      1.952      7.679
REMARK  Name = 25390222
REMARK  11 active torsions:
REMARK  status: ('A' for Active; 'I' for Inactive)
REMARK    1  A    between atoms: O_2  and  C_8
REMARK    2  A    between atoms: O_3  and  C_10
REMARK    3  A    between atoms: N_6  and  C_13
REMARK    4  A    between atoms: N_7  and  C_16
REMARK    5  A    between atoms: N_7  and  C_17
REMARK    6  A    between atoms: C_9  and  C_12
REMARK    7  A    between atoms: C_11  and  C_13
REMARK    8  A    between atoms: C_12  and  C_14
REMARK    9  A    between atoms: C_15  and  C_18
REMARK   10  A    between atoms: C_16  and  C_19
REMARK   11  A    between atoms: C_26  and  C_30
REMARK                            x       y       z     vdW  Elec       q    Type
REMARK                         _______ _______ _______ _____ _____    ______ ____
ROOT
ATOM      1  O   UNL     1      -1.533  -1.936  23.655  0.00  0.00    -0.366 OA
ATOM      8  C   UNL     1      -0.525  -1.174  25.670  0.00  0.00    +0.175 C 
ATOM      9  C   UNL     1      -0.378  -1.224  24.153  0.00  0.00    +0.159 C 
ATOM     10  C   UNL     1      -2.030  -1.208  25.841  0.00  0.00    +0.176 C 
ATOM     11  C   UNL     1      -2.440  -2.176  24.745  0.00  0.00    +0.167 C 
ENDROOT
BRANCH   8   2
ATOM      2  O   UNL     1       0.061  -2.357  26.211  0.00  0.00    -0.387 OA
ATOM     31  H   UNL     1       0.975  -2.405  25.882  0.00  0.00    +0.210 HD
ENDBRANCH   8   2
BRANCH  10   3
ATOM      3  O   UNL     1      -2.438  -1.650  27.119  0.00  0.00    -0.387 OA
ATOM     32  H   UNL     1      -1.651  -1.656  27.690  0.00  0.00    +0.210 HD
ENDBRANCH  10   3
BRANCH   9  12
ATOM     12  C   UNL     1      -0.368   0.156  23.510  0.00  0.00    +0.130 C 
BRANCH  12  14
ATOM      4  O   UNL     1       1.537   1.522  24.007  0.00  0.00    -0.276 OA
ATOM      7  N   UNL     1       1.706   0.148  22.146  0.00  0.00    -0.300 N 
ATOM     14  C   UNL     1       1.040   0.678  23.256  0.00  0.00    +0.218 C 
ATOM     17  C   UNL     1       1.100  -0.848  21.272  0.00  0.00    +0.132 C 
BRANCH   7  16
ATOM     16  C   UNL     1       3.061   0.553  21.779  0.00  0.00    +0.142 C 
BRANCH  16  19
ATOM     19  C   UNL     1       4.078   0.093  22.784  0.00  0.00    -0.030 A 
ATOM     22  C   UNL     1       5.023   0.991  23.279  0.00  0.00    +0.005 A 
ATOM     23  C   UNL     1       4.075  -1.231  23.222  0.00  0.00    +0.005 A 
ATOM     27  C   UNL     1       5.968   0.563  24.213  0.00  0.00    +0.000 A 
ATOM     28  C   UNL     1       5.019  -1.658  24.155  0.00  0.00    +0.000 A 
ATOM     29  C   UNL     1       5.966  -0.761  24.651  0.00  0.00    +0.000 A 
ENDBRANCH  16  19
ENDBRANCH   7  16
ENDBRANCH  12  14
ENDBRANCH   9  12
BRANCH  11  13
ATOM     13  C   UNL     1      -3.871  -1.982  24.273  0.00  0.00    +0.138 C 
BRANCH  13   6
ATOM      5  O   UNL     1      -3.255   0.477  22.925  0.00  0.00    -0.270 OA
ATOM      6  N   UNL     1      -4.354  -0.676  24.612  0.00  0.00    -0.309 N 
ATOM     15  C   UNL     1      -4.003   0.468  23.900  0.00  0.00    +0.244 C 
ATOM     33  H   UNL     1      -5.021  -0.619  25.375  0.00  0.00    +0.149 HD
BRANCH  15  18
ATOM     18  C   UNL     1      -4.567   1.749  24.395  0.00  0.00    +0.037 A 
ATOM     20  C   UNL     1      -5.702   1.746  25.205  0.00  0.00    +0.013 A 
ATOM     21  C   UNL     1      -3.961   2.957  24.050  0.00  0.00    +0.013 A 
ATOM     24  C   UNL     1      -6.232   2.950  25.669  0.00  0.00    +0.004 A 
ATOM     25  C   UNL     1      -4.490   4.161  24.514  0.00  0.00    +0.004 A 
ATOM     26  C   UNL     1      -5.626   4.157  25.324  0.00  0.00    -0.050 A 
ATOM     30  C   UNL     1      -6.193   5.445  25.820  0.00  0.00    +0.044 C 
ENDBRANCH  15  18
ENDBRANCH  13   6
ENDBRANCH  11  13
TORSDOF 9
ENDMDL
