MODEL 1
REMARK VINA RESULT:      -7.0      0.000      0.000
REMARK  Name = 75536546
REMARK  7 active torsions:
REMARK  status: ('A' for Active; 'I' for Inactive)
REMARK    1  A    between atoms: O_2  and  C_11
REMARK    2  A    between atoms: N_4  and  C_13
REMARK    3  A    between atoms: N_5  and  C_12
REMARK    4  A    between atoms: N_5  and  C_16
REMARK    5  A    between atoms: C_7  and  C_15
REMARK    6  A    between atoms: C_10  and  C_13
REMARK    7  A    between atoms: C_16  and  C_17
REMARK                            x       y       z     vdW  Elec       q    Type
REMARK                         _______ _______ _______ _____ _____    ______ ____
ROOT
ATOM      1  O   UNL     1      -4.374   3.703  26.174  0.00  0.00    -0.371 OA
ATOM     10  C   UNL     1      -4.569   3.028  24.919  0.00  0.00    +0.165 C 
ATOM     11  C   UNL     1      -3.177   2.786  24.352  0.00  0.00    +0.164 C 
ATOM     12  C   UNL     1      -2.449   4.031  24.823  0.00  0.00    +0.111 C 
ATOM     14  C   UNL     1      -3.029   4.211  26.217  0.00  0.00    +0.181 C 
ENDROOT
BRANCH  11   2
ATOM      2  O   UNL     1      -3.196   2.665  22.943  0.00  0.00    -0.388 OA
ATOM     24  H   UNL     1      -3.667   1.846  22.713  0.00  0.00    +0.210 HD
ENDBRANCH  11   2
BRANCH  12   5
ATOM      5  N   UNL     1      -1.001   3.894  24.827  0.00  0.00    -0.305 NA
ATOM     23  H   UNL     1      -0.583   4.794  25.067  0.00  0.00    +0.123 HD
BRANCH   5  16
ATOM     16  C   UNL     1      -0.570   2.899  25.801  0.00  0.00    +0.118 C 
BRANCH  16  17
ATOM      6  N   UNL     1       0.481   0.251  23.309  0.00  0.00    -0.263 NA
ATOM     17  C   UNL     1      -0.356   1.550  25.168  0.00  0.00    -0.015 A 
ATOM     18  C   UNL     1      -0.771   0.386  25.805  0.00  0.00    +0.008 A 
ATOM     19  C   UNL     1       0.260   1.430  23.932  0.00  0.00    +0.115 A 
ATOM     20  C   UNL     1      -0.561  -0.845  25.194  0.00  0.00    +0.020 A 
ATOM     21  C   UNL     1       0.064  -0.858  23.958  0.00  0.00    +0.111 A 
ENDBRANCH  16  17
ENDBRANCH   5  16
ENDBRANCH  12   5
BRANCH  10  13
ATOM     13  C   UNL     1      -5.357   1.750  25.142  0.00  0.00    +0.138 C 
BRANCH  13   4
ATOM      3  O   UNL     1      -4.048  -0.626  26.190  0.00  0.00    -0.276 OA
ATOM      4  N   UNL     1      -4.799   0.658  24.396  0.00  0.00    -0.313 N 
ATOM     15  C   UNL     1      -4.190  -0.441  24.986  0.00  0.00    +0.216 C 
ATOM     22  H   UNL     1      -4.859   0.699  23.383  0.00  0.00    +0.149 HD
BRANCH  15   7
ATOM      7  C   UNL     1      -3.683  -1.458  24.020  0.00  0.00    +0.075 C 
ATOM      8  C   UNL     1      -4.592  -2.570  23.614  0.00  0.00    +0.013 C 
ATOM      9  C   UNL     1      -3.423  -2.843  24.514  0.00  0.00    +0.013 C 
ENDBRANCH  15   7
ENDBRANCH  13   4
ENDBRANCH  10  13
TORSDOF 7
ENDMDL
MODEL 2
REMARK VINA RESULT:      -6.6      1.877      4.342
REMARK  Name = 75536546
REMARK  7 active torsions:
REMARK  status: ('A' for Active; 'I' for Inactive)
REMARK    1  A    between atoms: O_2  and  C_11
REMARK    2  A    between atoms: N_4  and  C_13
REMARK    3  A    between atoms: N_5  and  C_12
REMARK    4  A    between atoms: N_5  and  C_16
REMARK    5  A    between atoms: C_7  and  C_15
REMARK    6  A    between atoms: C_10  and  C_13
REMARK    7  A    between atoms: C_16  and  C_17
REMARK                            x       y       z     vdW  Elec       q    Type
REMARK                         _______ _______ _______ _____ _____    ______ ____
ROOT
ATOM      1  O   UNL     1      -0.899   1.000  22.921  0.00  0.00    -0.371 OA
ATOM     10  C   UNL     1       0.025   0.772  23.999  0.00  0.00    +0.165 C 
ATOM     11  C   UNL     1      -0.387   1.725  25.113  0.00  0.00    +0.164 C 
ATOM     12  C   UNL     1      -0.858   2.925  24.312  0.00  0.00    +0.111 C 
ATOM     14  C   UNL     1      -1.572   2.250  23.152  0.00  0.00    +0.181 C 
ENDROOT
BRANCH  11   2
ATOM      2  O   UNL     1       0.695   2.033  25.970  0.00  0.00    -0.388 OA
ATOM     24  H   UNL     1       1.513   1.700  25.562  0.00  0.00    +0.210 HD
ENDBRANCH  11   2
BRANCH  12   5
ATOM      5  N   UNL     1      -1.721   3.824  25.061  0.00  0.00    -0.305 NA
ATOM     23  H   UNL     1      -1.234   4.709  25.205  0.00  0.00    +0.123 HD
BRANCH   5  16
ATOM     16  C   UNL     1      -2.962   4.082  24.340  0.00  0.00    +0.118 C 
BRANCH  16  17
ATOM      6  N   UNL     1      -5.863   3.048  26.541  0.00  0.00    -0.263 NA
ATOM     17  C   UNL     1      -4.109   3.279  24.894  0.00  0.00    -0.015 A 
ATOM     18  C   UNL     1      -4.481   2.070  24.317  0.00  0.00    +0.008 A 
ATOM     19  C   UNL     1      -4.826   3.721  25.995  0.00  0.00    +0.115 A 
ATOM     20  C   UNL     1      -5.544   1.350  24.852  0.00  0.00    +0.020 A 
ATOM     21  C   UNL     1      -6.196   1.877  25.954  0.00  0.00    +0.111 A 
ENDBRANCH  16  17
ENDBRANCH   5  16
ENDBRANCH  12   5
BRANCH  10  13
ATOM     13  C   UNL     1      -0.021  -0.689  24.413  0.00  0.00    +0.138 C 
BRANCH  13   4
ATOM      3  O   UNL     1      -1.927  -0.841  26.604  0.00  0.00    -0.276 OA
ATOM      4  N   UNL     1      -1.360  -1.200  24.371  0.00  0.00    -0.313 N 
ATOM     15  C   UNL     1      -2.202  -1.233  25.475  0.00  0.00    +0.216 C 
ATOM     22  H   UNL     1      -1.703  -1.554  23.483  0.00  0.00    +0.149 HD
BRANCH  15   7
ATOM      7  C   UNL     1      -3.553  -1.805  25.203  0.00  0.00    +0.075 C 
ATOM      8  C   UNL     1      -3.652  -3.020  24.342  0.00  0.00    +0.013 C 
ATOM      9  C   UNL     1      -4.112  -1.689  23.823  0.00  0.00    +0.013 C 
ENDBRANCH  15   7
ENDBRANCH  13   4
ENDBRANCH  10  13
TORSDOF 7
ENDMDL
MODEL 3
REMARK VINA RESULT:      -6.4      1.630      4.009
REMARK  Name = 75536546
REMARK  7 active torsions:
REMARK  status: ('A' for Active; 'I' for Inactive)
REMARK    1  A    between atoms: O_2  and  C_11
REMARK    2  A    between atoms: N_4  and  C_13
REMARK    3  A    between atoms: N_5  and  C_12
REMARK    4  A    between atoms: N_5  and  C_16
REMARK    5  A    between atoms: C_7  and  C_15
REMARK    6  A    between atoms: C_10  and  C_13
REMARK    7  A    between atoms: C_16  and  C_17
REMARK                            x       y       z     vdW  Elec       q    Type
REMARK                         _______ _______ _______ _____ _____    ______ ____
ROOT
ATOM      1  O   UNL     1      -0.953   2.970  26.556  0.00  0.00    -0.371 OA
ATOM     10  C   UNL     1      -0.781   3.812  25.403  0.00  0.00    +0.165 C 
ATOM     11  C   UNL     1      -0.635   2.871  24.214  0.00  0.00    +0.164 C 
ATOM     12  C   UNL     1       0.117   1.715  24.847  0.00  0.00    +0.111 C 
ATOM     14  C   UNL     1      -0.548   1.633  26.211  0.00  0.00    +0.181 C 
ENDROOT
BRANCH  11   2
ATOM      2  O   UNL     1       0.079   3.471  23.152  0.00  0.00    -0.388 OA
ATOM     24  H   UNL     1      -0.443   3.371  22.337  0.00  0.00    +0.210 HD
ENDBRANCH  11   2
BRANCH  12   5
ATOM      5  N   UNL     1       0.020   0.474  24.095  0.00  0.00    -0.305 NA
ATOM     23  H   UNL     1       0.938   0.244  23.713  0.00  0.00    +0.123 HD
BRANCH   5  16
ATOM     16  C   UNL     1      -0.425  -0.623  24.947  0.00  0.00    +0.118 C 
BRANCH  16  17
ATOM      6  N   UNL     1      -4.003  -0.570  23.713  0.00  0.00    -0.263 NA
ATOM     17  C   UNL     1      -1.808  -1.091  24.581  0.00  0.00    -0.015 A 
ATOM     18  C   UNL     1      -2.183  -2.419  24.753  0.00  0.00    +0.008 A 
ATOM     19  C   UNL     1      -2.746  -0.214  24.061  0.00  0.00    +0.115 A 
ATOM     20  C   UNL     1      -3.468  -2.822  24.406  0.00  0.00    +0.020 A 
ATOM     21  C   UNL     1      -4.332  -1.868  23.895  0.00  0.00    +0.111 A 
ENDBRANCH  16  17
ENDBRANCH   5  16
ENDBRANCH  12   5
BRANCH  10  13
ATOM     13  C   UNL     1      -1.963   4.758  25.278  0.00  0.00    +0.138 C 
BRANCH  13   4
ATOM      3  O   UNL     1      -4.003   3.424  23.691  0.00  0.00    -0.276 OA
ATOM      4  N   UNL     1      -3.172   4.145  25.746  0.00  0.00    -0.313 N 
ATOM     15  C   UNL     1      -4.092   3.528  24.910  0.00  0.00    +0.216 C 
ATOM     22  H   UNL     1      -3.356   4.167  26.745  0.00  0.00    +0.149 HD
BRANCH  15   7
ATOM      7  C   UNL     1      -5.278   2.955  25.612  0.00  0.00    +0.075 C 
ATOM      8  C   UNL     1      -5.303   1.488  25.886  0.00  0.00    +0.013 C 
ATOM      9  C   UNL     1      -6.206   2.075  24.841  0.00  0.00    +0.013 C 
ENDBRANCH  15   7
ENDBRANCH  13   4
ENDBRANCH  10  13
TORSDOF 7
ENDMDL
MODEL 4
REMARK VINA RESULT:      -5.9      2.968      6.371
REMARK  Name = 75536546
REMARK  7 active torsions:
REMARK  status: ('A' for Active; 'I' for Inactive)
REMARK    1  A    between atoms: O_2  and  C_11
REMARK    2  A    between atoms: N_4  and  C_13
REMARK    3  A    between atoms: N_5  and  C_12
REMARK    4  A    between atoms: N_5  and  C_16
REMARK    5  A    between atoms: C_7  and  C_15
REMARK    6  A    between atoms: C_10  and  C_13
REMARK    7  A    between atoms: C_16  and  C_17
REMARK                            x       y       z     vdW  Elec       q    Type
REMARK                         _______ _______ _______ _____ _____    ______ ____
ROOT
ATOM      1  O   UNL     1       0.017   0.704  24.983  0.00  0.00    -0.371 OA
ATOM     10  C   UNL     1       0.134  -0.499  24.204  0.00  0.00    +0.165 C 
ATOM     11  C   UNL     1      -1.267  -1.093  24.137  0.00  0.00    +0.164 C 
ATOM     12  C   UNL     1      -1.806  -0.725  25.507  0.00  0.00    +0.111 C 
ATOM     14  C   UNL     1      -1.236   0.672  25.690  0.00  0.00    +0.181 C 
ENDROOT
BRANCH  11   2
ATOM      2  O   UNL     1      -1.237  -2.491  23.920  0.00  0.00    -0.388 OA
ATOM     24  H   UNL     1      -0.733  -2.663  23.106  0.00  0.00    +0.210 HD
ENDBRANCH  11   2
BRANCH  12   5
ATOM      5  N   UNL     1      -3.258  -0.758  25.590  0.00  0.00    -0.305 NA
ATOM     23  H   UNL     1      -3.555  -0.236  26.415  0.00  0.00    +0.123 HD
BRANCH   5  16
ATOM     16  C   UNL     1      -3.866  -0.158  24.408  0.00  0.00    +0.118 C 
BRANCH  16  17
ATOM      6  N   UNL     1      -3.903   3.623  24.236  0.00  0.00    -0.263 NA
ATOM     17  C   UNL     1      -4.273   1.270  24.652  0.00  0.00    -0.015 A 
ATOM     18  C   UNL     1      -5.348   1.578  25.478  0.00  0.00    +0.008 A 
ATOM     19  C   UNL     1      -3.589   2.320  24.059  0.00  0.00    +0.115 A 
ATOM     20  C   UNL     1      -5.700   2.907  25.685  0.00  0.00    +0.020 A 
ATOM     21  C   UNL     1      -4.952   3.883  25.046  0.00  0.00    +0.111 A 
ENDBRANCH  16  17
ENDBRANCH   5  16
ENDBRANCH  12   5
BRANCH  10  13
ATOM     13  C   UNL     1       0.712  -0.172  22.838  0.00  0.00    +0.138 C 
BRANCH  13   4
ATOM      3  O   UNL     1       2.883   1.739  23.146  0.00  0.00    -0.276 OA
ATOM      4  N   UNL     1       2.122  -0.436  22.793  0.00  0.00    -0.313 N 
ATOM     15  C   UNL     1       3.090   0.546  22.952  0.00  0.00    +0.216 C 
ATOM     22  H   UNL     1       2.417  -1.395  22.638  0.00  0.00    +0.149 HD
BRANCH  15   7
ATOM      7  C   UNL     1       4.494   0.047  22.871  0.00  0.00    +0.075 C 
ATOM      8  C   UNL     1       4.967  -0.919  23.906  0.00  0.00    +0.013 C 
ATOM      9  C   UNL     1       5.470   0.494  23.909  0.00  0.00    +0.013 C 
ENDBRANCH  15   7
ENDBRANCH  13   4
ENDBRANCH  10  13
TORSDOF 7
ENDMDL
MODEL 5
REMARK VINA RESULT:      -5.2      1.830      4.631
REMARK  Name = 75536546
REMARK  7 active torsions:
REMARK  status: ('A' for Active; 'I' for Inactive)
REMARK    1  A    between atoms: O_2  and  C_11
REMARK    2  A    between atoms: N_4  and  C_13
REMARK    3  A    between atoms: N_5  and  C_12
REMARK    4  A    between atoms: N_5  and  C_16
REMARK    5  A    between atoms: C_7  and  C_15
REMARK    6  A    between atoms: C_10  and  C_13
REMARK    7  A    between atoms: C_16  and  C_17
REMARK                            x       y       z     vdW  Elec       q    Type
REMARK                         _______ _______ _______ _____ _____    ______ ____
ROOT
ATOM      1  O   UNL     1      -1.462  -2.036  23.663  0.00  0.00    -0.371 OA
ATOM     10  C   UNL     1      -1.791  -2.022  25.063  0.00  0.00    +0.165 C 
ATOM     11  C   UNL     1      -1.285  -0.690  25.600  0.00  0.00    +0.164 C 
ATOM     12  C   UNL     1      -0.030  -0.497  24.770  0.00  0.00    +0.111 C 
ATOM     14  C   UNL     1      -0.485  -1.010  23.413  0.00  0.00    +0.181 C 
ENDROOT
BRANCH  11   2
ATOM      2  O   UNL     1      -1.018  -0.747  26.987  0.00  0.00    -0.388 OA
ATOM     24  H   UNL     1      -1.794  -0.402  27.462  0.00  0.00    +0.210 HD
ENDBRANCH  11   2
BRANCH  12   5
ATOM      5  N   UNL     1       0.436   0.880  24.726  0.00  0.00    -0.305 NA
ATOM     23  H   UNL     1       1.411   0.891  24.426  0.00  0.00    +0.123 HD
BRANCH   5  16
ATOM     16  C   UNL     1      -0.354   1.672  23.792  0.00  0.00    +0.118 C 
BRANCH  16  17
ATOM      6  N   UNL     1      -2.433   3.919  26.019  0.00  0.00    -0.263 NA
ATOM     17  C   UNL     1      -0.904   2.916  24.437  0.00  0.00    -0.015 A 
ATOM     18  C   UNL     1      -0.431   4.175  24.084  0.00  0.00    +0.008 A 
ATOM     19  C   UNL     1      -1.896   2.842  25.402  0.00  0.00    +0.115 A 
ATOM     20  C   UNL     1      -0.959   5.306  24.697  0.00  0.00    +0.020 A 
ATOM     21  C   UNL     1      -1.949   5.125  25.650  0.00  0.00    +0.111 A 
ENDBRANCH  16  17
ENDBRANCH   5  16
ENDBRANCH  12   5
BRANCH  10  13
ATOM     13  C   UNL     1      -3.288  -2.210  25.240  0.00  0.00    +0.138 C 
BRANCH  13   4
ATOM      3  O   UNL     1      -4.020   0.030  23.536  0.00  0.00    -0.276 OA
ATOM      4  N   UNL     1      -3.924  -0.986  25.631  0.00  0.00    -0.313 N 
ATOM     15  C   UNL     1      -4.238   0.033  24.742  0.00  0.00    +0.216 C 
ATOM     22  H   UNL     1      -4.156  -0.868  26.613  0.00  0.00    +0.149 HD
BRANCH  15   7
ATOM      7  C   UNL     1      -4.899   1.216  25.368  0.00  0.00    +0.075 C 
ATOM      8  C   UNL     1      -6.299   1.543  24.966  0.00  0.00    +0.013 C 
ATOM      9  C   UNL     1      -5.163   2.416  24.519  0.00  0.00    +0.013 C 
ENDBRANCH  15   7
ENDBRANCH  13   4
ENDBRANCH  10  13
TORSDOF 7
ENDMDL
MODEL 6
REMARK VINA RESULT:      -5.0      2.749      4.825
REMARK  Name = 75536546
REMARK  7 active torsions:
REMARK  status: ('A' for Active; 'I' for Inactive)
REMARK    1  A    between atoms: O_2  and  C_11
REMARK    2  A    between atoms: N_4  and  C_13
REMARK    3  A    between atoms: N_5  and  C_12
REMARK    4  A    between atoms: N_5  and  C_16
REMARK    5  A    between atoms: C_7  and  C_15
REMARK    6  A    between atoms: C_10  and  C_13
REMARK    7  A    between atoms: C_16  and  C_17
REMARK                            x       y       z     vdW  Elec       q    Type
REMARK                         _______ _______ _______ _____ _____    ______ ____
ROOT
ATOM      1  O   UNL     1      -2.056  -1.777  24.276  0.00  0.00    -0.371 OA
ATOM     10  C   UNL     1      -2.220  -0.820  25.336  0.00  0.00    +0.165 C 
ATOM     11  C   UNL     1      -1.294   0.342  24.999  0.00  0.00    +0.164 C 
ATOM     12  C   UNL     1      -0.131  -0.389  24.355  0.00  0.00    +0.111 C 
ATOM     14  C   UNL     1      -0.855  -1.459  23.553  0.00  0.00    +0.181 C 
ENDROOT
BRANCH  11   2
ATOM      2  O   UNL     1      -0.913   1.064  26.153  0.00  0.00    -0.388 OA
ATOM     24  H   UNL     1      -0.804   0.434  26.886  0.00  0.00    +0.210 HD
ENDBRANCH  11   2
BRANCH  12   5
ATOM      5  N   UNL     1       0.709   0.465  23.529  0.00  0.00    -0.305 NA
ATOM     23  H   UNL     1       1.310   1.024  24.134  0.00  0.00    +0.123 HD
BRANCH   5  16
ATOM     16  C   UNL     1       1.546  -0.328  22.636  0.00  0.00    +0.118 C 
BRANCH  16  17
ATOM      6  N   UNL     1       4.907  -1.383  24.022  0.00  0.00    -0.263 NA
ATOM     17  C   UNL     1       2.997  -0.277  23.036  0.00  0.00    -0.015 A 
ATOM     18  C   UNL     1       3.762   0.862  22.812  0.00  0.00    +0.008 A 
ATOM     19  C   UNL     1       3.611  -1.364  23.639  0.00  0.00    +0.115 A 
ATOM     20  C   UNL     1       5.099   0.879  23.193  0.00  0.00    +0.020 A 
ATOM     21  C   UNL     1       5.619  -0.258  23.789  0.00  0.00    +0.111 A 
ENDBRANCH  16  17
ENDBRANCH   5  16
ENDBRANCH  12   5
BRANCH  10  13
ATOM     13  C   UNL     1      -3.679  -0.413  25.440  0.00  0.00    +0.138 C 
BRANCH  13   4
ATOM      3  O   UNL     1      -5.943   1.314  26.032  0.00  0.00    -0.276 OA
ATOM      4  N   UNL     1      -3.871   0.948  25.029  0.00  0.00    -0.313 N 
ATOM     15  C   UNL     1      -4.991   1.698  25.361  0.00  0.00    +0.216 C 
ATOM     22  H   UNL     1      -3.143   1.377  24.466  0.00  0.00    +0.149 HD
BRANCH  15   7
ATOM      7  C   UNL     1      -4.981   3.091  24.828  0.00  0.00    +0.075 C 
ATOM      8  C   UNL     1      -3.883   3.490  23.899  0.00  0.00    +0.013 C 
ATOM      9  C   UNL     1      -3.916   4.026  25.300  0.00  0.00    +0.013 C 
ENDBRANCH  15   7
ENDBRANCH  13   4
ENDBRANCH  10  13
TORSDOF 7
ENDMDL
MODEL 7
REMARK VINA RESULT:      -4.7      1.650      4.520
REMARK  Name = 75536546
REMARK  7 active torsions:
REMARK  status: ('A' for Active; 'I' for Inactive)
REMARK    1  A    between atoms: O_2  and  C_11
REMARK    2  A    between atoms: N_4  and  C_13
REMARK    3  A    between atoms: N_5  and  C_12
REMARK    4  A    between atoms: N_5  and  C_16
REMARK    5  A    between atoms: C_7  and  C_15
REMARK    6  A    between atoms: C_10  and  C_13
REMARK    7  A    between atoms: C_16  and  C_17
REMARK                            x       y       z     vdW  Elec       q    Type
REMARK                         _______ _______ _______ _____ _____    ______ ____
ROOT
ATOM      1  O   UNL     1      -2.975  -2.630  23.960  0.00  0.00    -0.371 OA
ATOM     10  C   UNL     1      -3.452  -1.708  24.955  0.00  0.00    +0.165 C 
ATOM     11  C   UNL     1      -2.279  -0.789  25.271  0.00  0.00    +0.164 C 
ATOM     12  C   UNL     1      -1.112  -1.749  25.139  0.00  0.00    +0.111 C 
ATOM     14  C   UNL     1      -1.538  -2.579  23.938  0.00  0.00    +0.181 C 
ENDROOT
BRANCH  11   2
ATOM      2  O   UNL     1      -2.382  -0.230  26.566  0.00  0.00    -0.388 OA
ATOM     24  H   UNL     1      -3.302   0.051  26.705  0.00  0.00    +0.210 HD
ENDBRANCH  11   2
BRANCH  12   5
ATOM      5  N   UNL     1       0.168  -1.087  24.943  0.00  0.00    -0.305 NA
ATOM     23  H   UNL     1       0.886  -1.794  24.778  0.00  0.00    +0.123 HD
BRANCH   5  16
ATOM     16  C   UNL     1       0.124  -0.186  23.797  0.00  0.00    +0.118 C 
BRANCH  16  17
ATOM      6  N   UNL     1      -1.425   3.267  23.724  0.00  0.00    -0.263 NA
ATOM     17  C   UNL     1      -0.233   1.219  24.203  0.00  0.00    -0.015 A 
ATOM     18  C   UNL     1       0.263   1.772  25.377  0.00  0.00    +0.008 A 
ATOM     19  C   UNL     1      -1.066   2.000  23.418  0.00  0.00    +0.115 A 
ATOM     20  C   UNL     1      -0.084   3.074  25.725  0.00  0.00    +0.020 A 
ATOM     21  C   UNL     1      -0.923   3.772  24.873  0.00  0.00    +0.111 A 
ENDBRANCH  16  17
ENDBRANCH   5  16
ENDBRANCH  12   5
BRANCH  10  13
ATOM     13  C   UNL     1      -4.669  -0.968  24.428  0.00  0.00    +0.138 C 
BRANCH  13   4
ATOM      3  O   UNL     1      -6.068   1.168  25.821  0.00  0.00    -0.276 OA
ATOM      4  N   UNL     1      -4.422   0.442  24.338  0.00  0.00    -0.313 N 
ATOM     15  C   UNL     1      -5.145   1.393  25.045  0.00  0.00    +0.216 C 
ATOM     22  H   UNL     1      -3.675   0.752  23.723  0.00  0.00    +0.149 HD
BRANCH  15   7
ATOM      7  C   UNL     1      -4.716   2.801  24.801  0.00  0.00    +0.075 C 
ATOM      8  C   UNL     1      -4.127   3.573  25.935  0.00  0.00    +0.013 C 
ATOM      9  C   UNL     1      -5.500   3.905  25.431  0.00  0.00    +0.013 C 
ENDBRANCH  15   7
ENDBRANCH  13   4
ENDBRANCH  10  13
TORSDOF 7
ENDMDL
MODEL 8
REMARK VINA RESULT:      -4.6      1.996      5.820
REMARK  Name = 75536546
REMARK  7 active torsions:
REMARK  status: ('A' for Active; 'I' for Inactive)
REMARK    1  A    between atoms: O_2  and  C_11
REMARK    2  A    between atoms: N_4  and  C_13
REMARK    3  A    between atoms: N_5  and  C_12
REMARK    4  A    between atoms: N_5  and  C_16
REMARK    5  A    between atoms: C_7  and  C_15
REMARK    6  A    between atoms: C_10  and  C_13
REMARK    7  A    between atoms: C_16  and  C_17
REMARK                            x       y       z     vdW  Elec       q    Type
REMARK                         _______ _______ _______ _____ _____    ______ ____
ROOT
ATOM      1  O   UNL     1      -0.809  -0.463  26.054  0.00  0.00    -0.371 OA
ATOM     10  C   UNL     1      -0.581  -1.309  24.914  0.00  0.00    +0.165 C 
ATOM     11  C   UNL     1      -1.950  -1.562  24.297  0.00  0.00    +0.164 C 
ATOM     12  C   UNL     1      -2.824  -1.608  25.536  0.00  0.00    +0.111 C 
ATOM     14  C   UNL     1      -2.209  -0.504  26.381  0.00  0.00    +0.181 C 
ENDROOT
BRANCH  11   2
ATOM      2  O   UNL     1      -1.982  -2.769  23.561  0.00  0.00    -0.388 OA
ATOM     24  H   UNL     1      -1.272  -2.741  22.897  0.00  0.00    +0.210 HD
ENDBRANCH  11   2
BRANCH  12   5
ATOM      5  N   UNL     1      -4.236  -1.391  25.263  0.00  0.00    -0.305 NA
ATOM     23  H   UNL     1      -4.685  -1.024  26.103  0.00  0.00    +0.123 HD
BRANCH   5  16
ATOM     16  C   UNL     1      -4.420  -0.436  24.176  0.00  0.00    +0.118 C 
BRANCH  16  17
ATOM      6  N   UNL     1      -5.968   2.361  26.203  0.00  0.00    -0.263 NA
ATOM     17  C   UNL     1      -4.722   0.946  24.689  0.00  0.00    -0.015 A 
ATOM     18  C   UNL     1      -4.077   2.061  24.166  0.00  0.00    +0.008 A 
ATOM     19  C   UNL     1      -5.650   1.147  25.698  0.00  0.00    +0.115 A 
ATOM     20  C   UNL     1      -4.377   3.326  24.660  0.00  0.00    +0.020 A 
ATOM     21  C   UNL     1      -5.321   3.421  25.669  0.00  0.00    +0.111 A 
ENDBRANCH  16  17
ENDBRANCH   5  16
ENDBRANCH  12   5
BRANCH  10  13
ATOM     13  C   UNL     1       0.391  -0.636  23.961  0.00  0.00    +0.138 C 
BRANCH  13   4
ATOM      3  O   UNL     1      -1.302   1.590  23.162  0.00  0.00    -0.276 OA
ATOM      4  N   UNL     1       0.561   0.752  24.285  0.00  0.00    -0.313 N 
ATOM     15  C   UNL     1      -0.304   1.750  23.856  0.00  0.00    +0.216 C 
ATOM     22  H   UNL     1       1.357   1.008  24.861  0.00  0.00    +0.149 HD
BRANCH  15   7
ATOM      7  C   UNL     1       0.062   3.122  24.313  0.00  0.00    +0.075 C 
ATOM      8  C   UNL     1      -0.479   3.607  25.617  0.00  0.00    +0.013 C 
ATOM      9  C   UNL     1      -0.996   4.174  24.329  0.00  0.00    +0.013 C 
ENDBRANCH  15   7
ENDBRANCH  13   4
ENDBRANCH  10  13
TORSDOF 7
ENDMDL
MODEL 9
REMARK VINA RESULT:      -4.6      1.948      4.676
REMARK  Name = 75536546
REMARK  7 active torsions:
REMARK  status: ('A' for Active; 'I' for Inactive)
REMARK    1  A    between atoms: O_2  and  C_11
REMARK    2  A    between atoms: N_4  and  C_13
REMARK    3  A    between atoms: N_5  and  C_12
REMARK    4  A    between atoms: N_5  and  C_16
REMARK    5  A    between atoms: C_7  and  C_15
REMARK    6  A    between atoms: C_10  and  C_13
REMARK    7  A    between atoms: C_16  and  C_17
REMARK                            x       y       z     vdW  Elec       q    Type
REMARK                         _______ _______ _______ _____ _____    ______ ____
ROOT
ATOM      1  O   UNL     1      -1.506   2.387  23.247  0.00  0.00    -0.371 OA
ATOM     10  C   UNL     1      -1.437   3.068  24.512  0.00  0.00    +0.165 C 
ATOM     11  C   UNL     1      -2.760   2.788  25.212  0.00  0.00    +0.164 C 
ATOM     12  C   UNL     1      -3.716   2.764  24.033  0.00  0.00    +0.111 C 
ATOM     14  C   UNL     1      -2.880   2.051  22.982  0.00  0.00    +0.181 C 
ENDROOT
BRANCH  11   2
ATOM      2  O   UNL     1      -3.082   3.792  26.154  0.00  0.00    -0.388 OA
ATOM     24  H   UNL     1      -2.430   3.754  26.875  0.00  0.00    +0.210 HD
ENDBRANCH  11   2
BRANCH  12   5
ATOM      5  N   UNL     1      -4.971   2.085  24.313  0.00  0.00    -0.305 NA
ATOM     23  H   UNL     1      -5.239   1.534  23.497  0.00  0.00    +0.123 HD
BRANCH   5  16
ATOM     16  C   UNL     1      -4.842   1.194  25.460  0.00  0.00    +0.118 C 
BRANCH  16  17
ATOM      6  N   UNL     1      -2.441  -1.732  25.422  0.00  0.00    -0.263 NA
ATOM     17  C   UNL     1      -4.209  -0.118  25.083  0.00  0.00    -0.015 A 
ATOM     18  C   UNL     1      -4.761  -0.920  24.090  0.00  0.00    +0.008 A 
ATOM     19  C   UNL     1      -3.059  -0.565  25.714  0.00  0.00    +0.115 A 
ATOM     20  C   UNL     1      -4.153  -2.127  23.763  0.00  0.00    +0.020 A 
ATOM     21  C   UNL     1      -3.005  -2.484  24.452  0.00  0.00    +0.111 A 
ENDBRANCH  16  17
ENDBRANCH   5  16
ENDBRANCH  12   5
BRANCH  10  13
ATOM     13  C   UNL     1      -0.230   2.579  25.293  0.00  0.00    +0.138 C 
BRANCH  13   4
ATOM      3  O   UNL     1       0.252  -0.024  24.087  0.00  0.00    -0.276 OA
ATOM      4  N   UNL     1       0.842   2.207  24.415  0.00  0.00    -0.313 N 
ATOM     15  C   UNL     1       0.991   0.933  23.885  0.00  0.00    +0.216 C 
ATOM     22  H   UNL     1       1.522   2.921  24.173  0.00  0.00    +0.149 HD
BRANCH  15   7
ATOM      7  C   UNL     1       2.177   0.770  22.994  0.00  0.00    +0.075 C 
ATOM      8  C   UNL     1       2.096  -0.210  21.871  0.00  0.00    +0.013 C 
ATOM      9  C   UNL     1       2.954  -0.503  23.066  0.00  0.00    +0.013 C 
ENDBRANCH  15   7
ENDBRANCH  13   4
ENDBRANCH  10  13
TORSDOF 7
ENDMDL
MODEL 10
REMARK VINA RESULT:      -4.0      2.344      4.804
REMARK  Name = 75536546
REMARK  7 active torsions:
REMARK  status: ('A' for Active; 'I' for Inactive)
REMARK    1  A    between atoms: O_2  and  C_11
REMARK    2  A    between atoms: N_4  and  C_13
REMARK    3  A    between atoms: N_5  and  C_12
REMARK    4  A    between atoms: N_5  and  C_16
REMARK    5  A    between atoms: C_7  and  C_15
REMARK    6  A    between atoms: C_10  and  C_13
REMARK    7  A    between atoms: C_16  and  C_17
REMARK                            x       y       z     vdW  Elec       q    Type
REMARK                         _______ _______ _______ _____ _____    ______ ____
ROOT
ATOM      1  O   UNL     1      -3.047  -1.941  24.382  0.00  0.00    -0.371 OA
ATOM     10  C   UNL     1      -3.018  -0.605  24.913  0.00  0.00    +0.165 C 
ATOM     11  C   UNL     1      -1.564  -0.158  24.848  0.00  0.00    +0.164 C 
ATOM     12  C   UNL     1      -0.844  -1.464  25.131  0.00  0.00    +0.111 C 
ATOM     14  C   UNL     1      -1.703  -2.454  24.362  0.00  0.00    +0.181 C 
ENDROOT
BRANCH  11   2
ATOM      2  O   UNL     1      -1.276   0.842  25.804  0.00  0.00    -0.388 OA
ATOM     24  H   UNL     1      -1.639   0.560  26.661  0.00  0.00    +0.210 HD
ENDBRANCH  11   2
BRANCH  12   5
ATOM      5  N   UNL     1       0.546  -1.469  24.701  0.00  0.00    -0.305 NA
ATOM     23  H   UNL     1       0.796  -2.410  24.396  0.00  0.00    +0.123 HD
BRANCH   5  16
ATOM     16  C   UNL     1       0.757  -0.543  23.594  0.00  0.00    +0.118 C 
BRANCH  16  17
ATOM      6  N   UNL     1       3.913   1.365  22.741  0.00  0.00    -0.263 NA
ATOM     17  C   UNL     1       2.216  -0.225  23.400  0.00  0.00    -0.015 A 
ATOM     18  C   UNL     1       3.197  -1.169  23.679  0.00  0.00    +0.008 A 
ATOM     19  C   UNL     1       2.622   1.017  22.938  0.00  0.00    +0.115 A 
ATOM     20  C   UNL     1       4.537  -0.847  23.489  0.00  0.00    +0.020 A 
ATOM     21  C   UNL     1       4.839   0.422  23.023  0.00  0.00    +0.111 A 
ENDBRANCH  16  17
ENDBRANCH   5  16
ENDBRANCH  12   5
BRANCH  10  13
ATOM     13  C   UNL     1      -3.956   0.284  24.116  0.00  0.00    +0.138 C 
BRANCH  13   4
ATOM      3  O   UNL     1      -5.362   2.245  25.739  0.00  0.00    -0.276 OA
ATOM      4  N   UNL     1      -3.630   1.671  24.288  0.00  0.00    -0.313 N 
ATOM     15  C   UNL     1      -4.364   2.536  25.089  0.00  0.00    +0.216 C 
ATOM     22  H   UNL     1      -2.817   2.029  23.796  0.00  0.00    +0.149 HD
BRANCH  15   7
ATOM      7  C   UNL     1      -3.844   3.934  25.124  0.00  0.00    +0.075 C 
ATOM      8  C   UNL     1      -2.387   4.158  24.889  0.00  0.00    +0.013 C 
ATOM      9  C   UNL     1      -2.965   4.339  26.261  0.00  0.00    +0.013 C 
ENDBRANCH  15   7
ENDBRANCH  13   4
ENDBRANCH  10  13
TORSDOF 7
ENDMDL
