MODEL 1
REMARK VINA RESULT:      -3.6      0.000      0.000
REMARK  Name = 45783477
REMARK  9 active torsions:
REMARK  status: ('A' for Active; 'I' for Inactive)
REMARK    1  A    between atoms: O_3  and  C_28
REMARK    2  A    between atoms: O_3  and  C_29
REMARK    3  A    between atoms: N_4  and  C_13
REMARK    4  A    between atoms: N_8  and  C_26
REMARK    5  A    between atoms: N_8  and  C_27
REMARK    6  A    between atoms: C_9  and  C_14
REMARK    7  A    between atoms: C_13  and  C_15
REMARK    8  A    between atoms: C_18  and  C_21
REMARK    9  A    between atoms: C_27  and  C_28
REMARK                            x       y       z     vdW  Elec       q    Type
REMARK                         _______ _______ _______ _____ _____    ______ ____
ROOT
ATOM      2  O   UNL     1      -2.011   2.784  25.397  0.00  0.00    -0.336 OA
ATOM      5  N   UNL     1      -1.805   1.553  23.537  0.00  0.00    -0.190 NA
ATOM      6  N   UNL     1      -0.638   2.563  25.227  0.00  0.00    -0.056 NA
ATOM     14  C   UNL     1      -2.624   2.156  24.360  0.00  0.00    +0.245 A 
ATOM     18  C   UNL     1      -0.598   1.830  24.110  0.00  0.00    +0.204 A 
ENDROOT
BRANCH  18  21
ATOM      7  N   UNL     1       2.971   1.745  23.068  0.00  0.00    -0.240 NA
ATOM     21  C   UNL     1       0.633   1.358  23.543  0.00  0.00    +0.041 A 
ATOM     23  C   UNL     1       0.708   0.110  22.934  0.00  0.00    +0.016 A 
ATOM     24  C   UNL     1       1.782   2.130  23.584  0.00  0.00    +0.124 A 
ATOM     25  C   UNL     1       1.914  -0.321  22.392  0.00  0.00    +0.044 A 
ATOM     26  C   UNL     1       3.006   0.526  22.484  0.00  0.00    +0.119 A 
BRANCH  26   8
ATOM      8  N   UNL     1       4.228   0.073  21.928  0.00  0.00    -0.327 N 
ATOM     30  H   UNL     1       4.174  -0.371  21.019  0.00  0.00    +0.148 HD
BRANCH   8  27
ATOM     27  C   UNL     1       5.480   0.218  22.597  0.00  0.00    +0.131 C 
BRANCH  27  28
ATOM     28  C   UNL     1       5.262   0.301  24.098  0.00  0.00    +0.178 C 
BRANCH  28   3
ATOM      3  O   UNL     1       5.521  -0.969  24.684  0.00  0.00    -0.381 OA
ATOM     29  C   UNL     1       4.791  -2.001  24.034  0.00  0.00    +0.194 C 
ENDBRANCH  28   3
ENDBRANCH  27  28
ENDBRANCH   8  27
ENDBRANCH  26   8
ENDBRANCH  18  21
BRANCH  14   9
ATOM      4  N   UNL     1      -4.787   1.408  25.339  0.00  0.00    -0.287 NA
ATOM      9  C   UNL     1      -4.136   2.249  24.314  0.00  0.00    +0.146 C 
ATOM     10  C   UNL     1      -4.653   3.673  24.591  0.00  0.00    +0.030 C 
ATOM     11  C   UNL     1      -5.633   3.523  25.745  0.00  0.00    +0.017 C 
ATOM     12  C   UNL     1      -6.049   2.067  25.673  0.00  0.00    +0.085 C 
BRANCH   4  13
ATOM     13  C   UNL     1      -4.985   0.030  24.909  0.00  0.00    +0.123 C 
BRANCH  13  15
ATOM      1  F   UNL     1      -4.373  -2.108  23.156  0.00  0.00    -0.205 F 
ATOM     15  C   UNL     1      -3.718  -0.777  25.009  0.00  0.00    +0.002 A 
ATOM     16  C   UNL     1      -3.479  -1.818  24.111  0.00  0.00    +0.128 A 
ATOM     17  C   UNL     1      -2.782  -0.481  25.999  0.00  0.00    +0.008 A 
ATOM     19  C   UNL     1      -2.304  -2.564  24.206  0.00  0.00    +0.038 A 
ATOM     20  C   UNL     1      -1.607  -1.226  26.094  0.00  0.00    +0.000 A 
ATOM     22  C   UNL     1      -1.368  -2.268  25.197  0.00  0.00    +0.003 A 
ENDBRANCH  13  15
ENDBRANCH   4  13
ENDBRANCH  14   9
TORSDOF 8
ENDMDL
MODEL 2
REMARK VINA RESULT:      -2.7     13.992     15.477
REMARK  Name = 45783477
REMARK  9 active torsions:
REMARK  status: ('A' for Active; 'I' for Inactive)
REMARK    1  A    between atoms: O_3  and  C_28
REMARK    2  A    between atoms: O_3  and  C_29
REMARK    3  A    between atoms: N_4  and  C_13
REMARK    4  A    between atoms: N_8  and  C_26
REMARK    5  A    between atoms: N_8  and  C_27
REMARK    6  A    between atoms: C_9  and  C_14
REMARK    7  A    between atoms: C_13  and  C_15
REMARK    8  A    between atoms: C_18  and  C_21
REMARK    9  A    between atoms: C_27  and  C_28
REMARK                            x       y       z     vdW  Elec       q    Type
REMARK                         _______ _______ _______ _____ _____    ______ ____
ROOT
ATOM      2  O   UNL     1      -7.887  -8.923  11.397  0.00  0.00    -0.336 OA
ATOM      5  N   UNL     1      -6.529  -9.812  12.941  0.00  0.00    -0.190 NA
ATOM      6  N   UNL     1      -6.593  -8.852  10.865  0.00  0.00    -0.056 NA
ATOM     14  C   UNL     1      -7.759  -9.500  12.620  0.00  0.00    +0.245 A 
ATOM     18  C   UNL     1      -5.850  -9.395  11.833  0.00  0.00    +0.204 A 
ENDROOT
BRANCH  18  21
ATOM      7  N   UNL     1      -2.425  -9.326  10.383  0.00  0.00    -0.240 NA
ATOM     21  C   UNL     1      -4.426  -9.535  11.724  0.00  0.00    +0.041 A 
ATOM     23  C   UNL     1      -3.668  -9.993  12.797  0.00  0.00    +0.016 A 
ATOM     24  C   UNL     1      -3.763  -9.218  10.551  0.00  0.00    +0.124 A 
ATOM     25  C   UNL     1      -2.290 -10.118  12.663  0.00  0.00    +0.044 A 
ATOM     26  C   UNL     1      -1.721  -9.775  11.447  0.00  0.00    +0.119 A 
BRANCH  26   8
ATOM      8  N   UNL     1      -0.316  -9.907  11.326  0.00  0.00    -0.327 N 
ATOM     30  H   UNL     1       0.095 -10.743  11.725  0.00  0.00    +0.148 HD
BRANCH   8  27
ATOM     27  C   UNL     1       0.498  -8.926  10.686  0.00  0.00    +0.131 C 
BRANCH  27  28
ATOM     28  C   UNL     1       0.877  -7.838  11.675  0.00  0.00    +0.178 C 
BRANCH  28   3
ATOM      3  O   UNL     1       2.251  -7.510  11.514  0.00  0.00    -0.381 OA
ATOM     29  C   UNL     1       2.648  -6.475  12.404  0.00  0.00    +0.194 C 
ENDBRANCH  28   3
ENDBRANCH  27  28
ENDBRANCH   8  27
ENDBRANCH  26   8
ENDBRANCH  18  21
BRANCH  14   9
ATOM      4  N   UNL     1      -8.829  -9.548  14.866  0.00  0.00    -0.287 NA
ATOM      9  C   UNL     1      -9.036  -9.693  13.412  0.00  0.00    +0.146 C 
ATOM     10  C   UNL     1     -10.114  -8.650  13.065  0.00  0.00    +0.030 C 
ATOM     11  C   UNL     1     -10.494  -8.013  14.394  0.00  0.00    +0.017 C 
ATOM     12  C   UNL     1     -10.091  -9.057  15.417  0.00  0.00    +0.085 C 
BRANCH   4  13
ATOM     13  C   UNL     1      -8.393 -10.781  15.510  0.00  0.00    +0.123 C 
BRANCH  13  15
ATOM      1  F   UNL     1      -9.116 -10.546  18.239  0.00  0.00    -0.205 F 
ATOM     15  C   UNL     1      -7.393 -10.520  16.605  0.00  0.00    +0.002 A 
ATOM     16  C   UNL     1      -7.818 -10.416  17.930  0.00  0.00    +0.128 A 
ATOM     17  C   UNL     1      -6.041 -10.383  16.294  0.00  0.00    +0.008 A 
ATOM     19  C   UNL     1      -6.890 -10.173  18.942  0.00  0.00    +0.038 A 
ATOM     20  C   UNL     1      -5.112 -10.141  17.305  0.00  0.00    +0.000 A 
ATOM     22  C   UNL     1      -5.537 -10.036  18.630  0.00  0.00    +0.003 A 
ENDBRANCH  13  15
ENDBRANCH   4  13
ENDBRANCH  14   9
TORSDOF 8
ENDMDL
MODEL 3
REMARK VINA RESULT:      -2.1      1.016      1.495
REMARK  Name = 45783477
REMARK  9 active torsions:
REMARK  status: ('A' for Active; 'I' for Inactive)
REMARK    1  A    between atoms: O_3  and  C_28
REMARK    2  A    between atoms: O_3  and  C_29
REMARK    3  A    between atoms: N_4  and  C_13
REMARK    4  A    between atoms: N_8  and  C_26
REMARK    5  A    between atoms: N_8  and  C_27
REMARK    6  A    between atoms: C_9  and  C_14
REMARK    7  A    between atoms: C_13  and  C_15
REMARK    8  A    between atoms: C_18  and  C_21
REMARK    9  A    between atoms: C_27  and  C_28
REMARK                            x       y       z     vdW  Elec       q    Type
REMARK                         _______ _______ _______ _____ _____    ______ ____
ROOT
ATOM      2  O   UNL     1      -2.183   2.868  25.548  0.00  0.00    -0.336 OA
ATOM      5  N   UNL     1      -2.091   1.631  23.682  0.00  0.00    -0.190 NA
ATOM      6  N   UNL     1      -0.829   2.569  25.344  0.00  0.00    -0.056 NA
ATOM     14  C   UNL     1      -2.855   2.278  24.525  0.00  0.00    +0.245 A 
ATOM     18  C   UNL     1      -0.857   1.838  24.226  0.00  0.00    +0.204 A 
ENDROOT
BRANCH  18  21
ATOM      7  N   UNL     1       2.697   1.511  23.180  0.00  0.00    -0.240 NA
ATOM     21  C   UNL     1       0.331   1.300  23.628  0.00  0.00    +0.041 A 
ATOM     23  C   UNL     1       0.301   0.093  22.937  0.00  0.00    +0.016 A 
ATOM     24  C   UNL     1       1.543   1.964  23.721  0.00  0.00    +0.124 A 
ATOM     25  C   UNL     1       1.467  -0.405  22.368  0.00  0.00    +0.044 A 
ATOM     26  C   UNL     1       2.629   0.335  22.516  0.00  0.00    +0.119 A 
BRANCH  26   8
ATOM      8  N   UNL     1       3.810  -0.186  21.932  0.00  0.00    -0.327 N 
ATOM     30  H   UNL     1       3.721  -0.569  20.998  0.00  0.00    +0.148 HD
BRANCH   8  27
ATOM     27  C   UNL     1       5.067  -0.186  22.605  0.00  0.00    +0.131 C 
BRANCH  27  28
ATOM     28  C   UNL     1       5.046  -1.184  23.749  0.00  0.00    +0.178 C 
BRANCH  28   3
ATOM      3  O   UNL     1       5.544  -0.563  24.928  0.00  0.00    -0.381 OA
ATOM     29  C   UNL     1       5.837   0.811  24.709  0.00  0.00    +0.194 C 
ENDBRANCH  28   3
ENDBRANCH  27  28
ENDBRANCH   8  27
ENDBRANCH  26   8
ENDBRANCH  18  21
BRANCH  14   9
ATOM      4  N   UNL     1      -5.069   1.320  25.137  0.00  0.00    -0.287 NA
ATOM      9  C   UNL     1      -4.359   2.456  24.516  0.00  0.00    +0.146 C 
ATOM     10  C   UNL     1      -4.818   3.688  25.318  0.00  0.00    +0.030 C 
ATOM     11  C   UNL     1      -5.827   3.155  26.324  0.00  0.00    +0.017 C 
ATOM     12  C   UNL     1      -6.307   1.861  25.697  0.00  0.00    +0.085 C 
BRANCH   4  13
ATOM     13  C   UNL     1      -5.320   0.224  24.210  0.00  0.00    +0.123 C 
BRANCH  13  15
ATOM      1  F   UNL     1      -3.595   0.065  26.450  0.00  0.00    -0.205 F 
ATOM     15  C   UNL     1      -4.401  -0.943  24.458  0.00  0.00    +0.002 A 
ATOM     16  C   UNL     1      -3.577  -0.957  25.583  0.00  0.00    +0.128 A 
ATOM     17  C   UNL     1      -4.376  -2.011  23.562  0.00  0.00    +0.008 A 
ATOM     19  C   UNL     1      -2.727  -2.039  25.811  0.00  0.00    +0.038 A 
ATOM     20  C   UNL     1      -3.527  -3.093  23.788  0.00  0.00    +0.000 A 
ATOM     22  C   UNL     1      -2.701  -3.107  24.914  0.00  0.00    +0.003 A 
ENDBRANCH  13  15
ENDBRANCH   4  13
ENDBRANCH  14   9
TORSDOF 8
ENDMDL
MODEL 4
REMARK VINA RESULT:      -0.7     14.553     16.063
REMARK  Name = 45783477
REMARK  9 active torsions:
REMARK  status: ('A' for Active; 'I' for Inactive)
REMARK    1  A    between atoms: O_3  and  C_28
REMARK    2  A    between atoms: O_3  and  C_29
REMARK    3  A    between atoms: N_4  and  C_13
REMARK    4  A    between atoms: N_8  and  C_26
REMARK    5  A    between atoms: N_8  and  C_27
REMARK    6  A    between atoms: C_9  and  C_14
REMARK    7  A    between atoms: C_13  and  C_15
REMARK    8  A    between atoms: C_18  and  C_21
REMARK    9  A    between atoms: C_27  and  C_28
REMARK                            x       y       z     vdW  Elec       q    Type
REMARK                         _______ _______ _______ _____ _____    ______ ____
ROOT
ATOM      2  O   UNL     1      -6.856 -10.769  10.400  0.00  0.00    -0.336 OA
ATOM      5  N   UNL     1      -5.788 -10.068  12.240  0.00  0.00    -0.190 NA
ATOM      6  N   UNL     1      -5.508 -10.639  10.042  0.00  0.00    -0.056 NA
ATOM     14  C   UNL     1      -6.934 -10.414  11.709  0.00  0.00    +0.245 A 
ATOM     18  C   UNL     1      -4.944 -10.222  11.179  0.00  0.00    +0.204 A 
ENDROOT
BRANCH  18  21
ATOM      7  N   UNL     1      -1.584  -8.811  10.438  0.00  0.00    -0.240 NA
ATOM     21  C   UNL     1      -3.539  -9.950  11.288  0.00  0.00    +0.041 A 
ATOM     23  C   UNL     1      -2.775 -10.523  12.298  0.00  0.00    +0.016 A 
ATOM     24  C   UNL     1      -2.902  -9.108  10.391  0.00  0.00    +0.124 A 
ATOM     25  C   UNL     1      -1.416 -10.242  12.379  0.00  0.00    +0.044 A 
ATOM     26  C   UNL     1      -0.873  -9.387  11.433  0.00  0.00    +0.119 A 
BRANCH  26   8
ATOM      8  N   UNL     1       0.513  -9.109  11.529  0.00  0.00    -0.327 N 
ATOM     30  H   UNL     1       1.024  -9.602  12.252  0.00  0.00    +0.148 HD
BRANCH   8  27
ATOM     27  C   UNL     1       1.174  -8.184  10.668  0.00  0.00    +0.131 C 
BRANCH  27  28
ATOM     28  C   UNL     1       2.476  -7.724  11.300  0.00  0.00    +0.178 C 
BRANCH  28   3
ATOM      3  O   UNL     1       2.192  -6.974  12.475  0.00  0.00    -0.381 OA
ATOM     29  C   UNL     1       1.791  -5.647  12.163  0.00  0.00    +0.194 C 
ENDBRANCH  28   3
ENDBRANCH  27  28
ENDBRANCH   8  27
ENDBRANCH  26   8
ENDBRANCH  18  21
BRANCH  14   9
ATOM      4  N   UNL     1      -8.366  -9.760  13.636  0.00  0.00    -0.287 NA
ATOM      9  C   UNL     1      -8.308 -10.471  12.343  0.00  0.00    +0.146 C 
ATOM     10  C   UNL     1      -9.391  -9.799  11.479  0.00  0.00    +0.030 C 
ATOM     11  C   UNL     1     -10.042  -8.768  12.389  0.00  0.00    +0.017 C 
ATOM     12  C   UNL     1      -9.739  -9.280  13.783  0.00  0.00    +0.085 C 
BRANCH   4  13
ATOM     13  C   UNL     1      -7.950 -10.585  14.764  0.00  0.00    +0.123 C 
BRANCH  13  15
ATOM      1  F   UNL     1      -6.918  -8.937  16.822  0.00  0.00    -0.205 F 
ATOM     15  C   UNL     1      -8.720 -10.254  16.015  0.00  0.00    +0.002 A 
ATOM     16  C   UNL     1      -8.151  -9.435  16.990  0.00  0.00    +0.128 A 
ATOM     17  C   UNL     1     -10.004 -10.767  16.197  0.00  0.00    +0.008 A 
ATOM     19  C   UNL     1      -8.866  -9.130  18.148  0.00  0.00    +0.038 A 
ATOM     20  C   UNL     1     -10.720 -10.463  17.355  0.00  0.00    +0.000 A 
ATOM     22  C   UNL     1     -10.151  -9.644  18.330  0.00  0.00    +0.003 A 
ENDBRANCH  13  15
ENDBRANCH   4  13
ENDBRANCH  14   9
TORSDOF 8
ENDMDL
MODEL 5
REMARK VINA RESULT:       0.3     13.608     15.134
REMARK  Name = 45783477
REMARK  9 active torsions:
REMARK  status: ('A' for Active; 'I' for Inactive)
REMARK    1  A    between atoms: O_3  and  C_28
REMARK    2  A    between atoms: O_3  and  C_29
REMARK    3  A    between atoms: N_4  and  C_13
REMARK    4  A    between atoms: N_8  and  C_26
REMARK    5  A    between atoms: N_8  and  C_27
REMARK    6  A    between atoms: C_9  and  C_14
REMARK    7  A    between atoms: C_13  and  C_15
REMARK    8  A    between atoms: C_18  and  C_21
REMARK    9  A    between atoms: C_27  and  C_28
REMARK                            x       y       z     vdW  Elec       q    Type
REMARK                         _______ _______ _______ _____ _____    ______ ____
ROOT
ATOM      2  O   UNL     1      -4.723 -10.305  10.868  0.00  0.00    -0.336 OA
ATOM      5  N   UNL     1      -3.458  -9.890  12.669  0.00  0.00    -0.190 NA
ATOM      6  N   UNL     1      -3.496  -9.835  10.381  0.00  0.00    -0.056 NA
ATOM     14  C   UNL     1      -4.615 -10.306  12.222  0.00  0.00    +0.245 A 
ATOM     18  C   UNL     1      -2.805  -9.612  11.503  0.00  0.00    +0.204 A 
ENDROOT
BRANCH  18  21
ATOM      7  N   UNL     1       0.278  -7.834  12.584  0.00  0.00    -0.240 NA
ATOM     21  C   UNL     1      -1.460  -9.111  11.492  0.00  0.00    +0.041 A 
ATOM     23  C   UNL     1      -0.602  -9.389  10.434  0.00  0.00    +0.016 A 
ATOM     24  C   UNL     1      -0.977  -8.336  12.533  0.00  0.00    +0.124 A 
ATOM     25  C   UNL     1       0.696  -8.891  10.450  0.00  0.00    +0.044 A 
ATOM     26  C   UNL     1       1.084  -8.125  11.538  0.00  0.00    +0.119 A 
BRANCH  26   8
ATOM      8  N   UNL     1       2.409  -7.625  11.540  0.00  0.00    -0.327 N 
ATOM     30  H   UNL     1       3.096  -8.161  11.022  0.00  0.00    +0.148 HD
BRANCH   8  27
ATOM     27  C   UNL     1       2.783  -6.435  12.232  0.00  0.00    +0.131 C 
BRANCH  27  28
ATOM     28  C   UNL     1       4.288  -6.245  12.167  0.00  0.00    +0.178 C 
BRANCH  28   3
ATOM      3  O   UNL     1       4.931  -7.327  12.829  0.00  0.00    -0.381 OA
ATOM     29  C   UNL     1       6.107  -7.734  12.142  0.00  0.00    +0.194 C 
ENDBRANCH  28   3
ENDBRANCH  27  28
ENDBRANCH   8  27
ENDBRANCH  26   8
ENDBRANCH  18  21
BRANCH  14   9
ATOM      4  N   UNL     1      -5.956 -10.122  14.310  0.00  0.00    -0.287 NA
ATOM      9  C   UNL     1      -5.829 -10.781  12.995  0.00  0.00    +0.146 C 
ATOM     10  C   UNL     1      -7.153 -10.471  12.272  0.00  0.00    +0.030 C 
ATOM     11  C   UNL     1      -7.982  -9.689  13.280  0.00  0.00    +0.017 C 
ATOM     12  C   UNL     1      -7.386 -10.085  14.616  0.00  0.00    +0.085 C 
BRANCH   4  13
ATOM     13  C   UNL     1      -5.188 -10.781  15.359  0.00  0.00    +0.123 C 
BRANCH  13  15
ATOM      1  F   UNL     1      -3.804 -10.701  17.828  0.00  0.00    -0.205 F 
ATOM     15  C   UNL     1      -5.888 -10.717  16.691  0.00  0.00    +0.002 A 
ATOM     16  C   UNL     1      -5.144 -10.679  17.870  0.00  0.00    +0.128 A 
ATOM     17  C   UNL     1      -7.281 -10.693  16.744  0.00  0.00    +0.008 A 
ATOM     19  C   UNL     1      -5.793 -10.620  19.103  0.00  0.00    +0.038 A 
ATOM     20  C   UNL     1      -7.931 -10.633  17.976  0.00  0.00    +0.000 A 
ATOM     22  C   UNL     1      -7.187 -10.596  19.156  0.00  0.00    +0.003 A 
ENDBRANCH  13  15
ENDBRANCH   4  13
ENDBRANCH  14   9
TORSDOF 8
ENDMDL
