MODEL 1
REMARK VINA RESULT:       4.1      0.000      0.000
REMARK  Name = 7663744
REMARK  3 active torsions:
REMARK  status: ('A' for Active; 'I' for Inactive)
REMARK    1  A    between atoms: C_15  and  C_18
REMARK    2  A    between atoms: C_16  and  C_19
REMARK    3  A    between atoms: C_22  and  C_26
REMARK                            x       y       z     vdW  Elec       q    Type
REMARK                         _______ _______ _______ _____ _____    ______ ____
ROOT
ATOM      2  O   UNL     1      -0.285   2.872  25.909  0.00  0.00    -0.267 OA
ATOM      3  O   UNL     1      -4.182  -0.237  27.275  0.00  0.00    -0.270 OA
ATOM      4  N   UNL     1      -4.944   1.143  25.546  0.00  0.00    -0.297 N 
ATOM      5  N   UNL     1      -2.332   2.781  24.800  0.00  0.00    -0.311 N 
ATOM      6  C   UNL     1      -4.517   3.572  25.881  0.00  0.00    +0.027 C 
ATOM      7  C   UNL     1      -4.546   2.638  23.604  0.00  0.00    +0.054 C 
ATOM      8  C   UNL     1      -4.963   3.841  24.448  0.00  0.00    +0.018 C 
ATOM      9  C   UNL     1      -5.182   2.291  26.420  0.00  0.00    +0.113 C 
ATOM     10  C   UNL     1      -2.986   3.484  25.913  0.00  0.00    +0.130 C 
ATOM     11  C   UNL     1      -5.252   1.370  24.124  0.00  0.00    +0.117 C 
ATOM     12  C   UNL     1      -3.042   2.438  23.646  0.00  0.00    +0.027 A 
ATOM     13  C   UNL     1      -2.401   1.901  22.596  0.00  0.00    +0.022 A 
ATOM     14  C   UNL     1      -0.944   2.565  24.915  0.00  0.00    +0.259 A 
ATOM     15  C   UNL     1      -4.441  -0.041  26.088  0.00  0.00    +0.247 C 
ATOM     16  C   UNL     1      -0.258   1.932  23.733  0.00  0.00    +0.040 A 
ATOM     17  C   UNL     1      -0.990   1.646  22.647  0.00  0.00    +0.015 A 
ENDROOT
BRANCH  15  18
ATOM     18  C   UNL     1      -4.171  -1.156  25.175  0.00  0.00    +0.037 A 
ATOM     20  C   UNL     1      -3.307  -2.177  25.563  0.00  0.00    +0.013 A 
ATOM     21  C   UNL     1      -4.779  -1.188  23.923  0.00  0.00    +0.013 A 
ATOM     23  C   UNL     1      -3.050  -3.237  24.693  0.00  0.00    +0.001 A 
ATOM     24  C   UNL     1      -4.522  -2.248  23.053  0.00  0.00    +0.001 A 
ATOM     25  C   UNL     1      -3.657  -3.273  23.439  0.00  0.00    +0.000 A 
ENDBRANCH  15  18
BRANCH  16  19
ATOM     19  C   UNL     1       1.156   1.660  23.783  0.00  0.00    +0.014 C 
ATOM     22  C   UNL     1       1.708   0.575  23.225  0.00  0.00    +0.008 C 
BRANCH  22  26
ATOM      1 CL   UNL     1       7.523  -0.746  23.357  0.00  0.00    -0.084 Cl
ATOM     26  C   UNL     1       3.143   0.249  23.258  0.00  0.00    -0.025 A 
ATOM     27  C   UNL     1       4.067   1.213  22.890  0.00  0.00    +0.009 A 
ATOM     28  C   UNL     1       3.544  -1.017  23.657  0.00  0.00    +0.009 A 
ATOM     29  C   UNL     1       5.427   0.904  22.921  0.00  0.00    +0.020 A 
ATOM     30  C   UNL     1       4.903  -1.327  23.687  0.00  0.00    +0.020 A 
ATOM     31  C   UNL     1       5.845  -0.365  23.319  0.00  0.00    +0.041 A 
ENDBRANCH  22  26
ENDBRANCH  16  19
TORSDOF 3
ENDMDL
