MODEL 1
REMARK VINA RESULT:      -3.4      0.000      0.000
REMARK  Name = 44716627
REMARK  11 active torsions:
REMARK  status: ('A' for Active; 'I' for Inactive)
REMARK    1  A    between atoms: O_2  and  C_10
REMARK    2  A    between atoms: O_4  and  C_26
REMARK    3  A    between atoms: O_4  and  C_27
REMARK    4  A    between atoms: N_6  and  C_24
REMARK    5  A    between atoms: N_7  and  C_25
REMARK    6  A    between atoms: C_8  and  C_16
REMARK    7  A    between atoms: C_11  and  C_17
REMARK    8  A    between atoms: C_13  and  C_20
REMARK    9  A    between atoms: C_17  and  C_21
REMARK   10  A    between atoms: C_17  and  C_22
REMARK   11  A    between atoms: C_24  and  C_26
REMARK                            x       y       z     vdW  Elec       q    Type
REMARK                         _______ _______ _______ _____ _____    ______ ____
ROOT
ATOM      1  S   UNL     1      16.961  -3.287  29.700  0.00  0.00    -0.057 S 
ATOM      5  N   UNL     1      15.774  -2.847  31.955  0.00  0.00    -0.229 NA
ATOM      7  N   UNL     1      17.279  -1.158  31.263  0.00  0.00    -0.327 N 
ATOM      8  C   UNL     1      14.942  -6.770  30.545  0.00  0.00    -0.022 C 
ATOM      9  C   UNL     1      13.782  -6.089  31.373  0.00  0.00    +0.033 C 
ATOM     10  C   UNL     1      12.977  -7.139  32.189  0.00  0.00    +0.123 C 
ATOM     11  C   UNL     1      12.484  -8.319  31.323  0.00  0.00    +0.029 C 
ATOM     12  C   UNL     1      14.364  -7.922  29.690  0.00  0.00    +0.008 C 
ATOM     13  C   UNL     1      14.311  -4.881  32.250  0.00  0.00    +0.042 C 
ATOM     14  C   UNL     1      13.612  -8.958  30.512  0.00  0.00    +0.007 C 
ATOM     15  C   UNL     1      15.570  -5.731  29.565  0.00  0.00    +0.051 C 
ATOM     16  C   UNL     1      16.058  -7.335  31.462  0.00  0.00    +0.012 C 
ATOM     18  C   UNL     1      15.307  -4.056  31.470  0.00  0.00    +0.057 A 
ATOM     19  C   UNL     1      15.867  -4.458  30.274  0.00  0.00    +0.015 A 
ATOM     20  C   UNL     1      13.187  -3.979  32.780  0.00  0.00    +0.014 C 
ATOM     23  C   UNL     1      16.640  -2.347  31.100  0.00  0.00    +0.158 A 
ATOM     25  C   UNL     1      17.097  -0.271  32.407  0.00  0.00    +0.127 C 
ATOM     30  H   UNL     1      17.937  -0.843  30.556  0.00  0.00    +0.148 HD
ENDROOT
BRANCH  10   2
ATOM      2  O   UNL     1      11.822  -6.518  32.753  0.00  0.00    -0.391 OA
ATOM     28  H   UNL     1      11.785  -6.750  33.697  0.00  0.00    +0.210 HD
ENDBRANCH  10   2
BRANCH  11  17
ATOM     17  C   UNL     1      11.785  -9.392  32.166  0.00  0.00    +0.077 C 
ATOM     21  C   UNL     1      12.229 -10.781  31.719  0.00  0.00    +0.017 C 
BRANCH  17  22
ATOM      3  O   UNL     1       9.678  -8.189  32.179  0.00  0.00    -0.276 OA
ATOM      6  N   UNL     1       9.649 -10.480  31.836  0.00  0.00    -0.313 N 
ATOM     22  C   UNL     1      10.269  -9.260  32.065  0.00  0.00    +0.216 C 
ATOM     29  H   UNL     1      10.208 -11.316  31.698  0.00  0.00    +0.149 HD
BRANCH   6  24
ATOM     24  C   UNL     1       8.224 -10.610  31.709  0.00  0.00    +0.132 C 
BRANCH  24  26
ATOM     26  C   UNL     1       7.765 -10.351  30.287  0.00  0.00    +0.178 C 
BRANCH  26   4
ATOM      4  O   UNL     1       6.480  -9.743  30.309  0.00  0.00    -0.381 OA
ATOM     27  C   UNL     1       6.529  -8.444  30.883  0.00  0.00    +0.194 C 
ENDBRANCH  26   4
ENDBRANCH  24  26
ENDBRANCH   6  24
ENDBRANCH  17  22
ENDBRANCH  11  17
TORSDOF 6
ENDMDL
MODEL 2
REMARK VINA RESULT:      -1.1      1.980      2.394
REMARK  Name = 44716627
REMARK  11 active torsions:
REMARK  status: ('A' for Active; 'I' for Inactive)
REMARK    1  A    between atoms: O_2  and  C_10
REMARK    2  A    between atoms: O_4  and  C_26
REMARK    3  A    between atoms: O_4  and  C_27
REMARK    4  A    between atoms: N_6  and  C_24
REMARK    5  A    between atoms: N_7  and  C_25
REMARK    6  A    between atoms: C_8  and  C_16
REMARK    7  A    between atoms: C_11  and  C_17
REMARK    8  A    between atoms: C_13  and  C_20
REMARK    9  A    between atoms: C_17  and  C_21
REMARK   10  A    between atoms: C_17  and  C_22
REMARK   11  A    between atoms: C_24  and  C_26
REMARK                            x       y       z     vdW  Elec       q    Type
REMARK                         _______ _______ _______ _____ _____    ______ ____
ROOT
ATOM      1  S   UNL     1      17.001  -2.304  29.326  0.00  0.00    -0.057 S 
ATOM      5  N   UNL     1      16.271  -2.433  31.802  0.00  0.00    -0.229 NA
ATOM      7  N   UNL     1      17.306  -0.404  31.163  0.00  0.00    -0.327 N 
ATOM      8  C   UNL     1      15.788  -6.194  29.882  0.00  0.00    -0.022 C 
ATOM      9  C   UNL     1      14.739  -5.877  31.020  0.00  0.00    +0.033 C 
ATOM     10  C   UNL     1      14.304  -7.169  31.766  0.00  0.00    +0.123 C 
ATOM     11  C   UNL     1      13.831  -8.283  30.807  0.00  0.00    +0.029 C 
ATOM     12  C   UNL     1      15.230  -7.299  28.954  0.00  0.00    +0.008 C 
ATOM     13  C   UNL     1      15.246  -4.730  31.989  0.00  0.00    +0.042 C 
ATOM     14  C   UNL     1      14.845  -8.569  29.699  0.00  0.00    +0.007 C 
ATOM     15  C   UNL     1      16.019  -4.923  29.008  0.00  0.00    +0.051 C 
ATOM     16  C   UNL     1      17.150  -6.662  30.459  0.00  0.00    +0.012 C 
ATOM     18  C   UNL     1      15.908  -3.625  31.201  0.00  0.00    +0.057 A 
ATOM     19  C   UNL     1      16.255  -3.733  29.869  0.00  0.00    +0.015 A 
ATOM     20  C   UNL     1      14.134  -4.148  32.872  0.00  0.00    +0.014 C 
ATOM     23  C   UNL     1      16.843  -1.657  30.908  0.00  0.00    +0.158 A 
ATOM     25  C   UNL     1      17.235   0.255  32.463  0.00  0.00    +0.127 C 
ATOM     30  H   UNL     1      17.738   0.131  30.415  0.00  0.00    +0.148 HD
ENDROOT
BRANCH  10   2
ATOM      2  O   UNL     1      13.214  -6.870  32.637  0.00  0.00    -0.391 OA
ATOM     28  H   UNL     1      12.831  -6.020  32.359  0.00  0.00    +0.210 HD
ENDBRANCH  10   2
BRANCH  11  17
ATOM     17  C   UNL     1      13.507  -9.581  31.555  0.00  0.00    +0.077 C 
ATOM     21  C   UNL     1      13.710 -10.781  30.635  0.00  0.00    +0.017 C 
BRANCH  17  22
ATOM      3  O   UNL     1      11.584 -10.489  32.723  0.00  0.00    -0.276 OA
ATOM      6  N   UNL     1      11.420  -8.378  31.781  0.00  0.00    -0.313 N 
ATOM     22  C   UNL     1      12.080  -9.558  32.092  0.00  0.00    +0.216 C 
ATOM     29  H   UNL     1      11.914  -7.631  31.303  0.00  0.00    +0.149 HD
BRANCH   6  24
ATOM     24  C   UNL     1      10.062  -8.127  32.174  0.00  0.00    +0.132 C 
BRANCH  24  26
ATOM     26  C   UNL     1       9.736  -6.646  32.138  0.00  0.00    +0.178 C 
BRANCH  26   4
ATOM      4  O   UNL     1      10.749  -5.921  32.824  0.00  0.00    -0.381 OA
ATOM     27  C   UNL     1      10.577  -4.519  32.678  0.00  0.00    +0.194 C 
ENDBRANCH  26   4
ENDBRANCH  24  26
ENDBRANCH   6  24
ENDBRANCH  17  22
ENDBRANCH  11  17
TORSDOF 6
ENDMDL
MODEL 3
REMARK VINA RESULT:       0.4     15.798     19.058
REMARK  Name = 44716627
REMARK  11 active torsions:
REMARK  status: ('A' for Active; 'I' for Inactive)
REMARK    1  A    between atoms: O_2  and  C_10
REMARK    2  A    between atoms: O_4  and  C_26
REMARK    3  A    between atoms: O_4  and  C_27
REMARK    4  A    between atoms: N_6  and  C_24
REMARK    5  A    between atoms: N_7  and  C_25
REMARK    6  A    between atoms: C_8  and  C_16
REMARK    7  A    between atoms: C_11  and  C_17
REMARK    8  A    between atoms: C_13  and  C_20
REMARK    9  A    between atoms: C_17  and  C_21
REMARK   10  A    between atoms: C_17  and  C_22
REMARK   11  A    between atoms: C_24  and  C_26
REMARK                            x       y       z     vdW  Elec       q    Type
REMARK                         _______ _______ _______ _____ _____    ______ ____
ROOT
ATOM      1  S   UNL     1       1.597  -1.576  23.559  0.00  0.00    -0.057 S 
ATOM      5  N   UNL     1       1.460   0.994  23.316  0.00  0.00    -0.229 NA
ATOM      7  N   UNL     1       3.582   0.052  22.861  0.00  0.00    -0.327 N 
ATOM      8  C   UNL     1      -2.129  -0.565  24.976  0.00  0.00    -0.022 C 
ATOM      9  C   UNL     1      -2.305   0.719  24.073  0.00  0.00    +0.033 C 
ATOM     10  C   UNL     1      -3.473   1.612  24.577  0.00  0.00    +0.123 C 
ATOM     11  C   UNL     1      -4.788   0.825  24.764  0.00  0.00    +0.029 C 
ATOM     12  C   UNL     1      -3.482  -1.307  25.094  0.00  0.00    +0.008 C 
ATOM     13  C   UNL     1      -0.942   1.506  23.893  0.00  0.00    +0.042 C 
ATOM     14  C   UNL     1      -4.603  -0.425  25.625  0.00  0.00    +0.007 C 
ATOM     15  C   UNL     1      -1.116  -1.546  24.308  0.00  0.00    +0.051 C 
ATOM     16  C   UNL     1      -1.623  -0.212  26.399  0.00  0.00    +0.012 C 
ATOM     18  C   UNL     1       0.202   0.544  23.677  0.00  0.00    +0.057 A 
ATOM     19  C   UNL     1       0.107  -0.818  23.876  0.00  0.00    +0.015 A 
ATOM     20  C   UNL     1      -0.982   2.535  22.754  0.00  0.00    +0.014 C 
ATOM     23  C   UNL     1       2.271  -0.036  23.214  0.00  0.00    +0.158 A 
ATOM     25  C   UNL     1       4.272   1.299  22.548  0.00  0.00    +0.127 C 
ATOM     30  H   UNL     1       4.142  -0.793  22.806  0.00  0.00    +0.148 HD
ENDROOT
BRANCH  10   2
ATOM      2  O   UNL     1      -3.729   2.642  23.623  0.00  0.00    -0.391 OA
ATOM     28  H   UNL     1      -3.008   3.292  23.681  0.00  0.00    +0.210 HD
ENDBRANCH  10   2
BRANCH  11  17
ATOM     17  C   UNL     1      -5.897   1.700  25.362  0.00  0.00    +0.077 C 
ATOM     21  C   UNL     1      -7.071   1.793  24.393  0.00  0.00    +0.017 C 
BRANCH  17  22
ATOM      3  O   UNL     1      -5.963   4.125  25.391  0.00  0.00    -0.276 OA
ATOM      6  N   UNL     1      -4.157   3.049  26.366  0.00  0.00    -0.313 N 
ATOM     22  C   UNL     1      -5.370   3.092  25.694  0.00  0.00    +0.216 C 
ATOM     29  H   UNL     1      -3.754   2.156  26.631  0.00  0.00    +0.149 HD
BRANCH   6  24
ATOM     24  C   UNL     1      -3.461   4.235  26.780  0.00  0.00    +0.132 C 
BRANCH  24  26
ATOM     26  C   UNL     1      -2.040   4.261  26.251  0.00  0.00    +0.178 C 
BRANCH  26   4
ATOM      4  O   UNL     1      -2.008   4.963  25.015  0.00  0.00    -0.381 OA
ATOM     27  C   UNL     1      -0.692   5.389  24.690  0.00  0.00    +0.194 C 
ENDBRANCH  26   4
ENDBRANCH  24  26
ENDBRANCH   6  24
ENDBRANCH  17  22
ENDBRANCH  11  17
TORSDOF 6
ENDMDL
