MODEL 1
REMARK VINA RESULT:      -2.0      0.000      0.000
REMARK  Name = 38029128
REMARK  14 active torsions:
REMARK  status: ('A' for Active; 'I' for Inactive)
REMARK    1  A    between atoms: S_1  and  N_5
REMARK    2  A    between atoms: S_1  and  C_21
REMARK    3  A    between atoms: N_5  and  C_15
REMARK    4  A    between atoms: N_6  and  C_22
REMARK    5  A    between atoms: N_6  and  C_23
REMARK    6  A    between atoms: C_8  and  C_12
REMARK    7  A    between atoms: C_9  and  C_15
REMARK    8  A    between atoms: C_11  and  C_16
REMARK    9  A    between atoms: C_12  and  C_17
REMARK   10  A    between atoms: C_12  and  C_18
REMARK   11  A    between atoms: C_13  and  C_19
REMARK   12  A    between atoms: C_16  and  C_20
REMARK   13  A    between atoms: C_22  and  C_26
REMARK   14  A    between atoms: C_29  and  C_32
REMARK                            x       y       z     vdW  Elec       q    Type
REMARK                         _______ _______ _______ _____ _____    ______ ____
ROOT
ATOM      8  C   UNL     1      -2.581  -1.457  24.270  0.00  0.00    +0.000 C 
ATOM      9  C   UNL     1      -3.278  -0.718  25.440  0.00  0.00    +0.030 C 
ATOM     10  C   UNL     1      -1.070  -1.564  24.529  0.00  0.00    +0.012 C 
ATOM     11  C   UNL     1      -0.408  -0.184  24.700  0.00  0.00    +0.023 C 
ATOM     13  C   UNL     1      -1.195   0.705  25.641  0.00  0.00    -0.073 C 
ATOM     14  C   UNL     1      -2.471   0.443  25.971  0.00  0.00    -0.023 C 
ATOM     19  C   UNL     1      -0.465   1.879  26.233  0.00  0.00    +0.039 C 
ENDROOT
BRANCH   8  12
ATOM     12  C   UNL     1      -3.170  -2.853  24.047  0.00  0.00    -0.013 C 
ATOM     17  C   UNL     1      -4.518  -2.755  23.341  0.00  0.00    +0.007 C 
ATOM     18  C   UNL     1      -3.307  -3.590  25.376  0.00  0.00    +0.007 C 
ENDBRANCH   8  12
BRANCH   9  15
ATOM     15  C   UNL     1      -4.672  -0.228  25.032  0.00  0.00    +0.113 C 
BRANCH  15   5
ATOM      5  N   UNL     1      -5.194   0.665  26.079  0.00  0.00    -0.189 NA
ATOM     35  H   UNL     1      -5.544   0.219  26.936  0.00  0.00    +0.148 HD
BRANCH   5   1
ATOM      1  S   UNL     1      -5.823   2.193  25.668  0.00  0.00    +0.058 S 
ATOM      3  O   UNL     1      -6.491   2.762  26.822  0.00  0.00    -0.153 OA
ATOM      4  O   UNL     1      -6.518   2.094  24.398  0.00  0.00    -0.153 OA
BRANCH   1  21
ATOM     21  C   UNL     1      -4.348   3.123  25.378  0.00  0.00    +0.105 A 
ATOM     24  C   UNL     1      -3.793   3.889  26.403  0.00  0.00    +0.029 A 
ATOM     25  C   UNL     1      -3.739   3.092  24.123  0.00  0.00    +0.029 A 
ATOM     27  C   UNL     1      -2.629   4.622  26.174  0.00  0.00    +0.005 A 
ATOM     28  C   UNL     1      -2.575   3.825  23.894  0.00  0.00    +0.005 A 
ATOM     29  C   UNL     1      -2.020   4.590  24.919  0.00  0.00    -0.050 A 
ATOM     32  C   UNL     1      -0.775   5.374  24.674  0.00  0.00    +0.044 C 
ENDBRANCH   1  21
ENDBRANCH   5   1
ENDBRANCH  15   5
ENDBRANCH   9  15
BRANCH  11  16
ATOM     16  C   UNL     1      -0.201   0.500  23.344  0.00  0.00    +0.103 C 
BRANCH  16  20
ATOM      2  O   UNL     1       1.871   1.627  23.770  0.00  0.00    -0.276 OA
ATOM      6  N   UNL     1       1.841   0.122  22.006  0.00  0.00    -0.300 N 
ATOM     20  C   UNL     1       1.259   0.812  23.075  0.00  0.00    +0.216 C 
ATOM     23  C   UNL     1       1.098  -0.837  21.198  0.00  0.00    +0.132 C 
BRANCH   6  22
ATOM     22  C   UNL     1       3.237   0.310  21.618  0.00  0.00    +0.144 C 
BRANCH  22  26
ATOM      7  N   UNL     1       5.023  -1.723  24.259  0.00  0.00    -0.263 NA
ATOM     26  C   UNL     1       4.182  -0.053  22.727  0.00  0.00    -0.012 A 
ATOM     30  C   UNL     1       5.066   0.884  23.251  0.00  0.00    +0.008 A 
ATOM     31  C   UNL     1       4.200  -1.332  23.260  0.00  0.00    +0.115 A 
ATOM     33  C   UNL     1       5.928   0.519  24.279  0.00  0.00    +0.020 A 
ATOM     34  C   UNL     1       5.868  -0.785  24.744  0.00  0.00    +0.111 A 
ENDBRANCH  22  26
ENDBRANCH   6  22
ENDBRANCH  16  20
ENDBRANCH  11  16
TORSDOF 9
ENDMDL
MODEL 2
REMARK VINA RESULT:      -0.3      1.421      4.526
REMARK  Name = 38029128
REMARK  14 active torsions:
REMARK  status: ('A' for Active; 'I' for Inactive)
REMARK    1  A    between atoms: S_1  and  N_5
REMARK    2  A    between atoms: S_1  and  C_21
REMARK    3  A    between atoms: N_5  and  C_15
REMARK    4  A    between atoms: N_6  and  C_22
REMARK    5  A    between atoms: N_6  and  C_23
REMARK    6  A    between atoms: C_8  and  C_12
REMARK    7  A    between atoms: C_9  and  C_15
REMARK    8  A    between atoms: C_11  and  C_16
REMARK    9  A    between atoms: C_12  and  C_17
REMARK   10  A    between atoms: C_12  and  C_18
REMARK   11  A    between atoms: C_13  and  C_19
REMARK   12  A    between atoms: C_16  and  C_20
REMARK   13  A    between atoms: C_22  and  C_26
REMARK   14  A    between atoms: C_29  and  C_32
REMARK                            x       y       z     vdW  Elec       q    Type
REMARK                         _______ _______ _______ _____ _____    ______ ____
ROOT
ATOM      8  C   UNL     1      -2.276   3.710  25.009  0.00  0.00    +0.000 C 
ATOM      9  C   UNL     1      -3.496   3.920  24.077  0.00  0.00    +0.030 C 
ATOM     10  C   UNL     1      -1.022   3.380  24.184  0.00  0.00    +0.012 C 
ATOM     11  C   UNL     1      -1.205   2.114  23.325  0.00  0.00    +0.023 C 
ATOM     13  C   UNL     1      -2.523   2.126  22.578  0.00  0.00    -0.073 C 
ATOM     14  C   UNL     1      -3.530   2.949  22.920  0.00  0.00    -0.023 C 
ATOM     19  C   UNL     1      -2.641   1.201  21.399  0.00  0.00    +0.039 C 
ENDROOT
BRANCH   8  12
ATOM     12  C   UNL     1      -2.012   4.938  25.885  0.00  0.00    -0.013 C 
ATOM     17  C   UNL     1      -3.201   5.202  26.802  0.00  0.00    +0.007 C 
ATOM     18  C   UNL     1      -1.717   6.157  25.017  0.00  0.00    +0.007 C 
ENDBRANCH   8  12
BRANCH   9  15
ATOM     15  C   UNL     1      -4.811   3.829  24.859  0.00  0.00    +0.113 C 
BRANCH  15   5
ATOM      5  N   UNL     1      -4.745   2.681  25.779  0.00  0.00    -0.189 NA
ATOM     35  H   UNL     1      -3.825   2.458  26.177  0.00  0.00    +0.148 HD
BRANCH   5   1
ATOM      1  S   UNL     1      -5.881   1.418  25.655  0.00  0.00    +0.058 S 
ATOM      3  O   UNL     1      -6.738   1.656  24.509  0.00  0.00    -0.153 OA
ATOM      4  O   UNL     1      -6.463   1.173  26.962  0.00  0.00    -0.153 OA
BRANCH   1  21
ATOM     21  C   UNL     1      -4.844   0.036  25.284  0.00  0.00    +0.105 A 
ATOM     24  C   UNL     1      -3.983  -0.471  26.256  0.00  0.00    +0.029 A 
ATOM     25  C   UNL     1      -4.888  -0.548  24.018  0.00  0.00    +0.029 A 
ATOM     27  C   UNL     1      -3.165  -1.562  25.963  0.00  0.00    +0.005 A 
ATOM     28  C   UNL     1      -4.070  -1.639  23.725  0.00  0.00    +0.005 A 
ATOM     29  C   UNL     1      -3.209  -2.146  24.698  0.00  0.00    -0.050 A 
ATOM     32  C   UNL     1      -2.334  -3.313  24.384  0.00  0.00    +0.044 C 
ENDBRANCH   1  21
ENDBRANCH   5   1
ENDBRANCH  15   5
ENDBRANCH   9  15
BRANCH  11  16
ATOM     16  C   UNL     1      -1.068   0.846  24.176  0.00  0.00    +0.103 C 
BRANCH  16  20
ATOM      2  O   UNL     1      -0.594  -1.341  23.317  0.00  0.00    -0.276 OA
ATOM      6  N   UNL     1       1.101   0.235  23.165  0.00  0.00    -0.300 N 
ATOM     20  C   UNL     1      -0.183  -0.195  23.517  0.00  0.00    +0.216 C 
ATOM     23  C   UNL     1       1.565   1.595  23.411  0.00  0.00    +0.132 C 
BRANCH   6  22
ATOM     22  C   UNL     1       2.074  -0.646  22.523  0.00  0.00    +0.144 C 
BRANCH  22  26
ATOM      7  N   UNL     1       5.324  -1.358  24.321  0.00  0.00    -0.263 NA
ATOM     26  C   UNL     1       3.457  -0.456  23.079  0.00  0.00    -0.012 A 
ATOM     30  C   UNL     1       4.145   0.737  22.895  0.00  0.00    +0.008 A 
ATOM     31  C   UNL     1       4.084  -1.465  23.792  0.00  0.00    +0.115 A 
ATOM     33  C   UNL     1       5.423   0.884  23.423  0.00  0.00    +0.020 A 
ATOM     34  C   UNL     1       5.963  -0.184  24.122  0.00  0.00    +0.111 A 
ENDBRANCH  22  26
ENDBRANCH   6  22
ENDBRANCH  16  20
ENDBRANCH  11  16
TORSDOF 9
ENDMDL
MODEL 3
REMARK VINA RESULT:       0.9      2.263      6.926
REMARK  Name = 38029128
REMARK  14 active torsions:
REMARK  status: ('A' for Active; 'I' for Inactive)
REMARK    1  A    between atoms: S_1  and  N_5
REMARK    2  A    between atoms: S_1  and  C_21
REMARK    3  A    between atoms: N_5  and  C_15
REMARK    4  A    between atoms: N_6  and  C_22
REMARK    5  A    between atoms: N_6  and  C_23
REMARK    6  A    between atoms: C_8  and  C_12
REMARK    7  A    between atoms: C_9  and  C_15
REMARK    8  A    between atoms: C_11  and  C_16
REMARK    9  A    between atoms: C_12  and  C_17
REMARK   10  A    between atoms: C_12  and  C_18
REMARK   11  A    between atoms: C_13  and  C_19
REMARK   12  A    between atoms: C_16  and  C_20
REMARK   13  A    between atoms: C_22  and  C_26
REMARK   14  A    between atoms: C_29  and  C_32
REMARK                            x       y       z     vdW  Elec       q    Type
REMARK                         _______ _______ _______ _____ _____    ______ ____
ROOT
ATOM      8  C   UNL     1      -3.172  -1.185  24.687  0.00  0.00    +0.000 C 
ATOM      9  C   UNL     1      -1.956  -0.545  23.972  0.00  0.00    +0.030 C 
ATOM     10  C   UNL     1      -4.464  -0.902  23.904  0.00  0.00    +0.012 C 
ATOM     11  C   UNL     1      -4.729   0.607  23.743  0.00  0.00    +0.023 C 
ATOM     13  C   UNL     1      -3.488   1.352  23.294  0.00  0.00    -0.073 C 
ATOM     14  C   UNL     1      -2.259   0.816  23.391  0.00  0.00    -0.023 C 
ATOM     19  C   UNL     1      -3.697   2.711  22.686  0.00  0.00    +0.039 C 
ENDROOT
BRANCH   8  12
ATOM     12  C   UNL     1      -2.995  -2.695  24.869  0.00  0.00    -0.013 C 
ATOM     17  C   UNL     1      -1.671  -3.152  24.269  0.00  0.00    +0.007 C 
ATOM     18  C   UNL     1      -4.163  -3.446  24.238  0.00  0.00    +0.007 C 
ENDBRANCH   8  12
BRANCH   9  15
ATOM     15  C   UNL     1      -0.751  -0.441  24.915  0.00  0.00    +0.113 C 
BRANCH  15   5
ATOM      5  N   UNL     1       0.463  -0.852  24.190  0.00  0.00    -0.189 NA
ATOM     35  H   UNL     1       1.126  -1.449  24.700  0.00  0.00    +0.148 HD
BRANCH   5   1
ATOM      1  S   UNL     1       1.073   0.112  22.926  0.00  0.00    +0.058 S 
ATOM      3  O   UNL     1       0.718   1.497  23.166  0.00  0.00    -0.153 OA
ATOM      4  O   UNL     1       0.755  -0.513  21.656  0.00  0.00    -0.153 OA
BRANCH   1  21
ATOM     21  C   UNL     1       2.817  -0.052  23.159  0.00  0.00    +0.105 A 
ATOM     24  C   UNL     1       3.348  -1.248  23.641  0.00  0.00    +0.029 A 
ATOM     25  C   UNL     1       3.665   1.016  22.860  0.00  0.00    +0.029 A 
ATOM     27  C   UNL     1       4.725  -1.377  23.824  0.00  0.00    +0.005 A 
ATOM     28  C   UNL     1       5.041   0.887  23.042  0.00  0.00    +0.005 A 
ATOM     29  C   UNL     1       5.571  -0.310  23.524  0.00  0.00    -0.050 A 
ATOM     32  C   UNL     1       7.044  -0.448  23.720  0.00  0.00    +0.044 C 
ENDBRANCH   1  21
ENDBRANCH   5   1
ENDBRANCH  15   5
ENDBRANCH   9  15
BRANCH  11  16
ATOM     16  C   UNL     1      -5.293   1.210  25.034  0.00  0.00    +0.103 C 
BRANCH  16  20
ATOM      2  O   UNL     1      -3.242   1.490  26.242  0.00  0.00    -0.276 OA
ATOM      6  N   UNL     1      -4.537   3.387  25.923  0.00  0.00    -0.300 N 
ATOM     20  C   UNL     1      -4.257   2.023  25.788  0.00  0.00    +0.216 C 
ATOM     23  C   UNL     1      -5.744   3.995  25.378  0.00  0.00    +0.132 C 
BRANCH   6  22
ATOM     22  C   UNL     1      -3.641   4.306  26.622  0.00  0.00    +0.144 C 
BRANCH  22  26
ATOM      7  N   UNL     1      -0.140   3.453  25.473  0.00  0.00    -0.263 NA
ATOM     26  C   UNL     1      -2.307   4.417  25.940  0.00  0.00    -0.012 A 
ATOM     30  C   UNL     1      -1.986   5.530  25.171  0.00  0.00    +0.008 A 
ATOM     31  C   UNL     1      -1.358   3.415  26.059  0.00  0.00    +0.115 A 
ATOM     33  C   UNL     1      -0.743   5.606  24.553  0.00  0.00    +0.020 A 
ATOM     34  C   UNL     1       0.137   4.551  24.734  0.00  0.00    +0.111 A 
ENDBRANCH  22  26
ENDBRANCH   6  22
ENDBRANCH  16  20
ENDBRANCH  11  16
TORSDOF 9
ENDMDL
