MODEL 1
REMARK VINA RESULT:       6.2      0.000      0.000
REMARK  Name = 25313316
REMARK  8 active torsions:
REMARK  status: ('A' for Active; 'I' for Inactive)
REMARK    1  A    between atoms: O_5  and  C_25
REMARK    2  A    between atoms: N_9  and  C_19
REMARK    3  A    between atoms: N_10  and  C_28
REMARK    4  A    between atoms: C_12  and  C_16
REMARK    5  A    between atoms: C_13  and  C_18
REMARK    6  A    between atoms: C_16  and  C_19
REMARK    7  A    between atoms: C_18  and  C_25
REMARK    8  A    between atoms: C_33  and  C_36
REMARK                            x       y       z     vdW  Elec       q    Type
REMARK                         _______ _______ _______ _____ _____    ______ ____
ROOT
ATOM      4  O   UNL     1      -3.538  -0.936  26.848  0.00  0.00    -0.252 OA
ATOM      6  O   UNL     1      -0.232  -2.887  24.269  0.00  0.00    -0.377 OA
ATOM      8  N   UNL     1      -4.017   0.291  24.958  0.00  0.00    -0.285 N 
ATOM     11  N   UNL     1      -1.928  -0.844  25.206  0.00  0.00    -0.281 N 
ATOM     12  C   UNL     1      -4.141   2.776  24.927  0.00  0.00    +0.011 C 
ATOM     13  C   UNL     1      -5.680   2.662  25.065  0.00  0.00    +0.006 C 
ATOM     14  C   UNL     1      -3.569   1.506  24.261  0.00  0.00    +0.113 C 
ATOM     15  C   UNL     1      -6.089   1.355  25.764  0.00  0.00    +0.023 C 
ATOM     17  C   UNL     1      -5.468   0.150  25.066  0.00  0.00    +0.109 C 
ATOM     22  C   UNL     1      -3.182  -0.522  25.738  0.00  0.00    +0.305 C 
ATOM     26  C   UNL     1      -1.641  -0.968  23.770  0.00  0.00    +0.137 C 
ATOM     27  C   UNL     1      -0.888  -1.407  26.064  0.00  0.00    +0.137 C 
ATOM     29  C   UNL     1      -1.300  -2.419  23.440  0.00  0.00    +0.179 C 
ATOM     30  C   UNL     1      -0.594  -2.842  25.653  0.00  0.00    +0.179 C 
ENDROOT
BRANCH  12  16
ATOM     16  C   UNL     1      -3.418   3.053  26.253  0.00  0.00    +0.020 C 
BRANCH  16  19
ATOM     19  C   UNL     1      -2.436   4.206  26.105  0.00  0.00    +0.085 C 
BRANCH  19   9
ATOM      9  N   UNL     1      -1.176   3.716  25.547  0.00  0.00    -0.299 NA
ATOM     10  N   UNL     1       0.512   1.930  24.092  0.00  0.00    -0.327 N 
ATOM     20  C   UNL     1      -0.851   2.392  26.092  0.00  0.00    +0.103 C 
ATOM     21  C   UNL     1      -1.252   3.648  24.083  0.00  0.00    +0.103 C 
ATOM     23  C   UNL     1       0.493   1.894  25.559  0.00  0.00    +0.120 C 
ATOM     24  C   UNL     1       0.079   3.192  23.483  0.00  0.00    +0.120 C 
BRANCH  10  28
ATOM     28  C   UNL     1       1.438   1.119  23.425  0.00  0.00    +0.030 A 
ATOM     31  C   UNL     1       2.779   1.134  23.806  0.00  0.00    +0.035 A 
ATOM     32  C   UNL     1       1.017   0.295  22.381  0.00  0.00    +0.023 A 
ATOM     33  C   UNL     1       3.702   0.325  23.142  0.00  0.00    +0.057 A 
ATOM     34  C   UNL     1       1.940  -0.514  21.717  0.00  0.00    +0.002 A 
ATOM     35  C   UNL     1       3.282  -0.498  22.097  0.00  0.00    +0.012 A 
BRANCH  33  36
ATOM      1  F   UNL     1       5.384  -0.446  24.635  0.00  0.00    -0.166 F 
ATOM      2  F   UNL     1       5.987  -0.100  22.575  0.00  0.00    -0.166 F 
ATOM      3  F   UNL     1       5.596   1.584  23.885  0.00  0.00    -0.166 F 
ATOM     36  C   UNL     1       5.137   0.342  23.548  0.00  0.00    +0.417 C 
ENDBRANCH  33  36
ENDBRANCH  10  28
ENDBRANCH  19   9
ENDBRANCH  16  19
ENDBRANCH  12  16
BRANCH  13  18
ATOM     18  C   UNL     1      -6.312   3.867  25.761  0.00  0.00    +0.124 C 
BRANCH  18  25
ATOM      7  O   UNL     1      -4.990   5.316  24.312  0.00  0.00    -0.251 OA
ATOM     25  C   UNL     1      -5.899   5.161  25.116  0.00  0.00    +0.305 C 
BRANCH  25   5
ATOM      5  O   UNL     1      -6.696   6.168  25.557  0.00  0.00    -0.481 OA
ATOM     37  H   UNL     1      -6.744   6.195  26.535  0.00  0.00    +0.295 HD
ENDBRANCH  25   5
ENDBRANCH  18  25
ENDBRANCH  13  18
TORSDOF 8
ENDMDL
MODEL 2
REMARK VINA RESULT:       8.5      4.166      8.398
REMARK  Name = 25313316
REMARK  8 active torsions:
REMARK  status: ('A' for Active; 'I' for Inactive)
REMARK    1  A    between atoms: O_5  and  C_25
REMARK    2  A    between atoms: N_9  and  C_19
REMARK    3  A    between atoms: N_10  and  C_28
REMARK    4  A    between atoms: C_12  and  C_16
REMARK    5  A    between atoms: C_13  and  C_18
REMARK    6  A    between atoms: C_16  and  C_19
REMARK    7  A    between atoms: C_18  and  C_25
REMARK    8  A    between atoms: C_33  and  C_36
REMARK                            x       y       z     vdW  Elec       q    Type
REMARK                         _______ _______ _______ _____ _____    ______ ____
ROOT
ATOM      4  O   UNL     1       0.969   2.674  25.138  0.00  0.00    -0.252 OA
ATOM      6  O   UNL     1      -3.374   3.556  23.815  0.00  0.00    -0.377 OA
ATOM      8  N   UNL     1       1.053   1.315  23.280  0.00  0.00    -0.285 N 
ATOM     11  N   UNL     1      -1.033   2.038  24.196  0.00  0.00    -0.281 N 
ATOM     12  C   UNL     1       1.736  -1.076  23.355  0.00  0.00    +0.011 C 
ATOM     13  C   UNL     1       3.159  -0.643  22.921  0.00  0.00    +0.006 C 
ATOM     14  C   UNL     1       0.693  -0.050  22.865  0.00  0.00    +0.113 C 
ATOM     15  C   UNL     1       3.463   0.804  23.345  0.00  0.00    +0.023 C 
ATOM     17  C   UNL     1       2.378   1.754  22.848  0.00  0.00    +0.109 C 
ATOM     22  C   UNL     1       0.365   2.047  24.258  0.00  0.00    +0.305 C 
ATOM     26  C   UNL     1      -1.809   1.902  22.957  0.00  0.00    +0.137 C 
ATOM     27  C   UNL     1      -1.822   2.498  25.338  0.00  0.00    +0.137 C 
ATOM     29  C   UNL     1      -2.572   3.198  22.686  0.00  0.00    +0.179 C 
ATOM     30  C   UNL     1      -2.565   3.776  24.975  0.00  0.00    +0.179 C 
ENDROOT
BRANCH  12  16
ATOM     16  C   UNL     1       1.591  -1.304  24.866  0.00  0.00    +0.020 C 
BRANCH  16  19
ATOM     19  C   UNL     1       0.802  -2.573  25.150  0.00  0.00    +0.085 C 
BRANCH  19   9
ATOM      9  N   UNL     1      -0.611  -2.247  25.341  0.00  0.00    -0.299 NA
ATOM     10  N   UNL     1      -3.010  -0.739  24.985  0.00  0.00    -0.327 N 
ATOM     20  C   UNL     1      -0.755  -0.924  25.961  0.00  0.00    +0.103 C 
ATOM     21  C   UNL     1      -1.325  -2.278  24.059  0.00  0.00    +0.103 C 
ATOM     23  C   UNL     1      -2.227  -0.596  26.218  0.00  0.00    +0.120 C 
ATOM     24  C   UNL     1      -2.816  -1.994  24.252  0.00  0.00    +0.120 C 
BRANCH  10  28
ATOM     28  C   UNL     1      -4.237  -0.071  24.903  0.00  0.00    +0.030 A 
ATOM     31  C   UNL     1      -4.436   1.111  25.615  0.00  0.00    +0.035 A 
ATOM     32  C   UNL     1      -5.260  -0.586  24.106  0.00  0.00    +0.023 A 
ATOM     33  C   UNL     1      -5.658   1.779  25.533  0.00  0.00    +0.057 A 
ATOM     34  C   UNL     1      -6.482   0.081  24.023  0.00  0.00    +0.002 A 
ATOM     35  C   UNL     1      -6.681   1.263  24.737  0.00  0.00    +0.012 A 
BRANCH  33  36
ATOM      1  F   UNL     1      -6.773   2.896  27.311  0.00  0.00    -0.166 F 
ATOM      2  F   UNL     1      -4.738   3.527  26.881  0.00  0.00    -0.166 F 
ATOM      3  F   UNL     1      -6.346   4.070  25.531  0.00  0.00    -0.166 F 
ATOM     36  C   UNL     1      -5.872   3.041  26.296  0.00  0.00    +0.417 C 
ENDBRANCH  33  36
ENDBRANCH  10  28
ENDBRANCH  19   9
ENDBRANCH  16  19
ENDBRANCH  12  16
BRANCH  13  18
ATOM     18  C   UNL     1       4.253  -1.591  23.413  0.00  0.00    +0.124 C 
BRANCH  18  25
ATOM      7  O   UNL     1       6.352  -0.422  22.997  0.00  0.00    -0.251 OA
ATOM     25  C   UNL     1       5.510  -0.848  23.774  0.00  0.00    +0.305 C 
BRANCH  25   5
ATOM      5  O   UNL     1       5.588  -0.708  25.122  0.00  0.00    -0.481 OA
ATOM     37  H   UNL     1       4.899  -1.230  25.585  0.00  0.00    +0.295 HD
ENDBRANCH  25   5
ENDBRANCH  18  25
ENDBRANCH  13  18
TORSDOF 8
ENDMDL
