MODEL 1
REMARK VINA RESULT:       7.6      0.000      0.000
REMARK  Name = 51137788
REMARK  9 active torsions:
REMARK  status: ('A' for Active; 'I' for Inactive)
REMARK    1  A    between atoms: O_3  and  C_20
REMARK    2  A    between atoms: O_3  and  C_28
REMARK    3  A    between atoms: O_4  and  C_22
REMARK    4  A    between atoms: O_4  and  C_29
REMARK    5  A    between atoms: O_5  and  C_27
REMARK    6  A    between atoms: O_5  and  C_30
REMARK    7  A    between atoms: C_9  and  C_13
REMARK    8  A    between atoms: C_14  and  C_15
REMARK    9  A    between atoms: C_16  and  C_19
REMARK                            x       y       z     vdW  Elec       q    Type
REMARK                         _______ _______ _______ _____ _____    ______ ____
ROOT
ATOM      2  O   UNL     1      -3.490  -1.148  26.666  0.00  0.00    -0.270 OA
ATOM      6  N   UNL     1      -2.575  -0.623  24.597  0.00  0.00    -0.297 N 
ATOM      9  C   UNL     1      -1.077  -0.242  22.787  0.00  0.00    +0.095 C 
ATOM     10  C   UNL     1      -1.125  -1.743  23.111  0.00  0.00    +0.033 C 
ATOM     11  C   UNL     1      -2.363   0.267  23.454  0.00  0.00    +0.121 C 
ATOM     12  C   UNL     1      -1.721  -1.797  24.511  0.00  0.00    +0.109 C 
ATOM     14  C   UNL     1      -3.398  -0.404  25.691  0.00  0.00    +0.247 C 
ENDROOT
BRANCH  14  15
ATOM     15  C   UNL     1      -4.213   0.820  25.694  0.00  0.00    +0.041 A 
ATOM     17  C   UNL     1      -3.597   2.070  25.738  0.00  0.00    +0.062 A 
ATOM     18  C   UNL     1      -5.605   0.731  25.653  0.00  0.00    +0.017 A 
ATOM     20  C   UNL     1      -4.370   3.230  25.742  0.00  0.00    +0.162 A 
ATOM     21  C   UNL     1      -6.379   1.891  25.657  0.00  0.00    +0.050 A 
ATOM     22  C   UNL     1      -5.761   3.141  25.700  0.00  0.00    +0.162 A 
BRANCH  20   3
ATOM      3  O   UNL     1      -3.755   4.446  25.785  0.00  0.00    -0.491 OA
ATOM     28  C   UNL     1      -2.330   4.453  25.717  0.00  0.00    +0.277 C 
ENDBRANCH  20   3
BRANCH  22   4
ATOM      4  O   UNL     1      -6.528   4.267  25.704  0.00  0.00    -0.491 OA
ATOM     29  C   UNL     1      -6.021   5.399  25.001  0.00  0.00    +0.277 C 
ENDBRANCH  22   4
ENDBRANCH  14  15
BRANCH   9  13
ATOM      1  O   UNL     1       1.373  -0.274  22.946  0.00  0.00    -0.420 OA
ATOM      7  N   UNL     1       0.423   1.505  23.914  0.00  0.00    -0.112 NA
ATOM      8  N   UNL     1       1.792   1.611  24.075  0.00  0.00    -0.107 NA
ATOM     13  C   UNL     1       0.224   0.390  23.249  0.00  0.00    +0.222 A 
ATOM     16  C   UNL     1       2.306   0.551  23.494  0.00  0.00    +0.248 A 
BRANCH  16  19
ATOM     19  C   UNL     1       3.671   0.137  23.353  0.00  0.00    +0.039 A 
ATOM     23  C   UNL     1       4.604   0.996  22.770  0.00  0.00    +0.017 A 
ATOM     24  C   UNL     1       4.068  -1.124  23.798  0.00  0.00    +0.017 A 
ATOM     25  C   UNL     1       5.931   0.593  22.632  0.00  0.00    +0.046 A 
ATOM     26  C   UNL     1       5.396  -1.527  23.660  0.00  0.00    +0.046 A 
ATOM     27  C   UNL     1       6.328  -0.668  23.078  0.00  0.00    +0.120 A 
BRANCH  27   5
ATOM      5  O   UNL     1       7.625  -1.060  22.945  0.00  0.00    -0.495 OA
ATOM     30  C   UNL     1       8.628  -0.070  23.171  0.00  0.00    +0.277 C 
ENDBRANCH  27   5
ENDBRANCH  16  19
ENDBRANCH   9  13
TORSDOF 6
ENDMDL
MODEL 2
REMARK VINA RESULT:       8.2      1.868      3.567
REMARK  Name = 51137788
REMARK  9 active torsions:
REMARK  status: ('A' for Active; 'I' for Inactive)
REMARK    1  A    between atoms: O_3  and  C_20
REMARK    2  A    between atoms: O_3  and  C_28
REMARK    3  A    between atoms: O_4  and  C_22
REMARK    4  A    between atoms: O_4  and  C_29
REMARK    5  A    between atoms: O_5  and  C_27
REMARK    6  A    between atoms: O_5  and  C_30
REMARK    7  A    between atoms: C_9  and  C_13
REMARK    8  A    between atoms: C_14  and  C_15
REMARK    9  A    between atoms: C_16  and  C_19
REMARK                            x       y       z     vdW  Elec       q    Type
REMARK                         _______ _______ _______ _____ _____    ______ ____
ROOT
ATOM      2  O   UNL     1      -3.853   4.723  23.124  0.00  0.00    -0.270 OA
ATOM      6  N   UNL     1      -2.150   3.940  24.495  0.00  0.00    -0.297 N 
ATOM      9  C   UNL     1      -0.099   3.058  25.321  0.00  0.00    +0.095 C 
ATOM     10  C   UNL     1       0.143   4.452  24.721  0.00  0.00    +0.033 C 
ATOM     11  C   UNL     1      -1.618   3.067  25.543  0.00  0.00    +0.121 C 
ATOM     12  C   UNL     1      -1.085   4.695  23.853  0.00  0.00    +0.109 C 
ATOM     14  C   UNL     1      -3.463   4.027  24.060  0.00  0.00    +0.247 C 
ENDROOT
BRANCH  14  15
ATOM     15  C   UNL     1      -4.467   3.213  24.763  0.00  0.00    +0.041 A 
ATOM     17  C   UNL     1      -4.505   1.833  24.571  0.00  0.00    +0.062 A 
ATOM     18  C   UNL     1      -5.383   3.823  25.621  0.00  0.00    +0.017 A 
ATOM     20  C   UNL     1      -5.457   1.061  25.236  0.00  0.00    +0.162 A 
ATOM     21  C   UNL     1      -6.335   3.052  26.286  0.00  0.00    +0.050 A 
ATOM     22  C   UNL     1      -6.372   1.671  26.095  0.00  0.00    +0.162 A 
BRANCH  20   3
ATOM      3  O   UNL     1      -5.483  -0.287  25.041  0.00  0.00    -0.491 OA
ATOM     28  C   UNL     1      -4.364  -0.867  24.372  0.00  0.00    +0.277 C 
ENDBRANCH  20   3
BRANCH  22   4
ATOM      4  O   UNL     1      -7.307   0.929  26.751  0.00  0.00    -0.491 OA
ATOM     29  C   UNL     1      -7.165   0.809  28.164  0.00  0.00    +0.277 C 
ENDBRANCH  22   4
ENDBRANCH  14  15
BRANCH   9  13
ATOM      1  O   UNL     1       1.794   1.751  24.461  0.00  0.00    -0.420 OA
ATOM      7  N   UNL     1      -0.184   1.161  23.598  0.00  0.00    -0.112 NA
ATOM      8  N   UNL     1       0.786   0.354  23.034  0.00  0.00    -0.107 NA
ATOM     13  C   UNL     1       0.450   1.961  24.425  0.00  0.00    +0.222 A 
ATOM     16  C   UNL     1       1.925   0.733  23.567  0.00  0.00    +0.248 A 
BRANCH  16  19
ATOM     19  C   UNL     1       3.258   0.251  23.356  0.00  0.00    +0.039 A 
ATOM     23  C   UNL     1       3.610  -1.034  23.773  0.00  0.00    +0.017 A 
ATOM     24  C   UNL     1       4.204   1.064  22.733  0.00  0.00    +0.017 A 
ATOM     25  C   UNL     1       4.907  -1.502  23.568  0.00  0.00    +0.046 A 
ATOM     26  C   UNL     1       5.502   0.595  22.527  0.00  0.00    +0.046 A 
ATOM     27  C   UNL     1       5.853  -0.689  22.944  0.00  0.00    +0.120 A 
BRANCH  27   5
ATOM      5  O   UNL     1       7.118  -1.148  22.742  0.00  0.00    -0.495 OA
ATOM     30  C   UNL     1       8.190  -0.271  23.088  0.00  0.00    +0.277 C 
ENDBRANCH  27   5
ENDBRANCH  16  19
ENDBRANCH   9  13
TORSDOF 6
ENDMDL
MODEL 3
REMARK VINA RESULT:       9.0      1.894      2.950
REMARK  Name = 51137788
REMARK  9 active torsions:
REMARK  status: ('A' for Active; 'I' for Inactive)
REMARK    1  A    between atoms: O_3  and  C_20
REMARK    2  A    between atoms: O_3  and  C_28
REMARK    3  A    between atoms: O_4  and  C_22
REMARK    4  A    between atoms: O_4  and  C_29
REMARK    5  A    between atoms: O_5  and  C_27
REMARK    6  A    between atoms: O_5  and  C_30
REMARK    7  A    between atoms: C_9  and  C_13
REMARK    8  A    between atoms: C_14  and  C_15
REMARK    9  A    between atoms: C_16  and  C_19
REMARK                            x       y       z     vdW  Elec       q    Type
REMARK                         _______ _______ _______ _____ _____    ______ ____
ROOT
ATOM      2  O   UNL     1      -0.380   1.803  27.418  0.00  0.00    -0.270 OA
ATOM      6  N   UNL     1      -1.093   0.728  25.488  0.00  0.00    -0.297 N 
ATOM      9  C   UNL     1      -1.216  -0.629  23.536  0.00  0.00    +0.095 C 
ATOM     10  C   UNL     1      -1.134  -1.524  24.783  0.00  0.00    +0.033 C 
ATOM     11  C   UNL     1      -1.658   0.712  24.138  0.00  0.00    +0.121 C 
ATOM     12  C   UNL     1      -0.613  -0.592  25.869  0.00  0.00    +0.109 C 
ATOM     14  C   UNL     1      -0.928   1.826  26.318  0.00  0.00    +0.247 C 
ENDROOT
BRANCH  14  15
ATOM     15  C   UNL     1      -1.433   3.121  25.838  0.00  0.00    +0.041 A 
ATOM     17  C   UNL     1      -2.802   3.387  25.855  0.00  0.00    +0.062 A 
ATOM     18  C   UNL     1      -0.542   4.085  25.364  0.00  0.00    +0.017 A 
ATOM     20  C   UNL     1      -3.280   4.614  25.399  0.00  0.00    +0.162 A 
ATOM     21  C   UNL     1      -1.020   5.312  24.908  0.00  0.00    +0.050 A 
ATOM     22  C   UNL     1      -2.390   5.578  24.926  0.00  0.00    +0.162 A 
BRANCH  20   3
ATOM      3  O   UNL     1      -4.620   4.862  25.421  0.00  0.00    -0.491 OA
ATOM     28  C   UNL     1      -5.486   3.732  25.526  0.00  0.00    +0.277 C 
ENDBRANCH  20   3
BRANCH  22   4
ATOM      4  O   UNL     1      -2.844   6.781  24.477  0.00  0.00    -0.491 OA
ATOM     29  C   UNL     1      -3.246   6.853  23.111  0.00  0.00    +0.277 C 
ENDBRANCH  22   4
ENDBRANCH  14  15
BRANCH   9  13
ATOM      1  O   UNL     1       1.233  -0.462  23.480  0.00  0.00    -0.420 OA
ATOM      7  N   UNL     1       0.296  -0.765  21.471  0.00  0.00    -0.112 NA
ATOM      8  N   UNL     1       1.665  -0.689  21.296  0.00  0.00    -0.107 NA
ATOM     13  C   UNL     1       0.089  -0.629  22.760  0.00  0.00    +0.222 A 
ATOM     16  C   UNL     1       2.171  -0.512  22.495  0.00  0.00    +0.248 A 
BRANCH  16  19
ATOM     19  C   UNL     1       3.533  -0.366  22.918  0.00  0.00    +0.039 A 
ATOM     23  C   UNL     1       4.188  -1.427  23.544  0.00  0.00    +0.017 A 
ATOM     24  C   UNL     1       4.205   0.838  22.704  0.00  0.00    +0.017 A 
ATOM     25  C   UNL     1       5.513  -1.284  23.955  0.00  0.00    +0.046 A 
ATOM     26  C   UNL     1       5.530   0.981  23.115  0.00  0.00    +0.046 A 
ATOM     27  C   UNL     1       6.184  -0.080  23.741  0.00  0.00    +0.120 A 
BRANCH  27   5
ATOM      5  O   UNL     1       7.478   0.058  24.140  0.00  0.00    -0.495 OA
ATOM     30  C   UNL     1       8.489  -0.218  23.171  0.00  0.00    +0.277 C 
ENDBRANCH  27   5
ENDBRANCH  16  19
ENDBRANCH   9  13
TORSDOF 6
ENDMDL
MODEL 4
REMARK VINA RESULT:       9.1      1.839      2.546
REMARK  Name = 51137788
REMARK  9 active torsions:
REMARK  status: ('A' for Active; 'I' for Inactive)
REMARK    1  A    between atoms: O_3  and  C_20
REMARK    2  A    between atoms: O_3  and  C_28
REMARK    3  A    between atoms: O_4  and  C_22
REMARK    4  A    between atoms: O_4  and  C_29
REMARK    5  A    between atoms: O_5  and  C_27
REMARK    6  A    between atoms: O_5  and  C_30
REMARK    7  A    between atoms: C_9  and  C_13
REMARK    8  A    between atoms: C_14  and  C_15
REMARK    9  A    between atoms: C_16  and  C_19
REMARK                            x       y       z     vdW  Elec       q    Type
REMARK                         _______ _______ _______ _____ _____    ______ ____
ROOT
ATOM      2  O   UNL     1      -5.222   0.432  26.842  0.00  0.00    -0.270 OA
ATOM      6  N   UNL     1      -4.133  -0.373  24.955  0.00  0.00    -0.297 N 
ATOM      9  C   UNL     1      -2.707  -1.567  23.469  0.00  0.00    +0.095 C 
ATOM     10  C   UNL     1      -3.737  -2.529  24.082  0.00  0.00    +0.033 C 
ATOM     11  C   UNL     1      -3.359  -0.200  23.724  0.00  0.00    +0.121 C 
ATOM     12  C   UNL     1      -4.258  -1.780  25.301  0.00  0.00    +0.109 C 
ATOM     14  C   UNL     1      -4.639   0.623  25.776  0.00  0.00    +0.247 C 
ENDROOT
BRANCH  14  15
ATOM     15  C   UNL     1      -4.450   2.017  25.348  0.00  0.00    +0.041 A 
ATOM     17  C   UNL     1      -3.163   2.528  25.181  0.00  0.00    +0.062 A 
ATOM     18  C   UNL     1      -5.559   2.830  25.110  0.00  0.00    +0.017 A 
ATOM     20  C   UNL     1      -2.984   3.850  24.776  0.00  0.00    +0.162 A 
ATOM     21  C   UNL     1      -5.380   4.152  24.705  0.00  0.00    +0.050 A 
ATOM     22  C   UNL     1      -4.093   4.663  24.537  0.00  0.00    +0.162 A 
BRANCH  20   3
ATOM      3  O   UNL     1      -1.722   4.338  24.616  0.00  0.00    -0.491 OA
ATOM     28  C   UNL     1      -0.651   3.542  25.122  0.00  0.00    +0.277 C 
ENDBRANCH  20   3
BRANCH  22   4
ATOM      4  O   UNL     1      -3.932   5.957  24.142  0.00  0.00    -0.491 OA
ATOM     29  C   UNL     1      -4.155   6.246  22.764  0.00  0.00    +0.277 C 
ENDBRANCH  22   4
ENDBRANCH  14  15
BRANCH   9  13
ATOM      1  O   UNL     1      -0.291  -1.129  23.455  0.00  0.00    -0.420 OA
ATOM      7  N   UNL     1      -0.954  -2.511  25.084  0.00  0.00    -0.112 NA
ATOM      8  N   UNL     1       0.415  -2.352  25.190  0.00  0.00    -0.107 NA
ATOM     13  C   UNL     1      -1.323  -1.779  24.058  0.00  0.00    +0.222 A 
ATOM     16  C   UNL     1       0.758  -1.537  24.219  0.00  0.00    +0.248 A 
BRANCH  16  19
ATOM     19  C   UNL     1       2.043  -1.022  23.847  0.00  0.00    +0.039 A 
ATOM     23  C   UNL     1       3.200  -1.737  24.161  0.00  0.00    +0.017 A 
ATOM     24  C   UNL     1       2.139   0.195  23.172  0.00  0.00    +0.017 A 
ATOM     25  C   UNL     1       4.450  -1.235  23.799  0.00  0.00    +0.046 A 
ATOM     26  C   UNL     1       3.389   0.697  22.810  0.00  0.00    +0.046 A 
ATOM     27  C   UNL     1       4.545  -0.019  23.123  0.00  0.00    +0.120 A 
BRANCH  27   5
ATOM      5  O   UNL     1       5.764   0.469  22.768  0.00  0.00    -0.495 OA
ATOM     30  C   UNL     1       6.901  -0.335  23.081  0.00  0.00    +0.277 C 
ENDBRANCH  27   5
ENDBRANCH  16  19
ENDBRANCH   9  13
TORSDOF 6
ENDMDL
