MODEL 1
REMARK VINA RESULT:       1.6      0.000      0.000
REMARK  Name = 38029166
REMARK  14 active torsions:
REMARK  status: ('A' for Active; 'I' for Inactive)
REMARK    1  A    between atoms: O_3  and  C_31
REMARK    2  A    between atoms: O_3  and  C_35
REMARK    3  A    between atoms: N_4  and  C_15
REMARK    4  A    between atoms: N_5  and  C_22
REMARK    5  A    between atoms: N_5  and  C_23
REMARK    6  A    between atoms: N_6  and  C_25
REMARK    7  A    between atoms: C_8  and  C_12
REMARK    8  A    between atoms: C_9  and  C_15
REMARK    9  A    between atoms: C_11  and  C_16
REMARK   10  A    between atoms: C_12  and  C_17
REMARK   11  A    between atoms: C_12  and  C_18
REMARK   12  A    between atoms: C_13  and  C_19
REMARK   13  A    between atoms: C_16  and  C_20
REMARK   14  A    between atoms: C_22  and  C_24
REMARK                            x       y       z     vdW  Elec       q    Type
REMARK                         _______ _______ _______ _____ _____    ______ ____
ROOT
ATOM      8  C   UNL     1      -2.360   4.328  24.980  0.00  0.00    +0.000 C 
ATOM      9  C   UNL     1      -2.605   3.711  26.381  0.00  0.00    +0.032 C 
ATOM     10  C   UNL     1      -3.643   4.987  24.453  0.00  0.00    +0.012 C 
ATOM     11  C   UNL     1      -4.812   3.989  24.350  0.00  0.00    +0.023 C 
ATOM     13  C   UNL     1      -4.948   3.150  25.605  0.00  0.00    -0.073 C 
ATOM     14  C   UNL     1      -3.956   3.049  26.507  0.00  0.00    -0.022 C 
ATOM     19  C   UNL     1      -6.269   2.465  25.821  0.00  0.00    +0.039 C 
ENDROOT
BRANCH   8  12
ATOM     12  C   UNL     1      -1.221   5.352  25.001  0.00  0.00    -0.013 C 
ATOM     17  C   UNL     1      -0.252   5.092  23.851  0.00  0.00    +0.007 C 
ATOM     18  C   UNL     1      -1.779   6.770  24.928  0.00  0.00    +0.007 C 
ENDBRANCH   8  12
BRANCH   9  15
ATOM     15  C   UNL     1      -1.506   2.705  26.741  0.00  0.00    +0.113 C 
BRANCH  15   4
ATOM      2  O   UNL     1      -0.384   0.484  25.323  0.00  0.00    -0.253 OA
ATOM      4  N   UNL     1      -0.444   2.751  25.786  0.00  0.00    -0.299 N 
ATOM      6  N   UNL     1       1.092   1.963  24.253  0.00  0.00    -0.269 N 
ATOM     21  C   UNL     1       0.058   1.613  25.127  0.00  0.00    +0.304 C 
ATOM     36  H   UNL     1      -0.072   3.656  25.518  0.00  0.00    +0.150 HD
ATOM     37  H   UNL     1       1.339   2.949  24.210  0.00  0.00    +0.156 HD
BRANCH   6  25
ATOM     25  C   UNL     1       1.847   1.109  23.415  0.00  0.00    +0.038 A 
ATOM     28  C   UNL     1       3.239   1.099  23.501  0.00  0.00    +0.069 A 
ATOM     29  C   UNL     1       1.198   0.277  22.502  0.00  0.00    +0.023 A 
ATOM     31  C   UNL     1       3.982   0.256  22.674  0.00  0.00    +0.122 A 
ATOM     33  C   UNL     1       1.941  -0.565  21.675  0.00  0.00    +0.005 A 
ATOM     34  C   UNL     1       3.334  -0.576  21.761  0.00  0.00    +0.046 A 
BRANCH  31   3
ATOM      3  O   UNL     1       5.341   0.249  22.757  0.00  0.00    -0.495 OA
ATOM     35  C   UNL     1       5.913  -0.186  23.989  0.00  0.00    +0.277 C 
ENDBRANCH  31   3
ENDBRANCH   6  25
ENDBRANCH  15   4
ENDBRANCH   9  15
BRANCH  11  16
ATOM     16  C   UNL     1      -4.671   3.100  23.109  0.00  0.00    +0.103 C 
BRANCH  16  20
ATOM      1  O   UNL     1      -2.327   3.129  22.609  0.00  0.00    -0.276 OA
ATOM      5  N   UNL     1      -3.208   1.128  23.381  0.00  0.00    -0.300 N 
ATOM     20  C   UNL     1      -3.294   2.473  23.005  0.00  0.00    +0.216 C 
ATOM     23  C   UNL     1      -1.956   0.382  23.338  0.00  0.00    +0.132 C 
BRANCH   5  22
ATOM     22  C   UNL     1      -4.366   0.370  23.848  0.00  0.00    +0.144 C 
BRANCH  22  24
ATOM      7  N   UNL     1      -3.767  -3.340  24.269  0.00  0.00    -0.263 NA
ATOM     24  C   UNL     1      -3.970  -0.939  24.467  0.00  0.00    -0.012 A 
ATOM     26  C   UNL     1      -3.459  -0.994  25.760  0.00  0.00    +0.008 A 
ATOM     27  C   UNL     1      -4.102  -2.129  23.771  0.00  0.00    +0.115 A 
ATOM     30  C   UNL     1      -3.102  -2.222  26.308  0.00  0.00    +0.020 A 
ATOM     32  C   UNL     1      -3.274  -3.355  25.529  0.00  0.00    +0.111 A 
ENDBRANCH  22  24
ENDBRANCH   5  22
ENDBRANCH  16  20
ENDBRANCH  11  16
TORSDOF 9
ENDMDL
MODEL 2
REMARK VINA RESULT:       1.8      2.786      5.124
REMARK  Name = 38029166
REMARK  14 active torsions:
REMARK  status: ('A' for Active; 'I' for Inactive)
REMARK    1  A    between atoms: O_3  and  C_31
REMARK    2  A    between atoms: O_3  and  C_35
REMARK    3  A    between atoms: N_4  and  C_15
REMARK    4  A    between atoms: N_5  and  C_22
REMARK    5  A    between atoms: N_5  and  C_23
REMARK    6  A    between atoms: N_6  and  C_25
REMARK    7  A    between atoms: C_8  and  C_12
REMARK    8  A    between atoms: C_9  and  C_15
REMARK    9  A    between atoms: C_11  and  C_16
REMARK   10  A    between atoms: C_12  and  C_17
REMARK   11  A    between atoms: C_12  and  C_18
REMARK   12  A    between atoms: C_13  and  C_19
REMARK   13  A    between atoms: C_16  and  C_20
REMARK   14  A    between atoms: C_22  and  C_24
REMARK                            x       y       z     vdW  Elec       q    Type
REMARK                         _______ _______ _______ _____ _____    ______ ____
ROOT
ATOM      8  C   UNL     1      -3.375   2.201  23.601  0.00  0.00    +0.000 C 
ATOM      9  C   UNL     1      -4.034   3.428  24.282  0.00  0.00    +0.032 C 
ATOM     10  C   UNL     1      -4.416   1.096  23.364  0.00  0.00    +0.012 C 
ATOM     11  C   UNL     1      -5.081   0.631  24.673  0.00  0.00    +0.023 C 
ATOM     13  C   UNL     1      -5.521   1.802  25.529  0.00  0.00    -0.073 C 
ATOM     14  C   UNL     1      -5.052   3.046  25.330  0.00  0.00    -0.022 C 
ATOM     19  C   UNL     1      -6.546   1.517  26.590  0.00  0.00    +0.039 C 
ENDROOT
BRANCH   8  12
ATOM     12  C   UNL     1      -2.706   2.577  22.277  0.00  0.00    -0.013 C 
ATOM     17  C   UNL     1      -2.181   1.329  21.573  0.00  0.00    +0.007 C 
ATOM     18  C   UNL     1      -3.683   3.333  21.382  0.00  0.00    +0.007 C 
ENDBRANCH   8  12
BRANCH   9  15
ATOM     15  C   UNL     1      -2.979   4.348  24.904  0.00  0.00    +0.113 C 
BRANCH  15   4
ATOM      2  O   UNL     1      -0.206   4.179  25.601  0.00  0.00    -0.253 OA
ATOM      4  N   UNL     1      -2.429   3.763  26.087  0.00  0.00    -0.299 N 
ATOM      6  N   UNL     1      -0.811   3.085  27.588  0.00  0.00    -0.269 N 
ATOM     21  C   UNL     1      -1.050   3.716  26.363  0.00  0.00    +0.304 C 
ATOM     36  H   UNL     1      -3.067   3.420  26.798  0.00  0.00    +0.150 HD
ATOM     37  H   UNL     1      -1.627   2.754  28.098  0.00  0.00    +0.156 HD
BRANCH   6  25
ATOM     25  C   UNL     1       0.435   2.844  28.212  0.00  0.00    +0.038 A 
ATOM     28  C   UNL     1       0.479   2.381  29.527  0.00  0.00    +0.069 A 
ATOM     29  C   UNL     1       1.621   3.072  27.513  0.00  0.00    +0.023 A 
ATOM     31  C   UNL     1       1.709   2.144  30.142  0.00  0.00    +0.122 A 
ATOM     33  C   UNL     1       2.850   2.836  28.127  0.00  0.00    +0.005 A 
ATOM     34  C   UNL     1       2.894   2.372  29.442  0.00  0.00    +0.046 A 
BRANCH  31   3
ATOM      3  O   UNL     1       1.751   1.694  31.425  0.00  0.00    -0.495 OA
ATOM     35  C   UNL     1       0.731   2.156  32.309  0.00  0.00    +0.277 C 
ENDBRANCH  31   3
ENDBRANCH   6  25
ENDBRANCH  15   4
ENDBRANCH   9  15
BRANCH  11  16
ATOM     16  C   UNL     1      -4.158  -0.307  25.458  0.00  0.00    +0.103 C 
BRANCH  16  20
ATOM      1  O   UNL     1      -4.642  -2.136  23.986  0.00  0.00    -0.276 OA
ATOM      5  N   UNL     1      -2.467  -1.973  24.773  0.00  0.00    -0.300 N 
ATOM     20  C   UNL     1      -3.797  -1.552  24.669  0.00  0.00    +0.216 C 
ATOM     23  C   UNL     1      -1.963  -3.150  24.077  0.00  0.00    +0.132 C 
BRANCH   5  22
ATOM     22  C   UNL     1      -1.482  -1.264  25.587  0.00  0.00    +0.144 C 
BRANCH  22  24
ATOM      7  N   UNL     1       1.063  -0.339  22.949  0.00  0.00    -0.263 NA
ATOM     24  C   UNL     1      -0.546  -0.442  24.749  0.00  0.00    -0.012 A 
ATOM     26  C   UNL     1      -0.402   0.924  24.967  0.00  0.00    +0.008 A 
ATOM     27  C   UNL     1       0.202  -1.020  23.737  0.00  0.00    +0.115 A 
ATOM     30  C   UNL     1       0.474   1.659  24.175  0.00  0.00    +0.020 A 
ATOM     32  C   UNL     1       1.177   0.987  23.189  0.00  0.00    +0.111 A 
ENDBRANCH  22  24
ENDBRANCH   5  22
ENDBRANCH  16  20
ENDBRANCH  11  16
TORSDOF 9
ENDMDL
MODEL 3
REMARK VINA RESULT:       2.9      1.785      4.951
REMARK  Name = 38029166
REMARK  14 active torsions:
REMARK  status: ('A' for Active; 'I' for Inactive)
REMARK    1  A    between atoms: O_3  and  C_31
REMARK    2  A    between atoms: O_3  and  C_35
REMARK    3  A    between atoms: N_4  and  C_15
REMARK    4  A    between atoms: N_5  and  C_22
REMARK    5  A    between atoms: N_5  and  C_23
REMARK    6  A    between atoms: N_6  and  C_25
REMARK    7  A    between atoms: C_8  and  C_12
REMARK    8  A    between atoms: C_9  and  C_15
REMARK    9  A    between atoms: C_11  and  C_16
REMARK   10  A    between atoms: C_12  and  C_17
REMARK   11  A    between atoms: C_12  and  C_18
REMARK   12  A    between atoms: C_13  and  C_19
REMARK   13  A    between atoms: C_16  and  C_20
REMARK   14  A    between atoms: C_22  and  C_24
REMARK                            x       y       z     vdW  Elec       q    Type
REMARK                         _______ _______ _______ _____ _____    ______ ____
ROOT
ATOM      8  C   UNL     1      -4.303  -0.717  24.627  0.00  0.00    +0.000 C 
ATOM      9  C   UNL     1      -3.139  -0.442  23.641  0.00  0.00    +0.032 C 
ATOM     10  C   UNL     1      -5.516   0.161  24.283  0.00  0.00    +0.012 C 
ATOM     11  C   UNL     1      -5.180   1.663  24.329  0.00  0.00    +0.023 C 
ATOM     13  C   UNL     1      -3.889   1.975  23.598  0.00  0.00    -0.073 C 
ATOM     14  C   UNL     1      -2.997   1.019  23.287  0.00  0.00    -0.022 C 
ATOM     19  C   UNL     1      -3.670   3.405  23.192  0.00  0.00    +0.039 C 
ENDROOT
BRANCH   8  12
ATOM     12  C   UNL     1      -4.713  -2.192  24.626  0.00  0.00    -0.013 C 
ATOM     17  C   UNL     1      -4.977  -2.670  23.201  0.00  0.00    +0.007 C 
ATOM     18  C   UNL     1      -3.638  -3.044  25.293  0.00  0.00    +0.007 C 
ENDBRANCH   8  12
BRANCH   9  15
ATOM     15  C   UNL     1      -1.810  -0.967  24.195  0.00  0.00    +0.113 C 
BRANCH  15   4
ATOM      2  O   UNL     1       0.968  -1.369  24.761  0.00  0.00    -0.253 OA
ATOM      4  N   UNL     1      -0.705  -0.354  23.528  0.00  0.00    -0.299 N 
ATOM      6  N   UNL     1       1.497   0.140  23.041  0.00  0.00    -0.269 N 
ATOM     21  C   UNL     1       0.639  -0.600  23.862  0.00  0.00    +0.304 C 
ATOM     36  H   UNL     1      -0.893   0.241  22.727  0.00  0.00    +0.150 HD
ATOM     37  H   UNL     1       1.059   0.734  22.342  0.00  0.00    +0.156 HD
BRANCH   6  25
ATOM     25  C   UNL     1       2.911   0.165  23.064  0.00  0.00    +0.038 A 
ATOM     28  C   UNL     1       3.621  -0.925  23.568  0.00  0.00    +0.069 A 
ATOM     29  C   UNL     1       3.597   1.281  22.584  0.00  0.00    +0.023 A 
ATOM     31  C   UNL     1       5.016  -0.899  23.590  0.00  0.00    +0.122 A 
ATOM     33  C   UNL     1       4.991   1.308  22.606  0.00  0.00    +0.005 A 
ATOM     34  C   UNL     1       5.700   0.217  23.109  0.00  0.00    +0.046 A 
BRANCH  31   3
ATOM      3  O   UNL     1       5.707  -1.963  24.083  0.00  0.00    -0.495 OA
ATOM     35  C   UNL     1       6.711  -1.688  25.059  0.00  0.00    +0.277 C 
ENDBRANCH  31   3
ENDBRANCH   6  25
ENDBRANCH  15   4
ENDBRANCH   9  15
BRANCH  11  16
ATOM     16  C   UNL     1      -5.128   2.174  25.774  0.00  0.00    +0.103 C 
BRANCH  16  20
ATOM      1  O   UNL     1      -5.972   4.392  25.434  0.00  0.00    -0.276 OA
ATOM      5  N   UNL     1      -3.872   4.207  26.400  0.00  0.00    -0.300 N 
ATOM     20  C   UNL     1      -5.047   3.687  25.845  0.00  0.00    +0.216 C 
ATOM     23  C   UNL     1      -3.640   5.640  26.540  0.00  0.00    +0.132 C 
BRANCH   5  22
ATOM     22  C   UNL     1      -2.789   3.353  26.883  0.00  0.00    +0.144 C 
BRANCH  22  24
ATOM      7  N   UNL     1       0.317   2.178  25.076  0.00  0.00    -0.263 NA
ATOM     24  C   UNL     1      -1.624   3.332  25.936  0.00  0.00    -0.012 A 
ATOM     26  C   UNL     1      -1.388   4.393  25.067  0.00  0.00    +0.008 A 
ATOM     27  C   UNL     1      -0.750   2.259  25.901  0.00  0.00    +0.115 A 
ATOM     30  C   UNL     1      -0.300   4.345  24.202  0.00  0.00    +0.020 A 
ATOM     32  C   UNL     1       0.515   3.226  24.246  0.00  0.00    +0.111 A 
ENDBRANCH  22  24
ENDBRANCH   5  22
ENDBRANCH  16  20
ENDBRANCH  11  16
TORSDOF 9
ENDMDL
MODEL 4
REMARK VINA RESULT:       3.0      1.776      2.642
REMARK  Name = 38029166
REMARK  14 active torsions:
REMARK  status: ('A' for Active; 'I' for Inactive)
REMARK    1  A    between atoms: O_3  and  C_31
REMARK    2  A    between atoms: O_3  and  C_35
REMARK    3  A    between atoms: N_4  and  C_15
REMARK    4  A    between atoms: N_5  and  C_22
REMARK    5  A    between atoms: N_5  and  C_23
REMARK    6  A    between atoms: N_6  and  C_25
REMARK    7  A    between atoms: C_8  and  C_12
REMARK    8  A    between atoms: C_9  and  C_15
REMARK    9  A    between atoms: C_11  and  C_16
REMARK   10  A    between atoms: C_12  and  C_17
REMARK   11  A    between atoms: C_12  and  C_18
REMARK   12  A    between atoms: C_13  and  C_19
REMARK   13  A    between atoms: C_16  and  C_20
REMARK   14  A    between atoms: C_22  and  C_24
REMARK                            x       y       z     vdW  Elec       q    Type
REMARK                         _______ _______ _______ _____ _____    ______ ____
ROOT
ATOM      8  C   UNL     1      -3.208   2.640  24.106  0.00  0.00    +0.000 C 
ATOM      9  C   UNL     1      -2.850   3.989  24.781  0.00  0.00    +0.032 C 
ATOM     10  C   UNL     1      -4.651   2.669  23.583  0.00  0.00    +0.012 C 
ATOM     11  C   UNL     1      -5.672   2.940  24.704  0.00  0.00    +0.023 C 
ATOM     13  C   UNL     1      -5.249   4.099  25.584  0.00  0.00    -0.073 C 
ATOM     14  C   UNL     1      -3.987   4.562  25.594  0.00  0.00    -0.022 C 
ATOM     19  C   UNL     1      -6.321   4.743  26.418  0.00  0.00    +0.039 C 
ENDROOT
BRANCH   8  12
ATOM     12  C   UNL     1      -2.247   2.306  22.962  0.00  0.00    -0.013 C 
ATOM     17  C   UNL     1      -2.188   0.797  22.741  0.00  0.00    +0.007 C 
ATOM     18  C   UNL     1      -2.671   3.023  21.684  0.00  0.00    +0.007 C 
ENDBRANCH   8  12
BRANCH   9  15
ATOM     15  C   UNL     1      -1.606   3.852  25.666  0.00  0.00    +0.113 C 
BRANCH  15   4
ATOM      2  O   UNL     1       0.416   3.516  23.666  0.00  0.00    -0.253 OA
ATOM      4  N   UNL     1      -0.898   2.648  25.361  0.00  0.00    -0.299 N 
ATOM      6  N   UNL     1       0.604   1.260  24.290  0.00  0.00    -0.269 N 
ATOM     21  C   UNL     1       0.087   2.558  24.360  0.00  0.00    +0.304 C 
ATOM     36  H   UNL     1      -1.063   1.830  25.938  0.00  0.00    +0.150 HD
ATOM     37  H   UNL     1       0.219   0.580  24.940  0.00  0.00    +0.156 HD
BRANCH   6  25
ATOM     25  C   UNL     1       1.605   0.771  23.418  0.00  0.00    +0.038 A 
ATOM     28  C   UNL     1       2.950   1.020  23.691  0.00  0.00    +0.069 A 
ATOM     29  C   UNL     1       1.247   0.041  22.284  0.00  0.00    +0.023 A 
ATOM     31  C   UNL     1       3.937   0.537  22.830  0.00  0.00    +0.122 A 
ATOM     33  C   UNL     1       2.233  -0.441  21.424  0.00  0.00    +0.005 A 
ATOM     34  C   UNL     1       3.579  -0.193  21.698  0.00  0.00    +0.046 A 
BRANCH  31   3
ATOM      3  O   UNL     1       5.250   0.782  23.097  0.00  0.00    -0.495 OA
ATOM     35  C   UNL     1       5.864  -0.011  24.111  0.00  0.00    +0.277 C 
ENDBRANCH  31   3
ENDBRANCH   6  25
ENDBRANCH  15   4
ENDBRANCH   9  15
BRANCH  11  16
ATOM     16  C   UNL     1      -5.923   1.680  25.539  0.00  0.00    +0.103 C 
BRANCH  16  20
ATOM      1  O   UNL     1      -6.878   0.226  23.890  0.00  0.00    -0.276 OA
ATOM      5  N   UNL     1      -4.898  -0.468  24.876  0.00  0.00    -0.300 N 
ATOM     20  C   UNL     1      -5.959   0.424  24.688  0.00  0.00    +0.216 C 
ATOM     23  C   UNL     1      -4.787  -1.719  24.135  0.00  0.00    +0.132 C 
BRANCH   5  22
ATOM     22  C   UNL     1      -3.819  -0.213  25.827  0.00  0.00    +0.144 C 
BRANCH  22  24
ATOM      7  N   UNL     1      -0.207  -1.330  25.777  0.00  0.00    -0.263 NA
ATOM     24  C   UNL     1      -2.588  -1.012  25.510  0.00  0.00    -0.012 A 
ATOM     26  C   UNL     1      -2.653  -2.132  24.687  0.00  0.00    +0.008 A 
ATOM     27  C   UNL     1      -1.352  -0.657  26.024  0.00  0.00    +0.115 A 
ATOM     30  C   UNL     1      -1.495  -2.851  24.409  0.00  0.00    +0.020 A 
ATOM     32  C   UNL     1      -0.308  -2.413  24.973  0.00  0.00    +0.111 A 
ENDBRANCH  22  24
ENDBRANCH   5  22
ENDBRANCH  16  20
ENDBRANCH  11  16
TORSDOF 9
ENDMDL
MODEL 5
REMARK VINA RESULT:       3.8      1.435      3.539
REMARK  Name = 38029166
REMARK  14 active torsions:
REMARK  status: ('A' for Active; 'I' for Inactive)
REMARK    1  A    between atoms: O_3  and  C_31
REMARK    2  A    between atoms: O_3  and  C_35
REMARK    3  A    between atoms: N_4  and  C_15
REMARK    4  A    between atoms: N_5  and  C_22
REMARK    5  A    between atoms: N_5  and  C_23
REMARK    6  A    between atoms: N_6  and  C_25
REMARK    7  A    between atoms: C_8  and  C_12
REMARK    8  A    between atoms: C_9  and  C_15
REMARK    9  A    between atoms: C_11  and  C_16
REMARK   10  A    between atoms: C_12  and  C_17
REMARK   11  A    between atoms: C_12  and  C_18
REMARK   12  A    between atoms: C_13  and  C_19
REMARK   13  A    between atoms: C_16  and  C_20
REMARK   14  A    between atoms: C_22  and  C_24
REMARK                            x       y       z     vdW  Elec       q    Type
REMARK                         _______ _______ _______ _____ _____    ______ ____
ROOT
ATOM      8  C   UNL     1      -4.679   2.666  25.270  0.00  0.00    +0.000 C 
ATOM      9  C   UNL     1      -4.390   3.276  23.875  0.00  0.00    +0.032 C 
ATOM     10  C   UNL     1      -4.545   3.739  26.362  0.00  0.00    +0.012 C 
ATOM     11  C   UNL     1      -3.141   4.373  26.386  0.00  0.00    +0.023 C 
ATOM     13  C   UNL     1      -2.672   4.758  24.998  0.00  0.00    -0.073 C 
ATOM     14  C   UNL     1      -3.252   4.268  23.888  0.00  0.00    -0.022 C 
ATOM     19  C   UNL     1      -1.551   5.756  24.914  0.00  0.00    +0.039 C 
ENDROOT
BRANCH   8  12
ATOM     12  C   UNL     1      -6.071   2.031  25.336  0.00  0.00    -0.013 C 
ATOM     17  C   UNL     1      -6.079   0.693  24.602  0.00  0.00    +0.007 C 
ATOM     18  C   UNL     1      -6.508   1.855  26.787  0.00  0.00    +0.007 C 
ENDBRANCH   8  12
BRANCH   9  15
ATOM     15  C   UNL     1      -4.102   2.181  22.842  0.00  0.00    +0.113 C 
BRANCH  15   4
ATOM      2  O   UNL     1      -1.634   2.070  21.395  0.00  0.00    -0.253 OA
ATOM      4  N   UNL     1      -2.934   1.439  23.201  0.00  0.00    -0.299 N 
ATOM      6  N   UNL     1      -0.782   0.619  23.034  0.00  0.00    -0.269 N 
ATOM     21  C   UNL     1      -1.752   1.432  22.438  0.00  0.00    +0.304 C 
ATOM     36  H   UNL     1      -2.929   0.942  24.086  0.00  0.00    +0.150 HD
ATOM     37  H   UNL     1      -1.045   0.157  23.901  0.00  0.00    +0.156 HD
BRANCH   6  25
ATOM     25  C   UNL     1       0.530   0.356  22.575  0.00  0.00    +0.038 A 
ATOM     28  C   UNL     1       1.623   0.938  23.217  0.00  0.00    +0.069 A 
ATOM     29  C   UNL     1       0.730  -0.485  21.480  0.00  0.00    +0.023 A 
ATOM     31  C   UNL     1       2.917   0.677  22.764  0.00  0.00    +0.122 A 
ATOM     33  C   UNL     1       2.023  -0.746  21.027  0.00  0.00    +0.005 A 
ATOM     34  C   UNL     1       3.117  -0.164  21.670  0.00  0.00    +0.046 A 
BRANCH  31   3
ATOM      3  O   UNL     1       3.983   1.247  23.390  0.00  0.00    -0.495 OA
ATOM     35  C   UNL     1       5.154   0.445  23.535  0.00  0.00    +0.277 C 
ENDBRANCH  31   3
ENDBRANCH   6  25
ENDBRANCH  15   4
ENDBRANCH   9  15
BRANCH  11  16
ATOM     16  C   UNL     1      -2.129   3.447  27.069  0.00  0.00    +0.103 C 
BRANCH  16  20
ATOM      1  O   UNL     1      -0.366   3.989  25.537  0.00  0.00    -0.276 OA
ATOM      5  N   UNL     1      -0.615   1.753  26.097  0.00  0.00    -0.300 N 
ATOM     20  C   UNL     1      -0.959   3.107  26.164  0.00  0.00    +0.216 C 
ATOM     23  C   UNL     1       0.484   1.264  25.273  0.00  0.00    +0.132 C 
BRANCH   5  22
ATOM     22  C   UNL     1      -1.331   0.725  26.849  0.00  0.00    +0.144 C 
BRANCH  22  24
ATOM      7  N   UNL     1      -1.080  -2.337  24.645  0.00  0.00    -0.263 NA
ATOM     24  C   UNL     1      -1.734  -0.431  25.979  0.00  0.00    -0.012 A 
ATOM     26  C   UNL     1      -3.073  -0.679  25.693  0.00  0.00    +0.008 A 
ATOM     27  C   UNL     1      -0.786  -1.282  25.436  0.00  0.00    +0.115 A 
ATOM     30  C   UNL     1      -3.415  -1.757  24.882  0.00  0.00    +0.020 A 
ATOM     32  C   UNL     1      -2.391  -2.548  24.388  0.00  0.00    +0.111 A 
ENDBRANCH  22  24
ENDBRANCH   5  22
ENDBRANCH  16  20
ENDBRANCH  11  16
TORSDOF 9
ENDMDL
MODEL 6
REMARK VINA RESULT:       3.8      2.088      4.759
REMARK  Name = 38029166
REMARK  14 active torsions:
REMARK  status: ('A' for Active; 'I' for Inactive)
REMARK    1  A    between atoms: O_3  and  C_31
REMARK    2  A    between atoms: O_3  and  C_35
REMARK    3  A    between atoms: N_4  and  C_15
REMARK    4  A    between atoms: N_5  and  C_22
REMARK    5  A    between atoms: N_5  and  C_23
REMARK    6  A    between atoms: N_6  and  C_25
REMARK    7  A    between atoms: C_8  and  C_12
REMARK    8  A    between atoms: C_9  and  C_15
REMARK    9  A    between atoms: C_11  and  C_16
REMARK   10  A    between atoms: C_12  and  C_17
REMARK   11  A    between atoms: C_12  and  C_18
REMARK   12  A    between atoms: C_13  and  C_19
REMARK   13  A    between atoms: C_16  and  C_20
REMARK   14  A    between atoms: C_22  and  C_24
REMARK                            x       y       z     vdW  Elec       q    Type
REMARK                         _______ _______ _______ _____ _____    ______ ____
ROOT
ATOM      8  C   UNL     1      -2.817   0.904  24.521  0.00  0.00    +0.000 C 
ATOM      9  C   UNL     1      -3.208   1.483  23.137  0.00  0.00    +0.032 C 
ATOM     10  C   UNL     1      -3.869   1.279  25.575  0.00  0.00    +0.012 C 
ATOM     11  C   UNL     1      -4.039   2.803  25.713  0.00  0.00    +0.023 C 
ATOM     13  C   UNL     1      -4.164   3.481  24.363  0.00  0.00    -0.073 C 
ATOM     14  C   UNL     1      -3.800   2.870  23.222  0.00  0.00    -0.022 C 
ATOM     19  C   UNL     1      -4.758   4.861  24.351  0.00  0.00    +0.039 C 
ENDROOT
BRANCH   8  12
ATOM     12  C   UNL     1      -2.648  -0.617  24.473  0.00  0.00    -0.013 C 
ATOM     17  C   UNL     1      -1.858  -1.101  25.686  0.00  0.00    +0.007 C 
ATOM     18  C   UNL     1      -4.009  -1.302  24.404  0.00  0.00    +0.007 C 
ENDBRANCH   8  12
BRANCH   9  15
ATOM     15  C   UNL     1      -2.009   1.496  22.184  0.00  0.00    +0.113 C 
BRANCH  15   4
ATOM      2  O   UNL     1       0.175  -0.315  21.791  0.00  0.00    -0.253 OA
ATOM      4  N   UNL     1      -0.780   1.468  22.914  0.00  0.00    -0.299 N 
ATOM      6  N   UNL     1       1.328   0.757  23.533  0.00  0.00    -0.269 N 
ATOM     21  C   UNL     1       0.252   0.544  22.665  0.00  0.00    +0.304 C 
ATOM     36  H   UNL     1      -0.612   2.191  23.606  0.00  0.00    +0.150 HD
ATOM     37  H   UNL     1       1.229   1.515  24.204  0.00  0.00    +0.156 HD
BRANCH   6  25
ATOM     25  C   UNL     1       2.546   0.041  23.597  0.00  0.00    +0.038 A 
ATOM     28  C   UNL     1       3.755   0.702  23.386  0.00  0.00    +0.069 A 
ATOM     29  C   UNL     1       2.538  -1.328  23.869  0.00  0.00    +0.023 A 
ATOM     31  C   UNL     1       4.957  -0.004  23.449  0.00  0.00    +0.122 A 
ATOM     33  C   UNL     1       3.738  -2.034  23.932  0.00  0.00    +0.005 A 
ATOM     34  C   UNL     1       4.948  -1.372  23.722  0.00  0.00    +0.046 A 
BRANCH  31   3
ATOM      3  O   UNL     1       6.137   0.642  23.243  0.00  0.00    -0.495 OA
ATOM     35  C   UNL     1       7.300  -0.168  23.081  0.00  0.00    +0.277 C 
ENDBRANCH  31   3
ENDBRANCH   6  25
ENDBRANCH  15   4
ENDBRANCH   9  15
BRANCH  11  16
ATOM     16  C   UNL     1      -2.896   3.415  26.531  0.00  0.00    +0.103 C 
BRANCH  16  20
ATOM      1  O   UNL     1      -2.136   5.152  25.062  0.00  0.00    -0.276 OA
ATOM      5  N   UNL     1      -0.621   3.471  25.569  0.00  0.00    -0.300 N 
ATOM     20  C   UNL     1      -1.867   4.103  25.653  0.00  0.00    +0.216 C 
ATOM     23  C   UNL     1       0.474   4.005  24.768  0.00  0.00    +0.132 C 
BRANCH   5  22
ATOM     22  C   UNL     1      -0.323   2.229  26.279  0.00  0.00    +0.144 C 
BRANCH  22  24
ATOM      7  N   UNL     1       2.708   3.062  28.381  0.00  0.00    -0.263 NA
ATOM     24  C   UNL     1       0.546   2.463  27.481  0.00  0.00    -0.012 A 
ATOM     26  C   UNL     1       0.044   2.306  28.768  0.00  0.00    +0.008 A 
ATOM     27  C   UNL     1       1.872   2.838  27.343  0.00  0.00    +0.115 A 
ATOM     30  C   UNL     1       0.874   2.529  29.863  0.00  0.00    +0.020 A 
ATOM     32  C   UNL     1       2.185   2.901  29.618  0.00  0.00    +0.111 A 
ENDBRANCH  22  24
ENDBRANCH   5  22
ENDBRANCH  16  20
ENDBRANCH  11  16
TORSDOF 9
ENDMDL
MODEL 7
REMARK VINA RESULT:       4.1      1.871      3.022
REMARK  Name = 38029166
REMARK  14 active torsions:
REMARK  status: ('A' for Active; 'I' for Inactive)
REMARK    1  A    between atoms: O_3  and  C_31
REMARK    2  A    between atoms: O_3  and  C_35
REMARK    3  A    between atoms: N_4  and  C_15
REMARK    4  A    between atoms: N_5  and  C_22
REMARK    5  A    between atoms: N_5  and  C_23
REMARK    6  A    between atoms: N_6  and  C_25
REMARK    7  A    between atoms: C_8  and  C_12
REMARK    8  A    between atoms: C_9  and  C_15
REMARK    9  A    between atoms: C_11  and  C_16
REMARK   10  A    between atoms: C_12  and  C_17
REMARK   11  A    between atoms: C_12  and  C_18
REMARK   12  A    between atoms: C_13  and  C_19
REMARK   13  A    between atoms: C_16  and  C_20
REMARK   14  A    between atoms: C_22  and  C_24
REMARK                            x       y       z     vdW  Elec       q    Type
REMARK                         _______ _______ _______ _____ _____    ______ ____
ROOT
ATOM      8  C   UNL     1      -3.546   2.703  23.318  0.00  0.00    +0.000 C 
ATOM      9  C   UNL     1      -2.043   2.773  23.686  0.00  0.00    +0.032 C 
ATOM     10  C   UNL     1      -4.307   3.883  23.941  0.00  0.00    +0.012 C 
ATOM     11  C   UNL     1      -4.180   3.914  25.475  0.00  0.00    +0.023 C 
ATOM     13  C   UNL     1      -2.746   3.719  25.926  0.00  0.00    -0.073 C 
ATOM     14  C   UNL     1      -1.802   3.221  25.108  0.00  0.00    -0.022 C 
ATOM     19  C   UNL     1      -2.411   4.153  27.326  0.00  0.00    +0.039 C 
ENDROOT
BRANCH   8  12
ATOM     12  C   UNL     1      -3.761   2.689  21.802  0.00  0.00    -0.013 C 
ATOM     17  C   UNL     1      -4.226   4.059  21.318  0.00  0.00    +0.007 C 
ATOM     18  C   UNL     1      -2.481   2.267  21.087  0.00  0.00    +0.007 C 
ENDBRANCH   8  12
BRANCH   9  15
ATOM     15  C   UNL     1      -1.352   1.426  23.450  0.00  0.00    +0.113 C 
BRANCH  15   4
ATOM      2  O   UNL     1       0.588  -0.681  23.408  0.00  0.00    -0.253 OA
ATOM      4  N   UNL     1       0.070   1.573  23.482  0.00  0.00    -0.299 N 
ATOM      6  N   UNL     1       2.289   0.935  23.501  0.00  0.00    -0.269 N 
ATOM     21  C   UNL     1       0.965   0.487  23.459  0.00  0.00    +0.304 C 
ATOM     36  H   UNL     1       0.461   2.509  23.454  0.00  0.00    +0.150 HD
ATOM     37  H   UNL     1       2.429   1.941  23.543  0.00  0.00    +0.156 HD
BRANCH   6  25
ATOM     25  C   UNL     1       3.469   0.155  23.494  0.00  0.00    +0.038 A 
ATOM     28  C   UNL     1       4.702   0.758  23.244  0.00  0.00    +0.069 A 
ATOM     29  C   UNL     1       3.401  -1.217  23.736  0.00  0.00    +0.023 A 
ATOM     31  C   UNL     1       5.866  -0.011  23.238  0.00  0.00    +0.122 A 
ATOM     33  C   UNL     1       4.564  -1.987  23.729  0.00  0.00    +0.005 A 
ATOM     34  C   UNL     1       5.797  -1.383  23.480  0.00  0.00    +0.046 A 
BRANCH  31   3
ATOM      3  O   UNL     1       7.068   0.578  22.993  0.00  0.00    -0.495 OA
ATOM     35  C   UNL     1       8.233  -0.228  23.167  0.00  0.00    +0.277 C 
ENDBRANCH  31   3
ENDBRANCH   6  25
ENDBRANCH  15   4
ENDBRANCH   9  15
BRANCH  11  16
ATOM     16  C   UNL     1      -5.104   2.880  26.127  0.00  0.00    +0.103 C 
BRANCH  16  20
ATOM      1  O   UNL     1      -6.541   2.127  24.361  0.00  0.00    -0.276 OA
ATOM      5  N   UNL     1      -4.970   0.614  25.151  0.00  0.00    -0.300 N 
ATOM     20  C   UNL     1      -5.614   1.856  25.130  0.00  0.00    +0.216 C 
ATOM     23  C   UNL     1      -5.342  -0.475  24.256  0.00  0.00    +0.132 C 
BRANCH   5  22
ATOM     22  C   UNL     1      -3.874   0.316  26.070  0.00  0.00    +0.144 C 
BRANCH  22  24
ATOM      7  N   UNL     1      -0.845  -1.862  25.452  0.00  0.00    -0.263 NA
ATOM     24  C   UNL     1      -3.022  -0.820  25.580  0.00  0.00    -0.012 A 
ATOM     26  C   UNL     1      -3.570  -1.851  24.825  0.00  0.00    +0.008 A 
ATOM     27  C   UNL     1      -1.667  -0.872  25.863  0.00  0.00    +0.115 A 
ATOM     30  C   UNL     1      -2.755  -2.890  24.384  0.00  0.00    +0.020 A 
ATOM     32  C   UNL     1      -1.412  -2.848  24.721  0.00  0.00    +0.111 A 
ENDBRANCH  22  24
ENDBRANCH   5  22
ENDBRANCH  16  20
ENDBRANCH  11  16
TORSDOF 9
ENDMDL
MODEL 8
REMARK VINA RESULT:       4.3      1.893      5.613
REMARK  Name = 38029166
REMARK  14 active torsions:
REMARK  status: ('A' for Active; 'I' for Inactive)
REMARK    1  A    between atoms: O_3  and  C_31
REMARK    2  A    between atoms: O_3  and  C_35
REMARK    3  A    between atoms: N_4  and  C_15
REMARK    4  A    between atoms: N_5  and  C_22
REMARK    5  A    between atoms: N_5  and  C_23
REMARK    6  A    between atoms: N_6  and  C_25
REMARK    7  A    between atoms: C_8  and  C_12
REMARK    8  A    between atoms: C_9  and  C_15
REMARK    9  A    between atoms: C_11  and  C_16
REMARK   10  A    between atoms: C_12  and  C_17
REMARK   11  A    between atoms: C_12  and  C_18
REMARK   12  A    between atoms: C_13  and  C_19
REMARK   13  A    between atoms: C_16  and  C_20
REMARK   14  A    between atoms: C_22  and  C_24
REMARK                            x       y       z     vdW  Elec       q    Type
REMARK                         _______ _______ _______ _____ _____    ______ ____
ROOT
ATOM      8  C   UNL     1      -3.903   3.831  25.722  0.00  0.00    +0.000 C 
ATOM      9  C   UNL     1      -3.845   4.454  24.304  0.00  0.00    +0.032 C 
ATOM     10  C   UNL     1      -2.897   4.523  26.653  0.00  0.00    +0.012 C 
ATOM     11  C   UNL     1      -1.452   4.417  26.131  0.00  0.00    +0.023 C 
ATOM     13  C   UNL     1      -1.357   4.761  24.658  0.00  0.00    -0.073 C 
ATOM     14  C   UNL     1      -2.440   4.785  23.861  0.00  0.00    -0.022 C 
ATOM     19  C   UNL     1       0.004   5.120  24.133  0.00  0.00    +0.039 C 
ENDROOT
BRANCH   8  12
ATOM     12  C   UNL     1      -5.309   3.914  26.322  0.00  0.00    -0.013 C 
ATOM     17  C   UNL     1      -6.150   4.939  25.567  0.00  0.00    +0.007 C 
ATOM     18  C   UNL     1      -5.979   2.544  26.302  0.00  0.00    +0.007 C 
ENDBRANCH   8  12
BRANCH   9  15
ATOM     15  C   UNL     1      -4.505   3.535  23.269  0.00  0.00    +0.113 C 
BRANCH  15   4
ATOM      2  O   UNL     1      -3.029   1.146  22.705  0.00  0.00    -0.253 OA
ATOM      4  N   UNL     1      -4.739   2.237  23.819  0.00  0.00    -0.299 N 
ATOM      6  N   UNL     1      -4.430  -0.022  24.184  0.00  0.00    -0.269 N 
ATOM     21  C   UNL     1      -3.970   1.104  23.494  0.00  0.00    +0.304 C 
ATOM     36  H   UNL     1      -5.454   2.135  24.532  0.00  0.00    +0.150 HD
ATOM     37  H   UNL     1      -5.227   0.115  24.802  0.00  0.00    +0.156 HD
BRANCH   6  25
ATOM     25  C   UNL     1      -3.924  -1.341  24.127  0.00  0.00    +0.038 A 
ATOM     28  C   UNL     1      -2.668  -1.630  24.662  0.00  0.00    +0.069 A 
ATOM     29  C   UNL     1      -4.679  -2.354  23.535  0.00  0.00    +0.023 A 
ATOM     31  C   UNL     1      -2.169  -2.932  24.606  0.00  0.00    +0.122 A 
ATOM     33  C   UNL     1      -4.180  -3.655  23.479  0.00  0.00    +0.005 A 
ATOM     34  C   UNL     1      -2.925  -3.944  24.014  0.00  0.00    +0.046 A 
BRANCH  31   3
ATOM      3  O   UNL     1      -0.943  -3.212  25.127  0.00  0.00    -0.495 OA
ATOM     35  C   UNL     1      -0.111  -2.103  25.460  0.00  0.00    +0.277 C 
ENDBRANCH  31   3
ENDBRANCH   6  25
ENDBRANCH  15   4
ENDBRANCH   9  15
BRANCH  11  16
ATOM     16  C   UNL     1      -0.864   3.029  26.409  0.00  0.00    +0.103 C 
BRANCH  16  20
ATOM      1  O   UNL     1      -2.545   1.596  25.476  0.00  0.00    -0.276 OA
ATOM      5  N   UNL     1      -0.439   1.506  24.510  0.00  0.00    -0.300 N 
ATOM     20  C   UNL     1      -1.375   1.984  25.434  0.00  0.00    +0.216 C 
ATOM     23  C   UNL     1      -0.773   0.502  23.507  0.00  0.00    +0.132 C 
BRANCH   5  22
ATOM     22  C   UNL     1       0.942   1.980  24.478  0.00  0.00    +0.144 C 
BRANCH  22  24
ATOM      7  N   UNL     1       1.901  -0.469  21.761  0.00  0.00    -0.263 NA
ATOM     24  C   UNL     1       1.770   1.233  23.472  0.00  0.00    -0.012 A 
ATOM     26  C   UNL     1       3.122   1.515  23.307  0.00  0.00    +0.008 A 
ATOM     27  C   UNL     1       1.213   0.241  22.682  0.00  0.00    +0.115 A 
ATOM     30  C   UNL     1       3.864   0.805  22.368  0.00  0.00    +0.020 A 
ATOM     32  C   UNL     1       3.213  -0.168  21.628  0.00  0.00    +0.111 A 
ENDBRANCH  22  24
ENDBRANCH   5  22
ENDBRANCH  16  20
ENDBRANCH  11  16
TORSDOF 9
ENDMDL
MODEL 9
REMARK VINA RESULT:       4.7      1.786      2.177
REMARK  Name = 38029166
REMARK  14 active torsions:
REMARK  status: ('A' for Active; 'I' for Inactive)
REMARK    1  A    between atoms: O_3  and  C_31
REMARK    2  A    between atoms: O_3  and  C_35
REMARK    3  A    between atoms: N_4  and  C_15
REMARK    4  A    between atoms: N_5  and  C_22
REMARK    5  A    between atoms: N_5  and  C_23
REMARK    6  A    between atoms: N_6  and  C_25
REMARK    7  A    between atoms: C_8  and  C_12
REMARK    8  A    between atoms: C_9  and  C_15
REMARK    9  A    between atoms: C_11  and  C_16
REMARK   10  A    between atoms: C_12  and  C_17
REMARK   11  A    between atoms: C_12  and  C_18
REMARK   12  A    between atoms: C_13  and  C_19
REMARK   13  A    between atoms: C_16  and  C_20
REMARK   14  A    between atoms: C_22  and  C_24
REMARK                            x       y       z     vdW  Elec       q    Type
REMARK                         _______ _______ _______ _____ _____    ______ ____
ROOT
ATOM      8  C   UNL     1      -2.892   4.034  24.425  0.00  0.00    +0.000 C 
ATOM      9  C   UNL     1      -2.873   4.047  25.974  0.00  0.00    +0.032 C 
ATOM     10  C   UNL     1      -4.317   3.784  23.909  0.00  0.00    +0.012 C 
ATOM     11  C   UNL     1      -4.896   2.450  24.417  0.00  0.00    +0.023 C 
ATOM     13  C   UNL     1      -4.674   2.269  25.905  0.00  0.00    -0.073 C 
ATOM     14  C   UNL     1      -3.775   3.002  26.586  0.00  0.00    -0.022 C 
ATOM     19  C   UNL     1      -5.541   1.259  26.602  0.00  0.00    +0.039 C 
ENDROOT
BRANCH   8  12
ATOM     12  C   UNL     1      -2.349   5.339  23.838  0.00  0.00    -0.013 C 
ATOM     17  C   UNL     1      -3.496   6.233  23.377  0.00  0.00    +0.007 C 
ATOM     18  C   UNL     1      -1.477   6.061  24.861  0.00  0.00    +0.007 C 
ENDBRANCH   8  12
BRANCH   9  15
ATOM     15  C   UNL     1      -1.448   3.871  26.511  0.00  0.00    +0.113 C 
BRANCH  15   4
ATOM      2  O   UNL     1       0.198   3.550  24.190  0.00  0.00    -0.253 OA
ATOM      4  N   UNL     1      -0.874   2.652  26.033  0.00  0.00    -0.299 N 
ATOM      6  N   UNL     1       0.347   1.254  24.659  0.00  0.00    -0.269 N 
ATOM     21  C   UNL     1      -0.072   2.570  24.880  0.00  0.00    +0.304 C 
ATOM     36  H   UNL     1      -0.993   1.810  26.587  0.00  0.00    +0.150 HD
ATOM     37  H   UNL     1       0.030   0.557  25.329  0.00  0.00    +0.156 HD
BRANCH   6  25
ATOM     25  C   UNL     1       1.161   0.766  23.610  0.00  0.00    +0.038 A 
ATOM     28  C   UNL     1       2.543   0.944  23.660  0.00  0.00    +0.069 A 
ATOM     29  C   UNL     1       0.581   0.108  22.525  0.00  0.00    +0.023 A 
ATOM     31  C   UNL     1       3.346   0.463  22.625  0.00  0.00    +0.122 A 
ATOM     33  C   UNL     1       1.382  -0.373  21.490  0.00  0.00    +0.005 A 
ATOM     34  C   UNL     1       2.765  -0.195  21.541  0.00  0.00    +0.046 A 
BRANCH  31   3
ATOM      3  O   UNL     1       4.695   0.638  22.673  0.00  0.00    -0.495 OA
ATOM     35  C   UNL     1       5.336   0.394  23.924  0.00  0.00    +0.277 C 
ENDBRANCH  31   3
ENDBRANCH   6  25
ENDBRANCH  15   4
ENDBRANCH   9  15
BRANCH  11  16
ATOM     16  C   UNL     1      -4.325   1.265  23.630  0.00  0.00    +0.103 C 
BRANCH  16  20
ATOM      1  O   UNL     1      -6.243  -0.018  24.281  0.00  0.00    -0.276 OA
ATOM      5  N   UNL     1      -4.318  -1.203  23.763  0.00  0.00    -0.300 N 
ATOM     20  C   UNL     1      -5.062  -0.029  23.924  0.00  0.00    +0.216 C 
ATOM     23  C   UNL     1      -4.881  -2.525  24.006  0.00  0.00    +0.132 C 
BRANCH   5  22
ATOM     22  C   UNL     1      -2.920  -1.192  23.338  0.00  0.00    +0.144 C 
BRANCH  22  24
ATOM      7  N   UNL     1      -0.012  -2.421  25.419  0.00  0.00    -0.263 NA
ATOM     24  C   UNL     1      -1.978  -1.361  24.496  0.00  0.00    -0.012 A 
ATOM     26  C   UNL     1      -2.169  -0.662  25.682  0.00  0.00    +0.008 A 
ATOM     27  C   UNL     1      -0.895  -2.221  24.416  0.00  0.00    +0.115 A 
ATOM     30  C   UNL     1      -1.280  -0.841  26.738  0.00  0.00    +0.020 A 
ATOM     32  C   UNL     1      -0.229  -1.724  26.558  0.00  0.00    +0.111 A 
ENDBRANCH  22  24
ENDBRANCH   5  22
ENDBRANCH  16  20
ENDBRANCH  11  16
TORSDOF 9
ENDMDL
