MODEL 1
REMARK VINA RESULT:      -2.5      0.000      0.000
REMARK  Name = 40779387
REMARK  8 active torsions:
REMARK  status: ('A' for Active; 'I' for Inactive)
REMARK    1  A    between atoms: S_1  and  N_7
REMARK    2  A    between atoms: S_1  and  C_21
REMARK    3  A    between atoms: N_6  and  C_20
REMARK    4  A    between atoms: N_7  and  C_16
REMARK    5  A    between atoms: C_10  and  C_17
REMARK    6  A    between atoms: C_11  and  C_16
REMARK    7  A    between atoms: C_19  and  C_22
REMARK    8  A    between atoms: C_21  and  C_23
REMARK                            x       y       z     vdW  Elec       q    Type
REMARK                         _______ _______ _______ _____ _____    ______ ____
ROOT
ATOM      5  N   UNL     1      -3.681  -0.524  25.734  0.00  0.00    -0.297 NA
ATOM      9  C   UNL     1      -2.543  -2.039  23.946  0.00  0.00    +0.002 C 
ATOM     10  C   UNL     1      -1.477  -1.420  24.893  0.00  0.00    +0.055 C 
ATOM     11  C   UNL     1      -4.173  -0.167  24.377  0.00  0.00    +0.072 C 
ATOM     12  C   UNL     1      -3.362  -0.908  23.291  0.00  0.00    +0.024 C 
ATOM     13  C   UNL     1      -3.514  -2.845  24.836  0.00  0.00    +0.019 C 
ATOM     14  C   UNL     1      -2.205  -0.381  25.793  0.00  0.00    +0.094 C 
ATOM     15  C   UNL     1      -4.018  -1.948  25.979  0.00  0.00    +0.085 C 
ENDROOT
BRANCH  10  17
ATOM      6  N   UNL     1      -0.204   0.191  23.403  0.00  0.00    -0.270 N 
ATOM      8  N   UNL     1       1.023   0.534  22.969  0.00  0.00    -0.171 NA
ATOM     17  C   UNL     1      -0.206  -0.858  24.274  0.00  0.00    +0.044 A 
ATOM     18  C   UNL     1       1.109  -1.228  24.422  0.00  0.00    +0.053 A 
ATOM     19  C   UNL     1       1.819  -0.336  23.595  0.00  0.00    +0.100 A 
ATOM     20  C   UNL     1      -1.351   0.929  22.929  0.00  0.00    +0.172 C 
BRANCH  19  22
ATOM      2  S   UNL     1       4.118   0.926  22.588  0.00  0.00    -0.095 S 
ATOM     22  C   UNL     1       3.281  -0.322  23.408  0.00  0.00    +0.039 A 
ATOM     24  C   UNL     1       4.134  -1.302  23.866  0.00  0.00    +0.018 A 
ATOM     25  C   UNL     1       5.493  -1.024  23.540  0.00  0.00    +0.008 A 
ATOM     28  C   UNL     1       5.627   0.158  22.845  0.00  0.00    +0.046 A 
ENDBRANCH  19  22
ENDBRANCH  10  17
BRANCH  11  16
ATOM     16  C   UNL     1      -4.193   1.344  24.143  0.00  0.00    +0.124 C 
BRANCH  16   7
ATOM      7  N   UNL     1      -4.872   2.001  25.272  0.00  0.00    -0.193 NA
ATOM     32  H   UNL     1      -4.999   1.456  26.133  0.00  0.00    +0.148 HD
BRANCH   7   1
ATOM      1  S   UNL     1      -4.921   3.706  25.340  0.00  0.00    +0.034 S 
ATOM      3  O   UNL     1      -6.218   4.141  25.820  0.00  0.00    -0.158 OA
ATOM      4  O   UNL     1      -4.373   4.233  24.105  0.00  0.00    -0.158 OA
BRANCH   1  21
ATOM     21  C   UNL     1      -3.730   4.016  26.623  0.00  0.00    +0.220 C 
BRANCH  21  23
ATOM     23  C   UNL     1      -2.368   3.970  26.002  0.00  0.00    -0.025 A 
ATOM     26  C   UNL     1      -1.553   2.854  26.191  0.00  0.00    +0.005 A 
ATOM     27  C   UNL     1      -1.914   5.043  25.235  0.00  0.00    +0.005 A 
ATOM     29  C   UNL     1      -0.284   2.810  25.613  0.00  0.00    +0.000 A 
ATOM     30  C   UNL     1      -0.646   5.000  24.657  0.00  0.00    +0.000 A 
ATOM     31  C   UNL     1       0.169   3.883  24.846  0.00  0.00    +0.000 A 
ENDBRANCH  21  23
ENDBRANCH   1  21
ENDBRANCH   7   1
ENDBRANCH  16   7
ENDBRANCH  11  16
TORSDOF 7
ENDMDL
MODEL 2
REMARK VINA RESULT:      -1.8      2.315      6.221
REMARK  Name = 40779387
REMARK  8 active torsions:
REMARK  status: ('A' for Active; 'I' for Inactive)
REMARK    1  A    between atoms: S_1  and  N_7
REMARK    2  A    between atoms: S_1  and  C_21
REMARK    3  A    between atoms: N_6  and  C_20
REMARK    4  A    between atoms: N_7  and  C_16
REMARK    5  A    between atoms: C_10  and  C_17
REMARK    6  A    between atoms: C_11  and  C_16
REMARK    7  A    between atoms: C_19  and  C_22
REMARK    8  A    between atoms: C_21  and  C_23
REMARK                            x       y       z     vdW  Elec       q    Type
REMARK                         _______ _______ _______ _____ _____    ______ ____
ROOT
ATOM      5  N   UNL     1      -2.742  -2.565  23.838  0.00  0.00    -0.297 NA
ATOM      9  C   UNL     1      -3.161  -1.439  26.149  0.00  0.00    +0.002 C 
ATOM     10  C   UNL     1      -3.847  -0.627  25.015  0.00  0.00    +0.055 C 
ATOM     11  C   UNL     1      -1.457  -2.413  24.571  0.00  0.00    +0.072 C 
ATOM     12  C   UNL     1      -1.654  -1.564  25.846  0.00  0.00    +0.024 C 
ATOM     13  C   UNL     1      -3.755  -2.863  26.098  0.00  0.00    +0.019 C 
ATOM     14  C   UNL     1      -3.387  -1.240  23.662  0.00  0.00    +0.094 C 
ATOM     15  C   UNL     1      -3.638  -3.410  24.665  0.00  0.00    +0.085 C 
ENDROOT
BRANCH  10  17
ATOM      6  N   UNL     1      -4.785   1.726  25.158  0.00  0.00    -0.270 N 
ATOM      8  N   UNL     1      -4.456   3.030  25.154  0.00  0.00    -0.171 NA
ATOM     17  C   UNL     1      -3.716   0.889  25.036  0.00  0.00    +0.044 A 
ATOM     18  C   UNL     1      -2.611   1.701  24.945  0.00  0.00    +0.053 A 
ATOM     19  C   UNL     1      -3.128   3.008  25.024  0.00  0.00    +0.100 A 
ATOM     20  C   UNL     1      -6.174   1.350  25.286  0.00  0.00    +0.172 C 
BRANCH  19  22
ATOM      2  S   UNL     1      -0.627   4.272  24.822  0.00  0.00    -0.095 S 
ATOM     22  C   UNL     1      -2.333   4.247  24.975  0.00  0.00    +0.039 A 
ATOM     24  C   UNL     1      -2.863   5.517  25.048  0.00  0.00    +0.018 A 
ATOM     25  C   UNL     1      -1.856   6.522  24.977  0.00  0.00    +0.008 A 
ATOM     28  C   UNL     1      -0.594   5.984  24.852  0.00  0.00    +0.046 A 
ENDBRANCH  19  22
ENDBRANCH  10  17
BRANCH  11  16
ATOM     16  C   UNL     1      -0.342  -1.857  23.682  0.00  0.00    +0.124 C 
BRANCH  16   7
ATOM      7  N   UNL     1       0.249  -0.674  24.329  0.00  0.00    -0.193 NA
ATOM     32  H   UNL     1       0.735  -0.813  25.223  0.00  0.00    +0.148 HD
BRANCH   7   1
ATOM      1  S   UNL     1       0.600   0.705  23.385  0.00  0.00    +0.034 S 
ATOM      3  O   UNL     1       1.360   1.657  24.172  0.00  0.00    -0.158 OA
ATOM      4  O   UNL     1      -0.609   1.111  22.695  0.00  0.00    -0.158 OA
BRANCH   1  21
ATOM     21  C   UNL     1       1.693   0.001  22.172  0.00  0.00    +0.220 C 
BRANCH  21  23
ATOM     23  C   UNL     1       3.049  -0.117  22.794  0.00  0.00    -0.025 A 
ATOM     26  C   UNL     1       3.936   0.958  22.745  0.00  0.00    +0.005 A 
ATOM     27  C   UNL     1       3.428  -1.304  23.423  0.00  0.00    +0.005 A 
ATOM     29  C   UNL     1       5.200   0.849  23.325  0.00  0.00    +0.000 A 
ATOM     30  C   UNL     1       4.691  -1.414  24.002  0.00  0.00    +0.000 A 
ATOM     31  C   UNL     1       5.577  -0.338  23.954  0.00  0.00    +0.000 A 
ENDBRANCH  21  23
ENDBRANCH   1  21
ENDBRANCH   7   1
ENDBRANCH  16   7
ENDBRANCH  11  16
TORSDOF 7
ENDMDL
