MODEL 1
REMARK VINA RESULT:      -3.2      0.000      0.000
REMARK  Name = 51137668
REMARK  5 active torsions:
REMARK  status: ('A' for Active; 'I' for Inactive)
REMARK    1  A    between atoms: N_6  and  C_13
REMARK    2  A    between atoms: C_9  and  C_14
REMARK    3  A    between atoms: C_13  and  C_15
REMARK    4  A    between atoms: C_18  and  C_22
REMARK    5  A    between atoms: C_21  and  C_23
REMARK                            x       y       z     vdW  Elec       q    Type
REMARK                         _______ _______ _______ _____ _____    ______ ____
ROOT
ATOM      6  N   UNL     1      -0.717   4.793  25.005  0.00  0.00    -0.297 NA
ATOM      9  C   UNL     1       0.483   2.819  24.600  0.00  0.00    +0.092 C 
ATOM     10  C   UNL     1       0.649   3.776  23.407  0.00  0.00    +0.029 C 
ATOM     11  C   UNL     1      -0.713   3.378  25.383  0.00  0.00    +0.097 C 
ATOM     12  C   UNL     1      -0.469   4.800  23.563  0.00  0.00    +0.085 C 
ENDROOT
BRANCH   9  14
ATOM      5  O   UNL     1      -0.908   0.810  24.448  0.00  0.00    -0.420 OA
ATOM      7  N   UNL     1       1.184   0.528  23.710  0.00  0.00    -0.112 NA
ATOM      8  N   UNL     1       0.517  -0.673  23.567  0.00  0.00    -0.107 NA
ATOM     14  C   UNL     1       0.315   1.364  24.227  0.00  0.00    +0.222 A 
ATOM     18  C   UNL     1      -0.701  -0.463  24.011  0.00  0.00    +0.251 A 
BRANCH  18  22
ATOM      4  F   UNL     1      -3.303   0.371  23.386  0.00  0.00    -0.205 F 
ATOM     22  C   UNL     1      -1.825  -1.349  24.103  0.00  0.00    +0.074 A 
ATOM     24  C   UNL     1      -3.104  -0.894  23.783  0.00  0.00    +0.136 A 
ATOM     25  C   UNL     1      -1.636  -2.668  24.513  0.00  0.00    +0.016 A 
ATOM     26  C   UNL     1      -4.195  -1.760  23.874  0.00  0.00    +0.039 A 
ATOM     27  C   UNL     1      -2.726  -3.534  24.604  0.00  0.00    +0.001 A 
ATOM     28  C   UNL     1      -4.005  -3.079  24.285  0.00  0.00    +0.003 A 
ENDBRANCH  18  22
ENDBRANCH   9  14
BRANCH   6  13
ATOM     13  C   UNL     1      -1.964   5.458  25.355  0.00  0.00    +0.119 C 
BRANCH  13  15
ATOM     15  C   UNL     1      -3.130   4.507  25.344  0.00  0.00    -0.033 A 
ATOM     16  C   UNL     1      -3.547   3.928  24.145  0.00  0.00    +0.005 A 
ATOM     17  C   UNL     1      -3.793   4.203  26.532  0.00  0.00    +0.005 A 
ATOM     19  C   UNL     1      -4.628   3.046  24.135  0.00  0.00    +0.012 A 
ATOM     20  C   UNL     1      -4.873   3.321  26.523  0.00  0.00    +0.012 A 
ATOM     21  C   UNL     1      -5.291   2.743  25.323  0.00  0.00    +0.055 A 
BRANCH  21  23
ATOM      1  F   UNL     1      -7.046   1.656  26.530  0.00  0.00    -0.166 F 
ATOM      2  F   UNL     1      -6.089   0.538  24.929  0.00  0.00    -0.166 F 
ATOM      3  F   UNL     1      -7.449   2.170  24.463  0.00  0.00    -0.166 F 
ATOM     23  C   UNL     1      -6.446   1.799  25.313  0.00  0.00    +0.417 C 
ENDBRANCH  21  23
ENDBRANCH  13  15
ENDBRANCH   6  13
TORSDOF 5
ENDMDL
MODEL 2
REMARK VINA RESULT:      -2.6      1.532      5.201
REMARK  Name = 51137668
REMARK  5 active torsions:
REMARK  status: ('A' for Active; 'I' for Inactive)
REMARK    1  A    between atoms: N_6  and  C_13
REMARK    2  A    between atoms: C_9  and  C_14
REMARK    3  A    between atoms: C_13  and  C_15
REMARK    4  A    between atoms: C_18  and  C_22
REMARK    5  A    between atoms: C_21  and  C_23
REMARK                            x       y       z     vdW  Elec       q    Type
REMARK                         _______ _______ _______ _____ _____    ______ ____
ROOT
ATOM      6  N   UNL     1      -1.482  -2.749  24.300  0.00  0.00    -0.297 NA
ATOM      9  C   UNL     1       0.196  -1.195  23.780  0.00  0.00    +0.092 C 
ATOM     10  C   UNL     1       0.612  -2.007  25.019  0.00  0.00    +0.029 C 
ATOM     11  C   UNL     1      -1.309  -1.457  23.632  0.00  0.00    +0.097 C 
ATOM     12  C   UNL     1      -0.674  -2.656  25.516  0.00  0.00    +0.085 C 
ENDROOT
BRANCH   9  14
ATOM      5  O   UNL     1      -0.448   1.116  24.274  0.00  0.00    -0.420 OA
ATOM      7  N   UNL     1       1.654   0.891  23.542  0.00  0.00    -0.112 NA
ATOM      8  N   UNL     1       1.427   2.233  23.780  0.00  0.00    -0.107 NA
ATOM     14  C   UNL     1       0.534   0.277  23.844  0.00  0.00    +0.222 A 
ATOM     18  C   UNL     1       0.187   2.318  24.205  0.00  0.00    +0.251 A 
BRANCH  18  22
ATOM      4  F   UNL     1      -2.191   2.065  25.667  0.00  0.00    -0.205 F 
ATOM     22  C   UNL     1      -0.585   3.459  24.602  0.00  0.00    +0.074 A 
ATOM     24  C   UNL     1      -1.764   3.290  25.329  0.00  0.00    +0.136 A 
ATOM     25  C   UNL     1      -0.155   4.740  24.259  0.00  0.00    +0.016 A 
ATOM     26  C   UNL     1      -2.512   4.404  25.713  0.00  0.00    +0.039 A 
ATOM     27  C   UNL     1      -0.903   5.854  24.643  0.00  0.00    +0.001 A 
ATOM     28  C   UNL     1      -2.081   5.685  25.369  0.00  0.00    +0.003 A 
ENDBRANCH  18  22
ENDBRANCH   9  14
BRANCH   6  13
ATOM     13  C   UNL     1      -2.879  -3.044  24.585  0.00  0.00    +0.119 C 
BRANCH  13  15
ATOM     15  C   UNL     1      -3.687  -1.791  24.787  0.00  0.00    -0.033 A 
ATOM     16  C   UNL     1      -4.477  -1.295  23.749  0.00  0.00    +0.005 A 
ATOM     17  C   UNL     1      -3.649  -1.126  26.012  0.00  0.00    +0.005 A 
ATOM     19  C   UNL     1      -5.226  -0.133  23.936  0.00  0.00    +0.012 A 
ATOM     20  C   UNL     1      -4.398   0.035  26.200  0.00  0.00    +0.012 A 
ATOM     21  C   UNL     1      -5.186   0.531  25.161  0.00  0.00    +0.055 A 
BRANCH  21  23
ATOM      1  F   UNL     1      -5.322   2.916  25.024  0.00  0.00    -0.166 F 
ATOM      2  F   UNL     1      -6.375   1.944  26.660  0.00  0.00    -0.166 F 
ATOM      3  F   UNL     1      -7.142   1.804  24.630  0.00  0.00    -0.166 F 
ATOM     23  C   UNL     1      -5.989   1.773  25.362  0.00  0.00    +0.417 C 
ENDBRANCH  21  23
ENDBRANCH  13  15
ENDBRANCH   6  13
TORSDOF 5
ENDMDL
MODEL 3
REMARK VINA RESULT:      -2.0      2.600      5.097
REMARK  Name = 51137668
REMARK  5 active torsions:
REMARK  status: ('A' for Active; 'I' for Inactive)
REMARK    1  A    between atoms: N_6  and  C_13
REMARK    2  A    between atoms: C_9  and  C_14
REMARK    3  A    between atoms: C_13  and  C_15
REMARK    4  A    between atoms: C_18  and  C_22
REMARK    5  A    between atoms: C_21  and  C_23
REMARK                            x       y       z     vdW  Elec       q    Type
REMARK                         _______ _______ _______ _____ _____    ______ ____
ROOT
ATOM      6  N   UNL     1      -5.099   2.748  25.640  0.00  0.00    -0.297 NA
ATOM      9  C   UNL     1      -3.116   3.980  25.409  0.00  0.00    +0.092 C 
ATOM     10  C   UNL     1      -4.116   4.403  24.318  0.00  0.00    +0.029 C 
ATOM     11  C   UNL     1      -3.671   2.655  25.950  0.00  0.00    +0.097 C 
ATOM     12  C   UNL     1      -5.156   3.290  24.282  0.00  0.00    +0.085 C 
ENDROOT
BRANCH   9  14
ATOM      5  O   UNL     1      -1.260   2.650  24.526  0.00  0.00    -0.420 OA
ATOM      7  N   UNL     1      -0.752   4.798  24.890  0.00  0.00    -0.112 NA
ATOM      8  N   UNL     1       0.376   4.171  24.396  0.00  0.00    -0.107 NA
ATOM     14  C   UNL     1      -1.681   3.873  24.948  0.00  0.00    +0.222 A 
ATOM     18  C   UNL     1       0.034   2.919  24.198  0.00  0.00    +0.251 A 
BRANCH  18  22
ATOM      4  F   UNL     1      -1.112   0.397  23.770  0.00  0.00    -0.205 F 
ATOM     22  C   UNL     1       0.798   1.812  23.699  0.00  0.00    +0.074 A 
ATOM     24  C   UNL     1       0.189   0.573  23.500  0.00  0.00    +0.136 A 
ATOM     25  C   UNL     1       2.152   1.979  23.412  0.00  0.00    +0.016 A 
ATOM     26  C   UNL     1       0.936  -0.501  23.014  0.00  0.00    +0.039 A 
ATOM     27  C   UNL     1       2.899   0.905  22.927  0.00  0.00    +0.001 A 
ATOM     28  C   UNL     1       2.291  -0.334  22.728  0.00  0.00    +0.003 A 
ENDBRANCH  18  22
ENDBRANCH   9  14
BRANCH   6  13
ATOM     13  C   UNL     1      -5.777   1.465  25.752  0.00  0.00    +0.119 C 
BRANCH  13  15
ATOM     15  C   UNL     1      -4.874   0.319  25.384  0.00  0.00    -0.033 A 
ATOM     16  C   UNL     1      -4.841  -0.149  24.070  0.00  0.00    +0.005 A 
ATOM     17  C   UNL     1      -4.070  -0.276  26.356  0.00  0.00    +0.005 A 
ATOM     19  C   UNL     1      -4.004  -1.212  23.729  0.00  0.00    +0.012 A 
ATOM     20  C   UNL     1      -3.232  -1.337  26.015  0.00  0.00    +0.012 A 
ATOM     21  C   UNL     1      -3.200  -1.805  24.701  0.00  0.00    +0.055 A 
BRANCH  21  23
ATOM      1  F   UNL     1      -2.973  -4.049  23.903  0.00  0.00    -0.166 F 
ATOM      2  F   UNL     1      -1.536  -3.361  25.383  0.00  0.00    -0.166 F 
ATOM      3  F   UNL     1      -1.424  -2.643  23.333  0.00  0.00    -0.166 F 
ATOM     23  C   UNL     1      -2.303  -2.940  24.336  0.00  0.00    +0.417 C 
ENDBRANCH  21  23
ENDBRANCH  13  15
ENDBRANCH   6  13
TORSDOF 5
ENDMDL
MODEL 4
REMARK VINA RESULT:      -1.8      2.742      5.212
REMARK  Name = 51137668
REMARK  5 active torsions:
REMARK  status: ('A' for Active; 'I' for Inactive)
REMARK    1  A    between atoms: N_6  and  C_13
REMARK    2  A    between atoms: C_9  and  C_14
REMARK    3  A    between atoms: C_13  and  C_15
REMARK    4  A    between atoms: C_18  and  C_22
REMARK    5  A    between atoms: C_21  and  C_23
REMARK                            x       y       z     vdW  Elec       q    Type
REMARK                         _______ _______ _______ _____ _____    ______ ____
ROOT
ATOM      6  N   UNL     1      -2.495   4.943  25.408  0.00  0.00    -0.297 NA
ATOM      9  C   UNL     1      -4.499   3.755  25.132  0.00  0.00    +0.092 C 
ATOM     10  C   UNL     1      -4.376   4.226  26.592  0.00  0.00    +0.029 C 
ATOM     11  C   UNL     1      -3.085   3.909  24.554  0.00  0.00    +0.097 C 
ATOM     12  C   UNL     1      -2.907   4.591  26.767  0.00  0.00    +0.085 C 
ENDROOT
BRANCH   9  14
ATOM      5  O   UNL     1      -4.156   1.345  24.872  0.00  0.00    -0.420 OA
ATOM      7  N   UNL     1      -6.305   1.965  24.878  0.00  0.00    -0.112 NA
ATOM      8  N   UNL     1      -6.259   0.592  24.727  0.00  0.00    -0.107 NA
ATOM     14  C   UNL     1      -5.056   2.361  24.959  0.00  0.00    +0.222 A 
ATOM     18  C   UNL     1      -4.985   0.274  24.727  0.00  0.00    +0.251 A 
BRANCH  18  22
ATOM      4  F   UNL     1      -2.987  -0.562  26.507  0.00  0.00    -0.205 F 
ATOM     22  C   UNL     1      -4.344  -1.003  24.604  0.00  0.00    +0.074 A 
ATOM     24  C   UNL     1      -3.354  -1.381  25.510  0.00  0.00    +0.136 A 
ATOM     25  C   UNL     1      -4.714  -1.867  23.574  0.00  0.00    +0.016 A 
ATOM     26  C   UNL     1      -2.733  -2.625  25.386  0.00  0.00    +0.039 A 
ATOM     27  C   UNL     1      -4.093  -3.111  23.450  0.00  0.00    +0.001 A 
ATOM     28  C   UNL     1      -3.103  -3.489  24.356  0.00  0.00    +0.003 A 
ENDBRANCH  18  22
ENDBRANCH   9  14
BRANCH   6  13
ATOM     13  C   UNL     1      -1.048   5.018  25.270  0.00  0.00    +0.119 C 
BRANCH  13  15
ATOM     15  C   UNL     1      -0.461   3.717  24.791  0.00  0.00    -0.033 A 
ATOM     16  C   UNL     1      -0.553   2.575  25.587  0.00  0.00    +0.005 A 
ATOM     17  C   UNL     1       0.173   3.653  23.551  0.00  0.00    +0.005 A 
ATOM     19  C   UNL     1      -0.009   1.370  25.143  0.00  0.00    +0.012 A 
ATOM     20  C   UNL     1       0.716   2.448  23.106  0.00  0.00    +0.012 A 
ATOM     21  C   UNL     1       0.625   1.306  23.903  0.00  0.00    +0.055 A 
BRANCH  21  23
ATOM      1  F   UNL     1       0.853  -0.302  22.146  0.00  0.00    -0.166 F 
ATOM      2  F   UNL     1       0.816  -1.046  24.189  0.00  0.00    -0.166 F 
ATOM      3  F   UNL     1       2.571  -0.005  23.436  0.00  0.00    -0.166 F 
ATOM     23  C   UNL     1       1.205   0.017  23.427  0.00  0.00    +0.417 C 
ENDBRANCH  21  23
ENDBRANCH  13  15
ENDBRANCH   6  13
TORSDOF 5
ENDMDL
MODEL 5
REMARK VINA RESULT:      -1.1      2.738      5.162
REMARK  Name = 51137668
REMARK  5 active torsions:
REMARK  status: ('A' for Active; 'I' for Inactive)
REMARK    1  A    between atoms: N_6  and  C_13
REMARK    2  A    between atoms: C_9  and  C_14
REMARK    3  A    between atoms: C_13  and  C_15
REMARK    4  A    between atoms: C_18  and  C_22
REMARK    5  A    between atoms: C_21  and  C_23
REMARK                            x       y       z     vdW  Elec       q    Type
REMARK                         _______ _______ _______ _____ _____    ______ ____
ROOT
ATOM      6  N   UNL     1      -2.358   4.972  25.493  0.00  0.00    -0.297 NA
ATOM      9  C   UNL     1      -4.389   3.814  25.301  0.00  0.00    +0.092 C 
ATOM     10  C   UNL     1      -4.209   4.301  26.749  0.00  0.00    +0.029 C 
ATOM     11  C   UNL     1      -2.994   3.937  24.674  0.00  0.00    +0.097 C 
ATOM     12  C   UNL     1      -2.729   4.643  26.870  0.00  0.00    +0.085 C 
ENDROOT
BRANCH   9  14
ATOM      5  O   UNL     1      -4.096   1.402  24.996  0.00  0.00    -0.420 OA
ATOM      7  N   UNL     1      -6.230   2.045  25.185  0.00  0.00    -0.112 NA
ATOM      8  N   UNL     1      -6.212   0.673  25.021  0.00  0.00    -0.107 NA
ATOM     14  C   UNL     1      -4.975   2.427  25.165  0.00  0.00    +0.222 A 
ATOM     18  C   UNL     1      -4.946   0.341  24.913  0.00  0.00    +0.251 A 
BRANCH  18  22
ATOM      4  F   UNL     1      -3.199  -0.756  26.811  0.00  0.00    -0.205 F 
ATOM     22  C   UNL     1      -4.332  -0.941  24.728  0.00  0.00    +0.074 A 
ATOM     24  C   UNL     1      -3.468  -1.452  25.697  0.00  0.00    +0.136 A 
ATOM     25  C   UNL     1      -4.601  -1.678  23.575  0.00  0.00    +0.016 A 
ATOM     26  C   UNL     1      -2.873  -2.700  25.512  0.00  0.00    +0.039 A 
ATOM     27  C   UNL     1      -4.006  -2.927  23.391  0.00  0.00    +0.001 A 
ATOM     28  C   UNL     1      -3.142  -3.437  24.359  0.00  0.00    +0.003 A 
ENDBRANCH  18  22
ENDBRANCH   9  14
BRANCH   6  13
ATOM     13  C   UNL     1      -0.915   5.021  25.305  0.00  0.00    +0.119 C 
BRANCH  13  15
ATOM     15  C   UNL     1      -0.379   3.734  24.740  0.00  0.00    -0.033 A 
ATOM     16  C   UNL     1       0.396   3.750  23.581  0.00  0.00    +0.005 A 
ATOM     17  C   UNL     1      -0.656   2.524  25.377  0.00  0.00    +0.005 A 
ATOM     19  C   UNL     1       0.893   2.556  23.057  0.00  0.00    +0.012 A 
ATOM     20  C   UNL     1      -0.159   1.331  24.854  0.00  0.00    +0.012 A 
ATOM     21  C   UNL     1       0.616   1.347  23.693  0.00  0.00    +0.055 A 
BRANCH  21  23
ATOM      1  F   UNL     1       2.461   0.142  22.762  0.00  0.00    -0.166 F 
ATOM      2  F   UNL     1       0.473  -0.336  22.021  0.00  0.00    -0.166 F 
ATOM      3  F   UNL     1       1.084  -0.978  24.007  0.00  0.00    -0.166 F 
ATOM     23  C   UNL     1       1.149   0.071  23.134  0.00  0.00    +0.417 C 
ENDBRANCH  21  23
ENDBRANCH  13  15
ENDBRANCH   6  13
TORSDOF 5
ENDMDL
MODEL 6
REMARK VINA RESULT:      -0.6      2.886      7.274
REMARK  Name = 51137668
REMARK  5 active torsions:
REMARK  status: ('A' for Active; 'I' for Inactive)
REMARK    1  A    between atoms: N_6  and  C_13
REMARK    2  A    between atoms: C_9  and  C_14
REMARK    3  A    between atoms: C_13  and  C_15
REMARK    4  A    between atoms: C_18  and  C_22
REMARK    5  A    between atoms: C_21  and  C_23
REMARK                            x       y       z     vdW  Elec       q    Type
REMARK                         _______ _______ _______ _____ _____    ______ ____
ROOT
ATOM      6  N   UNL     1      -3.596  -2.324  25.171  0.00  0.00    -0.297 NA
ATOM      9  C   UNL     1      -4.813  -0.325  25.332  0.00  0.00    +0.092 C 
ATOM     10  C   UNL     1      -5.112  -1.003  23.983  0.00  0.00    +0.029 C 
ATOM     11  C   UNL     1      -3.548  -1.026  25.846  0.00  0.00    +0.097 C 
ATOM     12  C   UNL     1      -3.993  -2.021  23.796  0.00  0.00    +0.085 C 
ENDROOT
BRANCH   9  14
ATOM      5  O   UNL     1      -3.412   1.670  25.102  0.00  0.00    -0.420 OA
ATOM      7  N   UNL     1      -5.591   2.109  25.353  0.00  0.00    -0.112 NA
ATOM      8  N   UNL     1      -4.925   3.313  25.235  0.00  0.00    -0.107 NA
ATOM     14  C   UNL     1      -4.670   1.178  25.269  0.00  0.00    +0.222 A 
ATOM     18  C   UNL     1      -3.656   3.009  25.092  0.00  0.00    +0.251 A 
BRANCH  18  22
ATOM      4  F   UNL     1      -1.192   2.010  24.203  0.00  0.00    -0.205 F 
ATOM     22  C   UNL     1      -2.508   3.854  24.926  0.00  0.00    +0.074 A 
ATOM     24  C   UNL     1      -1.300   3.317  24.482  0.00  0.00    +0.136 A 
ATOM     25  C   UNL     1      -2.604   5.216  25.212  0.00  0.00    +0.016 A 
ATOM     26  C   UNL     1      -0.187   4.143  24.323  0.00  0.00    +0.039 A 
ATOM     27  C   UNL     1      -1.490   6.041  25.053  0.00  0.00    +0.001 A 
ATOM     28  C   UNL     1      -0.282   5.505  24.609  0.00  0.00    +0.003 A 
ENDBRANCH  18  22
ENDBRANCH   9  14
BRANCH   6  13
ATOM     13  C   UNL     1      -2.327  -3.033  25.237  0.00  0.00    +0.119 C 
BRANCH  13  15
ATOM     15  C   UNL     1      -1.202  -2.226  24.648  0.00  0.00    -0.033 A 
ATOM     16  C   UNL     1      -1.436  -1.402  23.547  0.00  0.00    +0.005 A 
ATOM     17  C   UNL     1       0.075  -2.300  25.203  0.00  0.00    +0.005 A 
ATOM     19  C   UNL     1      -0.393  -0.654  23.000  0.00  0.00    +0.012 A 
ATOM     20  C   UNL     1       1.118  -1.552  24.658  0.00  0.00    +0.012 A 
ATOM     21  C   UNL     1       0.883  -0.729  23.556  0.00  0.00    +0.055 A 
BRANCH  21  23
ATOM      1  F   UNL     1       3.238  -0.414  23.275  0.00  0.00    -0.166 F 
ATOM      2  F   UNL     1       1.996   1.367  23.407  0.00  0.00    -0.166 F 
ATOM      3  F   UNL     1       1.967   0.143  21.609  0.00  0.00    -0.166 F 
ATOM     23  C   UNL     1       1.998   0.073  22.973  0.00  0.00    +0.417 C 
ENDBRANCH  21  23
ENDBRANCH  13  15
ENDBRANCH   6  13
TORSDOF 5
ENDMDL
MODEL 7
REMARK VINA RESULT:       0.1     19.677     21.349
REMARK  Name = 51137668
REMARK  5 active torsions:
REMARK  status: ('A' for Active; 'I' for Inactive)
REMARK    1  A    between atoms: N_6  and  C_13
REMARK    2  A    between atoms: C_9  and  C_14
REMARK    3  A    between atoms: C_13  and  C_15
REMARK    4  A    between atoms: C_18  and  C_22
REMARK    5  A    between atoms: C_21  and  C_23
REMARK                            x       y       z     vdW  Elec       q    Type
REMARK                         _______ _______ _______ _____ _____    ______ ____
ROOT
ATOM      6  N   UNL     1      14.463 -10.780  26.917  0.00  0.00    -0.297 NA
ATOM      9  C   UNL     1      14.602 -10.659  29.255  0.00  0.00    +0.092 C 
ATOM     10  C   UNL     1      13.124 -10.715  28.829  0.00  0.00    +0.029 C 
ATOM     11  C   UNL     1      15.363 -10.304  27.970  0.00  0.00    +0.097 C 
ATOM     12  C   UNL     1      13.127 -10.366  27.346  0.00  0.00    +0.085 C 
ENDROOT
BRANCH   9  14
ATOM      5  O   UNL     1      14.757  -8.381  30.142  0.00  0.00    -0.420 OA
ATOM      7  N   UNL     1      15.279  -9.975  31.622  0.00  0.00    -0.112 NA
ATOM      8  N   UNL     1      15.407  -8.750  32.251  0.00  0.00    -0.107 NA
ATOM     14  C   UNL     1      14.898  -9.711  30.394  0.00  0.00    +0.222 A 
ATOM     18  C   UNL     1      15.094  -7.849  31.349  0.00  0.00    +0.251 A 
BRANCH  18  22
ATOM      4  F   UNL     1      13.074  -6.511  32.758  0.00  0.00    -0.205 F 
ATOM     22  C   UNL     1      15.050  -6.419  31.438  0.00  0.00    +0.074 A 
ATOM     24  C   UNL     1      14.027  -5.791  32.148  0.00  0.00    +0.136 A 
ATOM     25  C   UNL     1      16.034  -5.655  30.810  0.00  0.00    +0.016 A 
ATOM     26  C   UNL     1      13.989  -4.399  32.232  0.00  0.00    +0.039 A 
ATOM     27  C   UNL     1      15.996  -4.263  30.894  0.00  0.00    +0.001 A 
ATOM     28  C   UNL     1      14.973  -3.635  31.605  0.00  0.00    +0.003 A 
ENDBRANCH  18  22
ENDBRANCH   9  14
BRANCH   6  13
ATOM     13  C   UNL     1      14.813 -10.251  25.606  0.00  0.00    +0.119 C 
BRANCH  13  15
ATOM     15  C   UNL     1      15.288  -8.825  25.686  0.00  0.00    -0.033 A 
ATOM     16  C   UNL     1      16.572  -8.492  25.254  0.00  0.00    +0.005 A 
ATOM     17  C   UNL     1      14.444  -7.836  26.190  0.00  0.00    +0.005 A 
ATOM     19  C   UNL     1      17.012  -7.170  25.328  0.00  0.00    +0.012 A 
ATOM     20  C   UNL     1      14.883  -6.515  26.264  0.00  0.00    +0.012 A 
ATOM     21  C   UNL     1      16.168  -6.182  25.832  0.00  0.00    +0.055 A 
BRANCH  21  23
ATOM      1  F   UNL     1      17.401  -4.387  24.844  0.00  0.00    -0.166 F 
ATOM      2  F   UNL     1      17.405  -4.531  27.014  0.00  0.00    -0.166 F 
ATOM      3  F   UNL     1      15.623  -3.856  25.965  0.00  0.00    -0.166 F 
ATOM     23  C   UNL     1      16.638  -4.769  25.910  0.00  0.00    +0.417 C 
ENDBRANCH  21  23
ENDBRANCH  13  15
ENDBRANCH   6  13
TORSDOF 5
ENDMDL
