MODEL 1
REMARK VINA RESULT:       2.5      0.000      0.000
REMARK  Name = 26743302
REMARK  12 active torsions:
REMARK  status: ('A' for Active; 'I' for Inactive)
REMARK    1  A    between atoms: N_4  and  C_18
REMARK    2  A    between atoms: N_4  and  C_20
REMARK    3  A    between atoms: C_6  and  C_12
REMARK    4  A    between atoms: C_7  and  C_11
REMARK    5  A    between atoms: C_11  and  C_13
REMARK    6  A    between atoms: C_12  and  C_14
REMARK    7  A    between atoms: C_16  and  C_19
REMARK    8  A    between atoms: C_17  and  C_21
REMARK    9  A    between atoms: C_17  and  C_26
REMARK   10  A    between atoms: C_17  and  C_27
REMARK   11  A    between atoms: C_17  and  C_28
REMARK   12  A    between atoms: C_18  and  C_29
REMARK                            x       y       z     vdW  Elec       q    Type
REMARK                         _______ _______ _______ _____ _____    ______ ____
ROOT
ATOM     11  C   UNL     1      -5.403  -0.187  24.388  0.00  0.00    +0.064 C 
ENDROOT
BRANCH  11   7
ATOM      3  N   UNL     1      -6.372   2.313  27.114  0.00  0.00    -0.316 NA
ATOM      6  C   UNL     1      -5.235   2.374  24.392  0.00  0.00    +0.004 C 
ATOM      7  C   UNL     1      -5.925   1.121  24.983  0.00  0.00    +0.012 C 
ATOM      8  C   UNL     1      -5.768   3.625  25.111  0.00  0.00    +0.019 C 
ATOM      9  C   UNL     1      -5.832   1.091  26.518  0.00  0.00    +0.085 C 
ATOM     10  C   UNL     1      -5.680   3.506  26.632  0.00  0.00    +0.081 C 
ATOM     31  H   UNL     1      -6.285   2.260  28.129  0.00  0.00    +0.122 HD
BRANCH   6  12
ATOM     12  C   UNL     1      -3.704   2.325  24.444  0.00  0.00    +0.100 C 
BRANCH  12  14
ATOM      2  O   UNL     1      -3.305   4.279  23.113  0.00  0.00    -0.276 OA
ATOM      4  N   UNL     1      -2.228   4.176  25.166  0.00  0.00    -0.293 N 
ATOM     14  C   UNL     1      -3.071   3.678  24.166  0.00  0.00    +0.216 C 
ATOM     20  C   UNL     1      -1.548   5.460  25.046  0.00  0.00    +0.133 C 
BRANCH   4  18
ATOM     18  C   UNL     1      -1.967   3.446  26.404  0.00  0.00    +0.196 C 
BRANCH  18  29
ATOM     29  C   UNL     1      -0.607   2.909  26.422  0.00  0.00    -0.086 C 
ATOM     30  C   UNL     1       0.509   2.467  26.441  0.00  0.00    +0.005 C 
ENDBRANCH  18  29
ENDBRANCH   4  18
ENDBRANCH  12  14
ENDBRANCH   6  12
ENDBRANCH  11   7
BRANCH  11  13
ATOM      1  O   UNL     1      -2.055  -0.787  25.568  0.00  0.00    -0.354 OA
ATOM      5  N   UNL     1      -3.435  -0.797  25.728  0.00  0.00    -0.083 NA
ATOM     13  C   UNL     1      -3.919  -0.320  24.577  0.00  0.00    +0.085 A 
ATOM     15  C   UNL     1      -2.902   0.003  23.663  0.00  0.00    +0.076 A 
ATOM     16  C   UNL     1      -1.750  -0.309  24.335  0.00  0.00    +0.167 A 
BRANCH  16  19
ATOM     19  C   UNL     1      -0.351  -0.241  24.023  0.00  0.00    +0.020 A 
ATOM     21  C   UNL     1       2.367  -0.109  23.411  0.00  0.00    -0.042 A 
ATOM     22  C   UNL     1       0.469  -1.347  24.248  0.00  0.00    +0.012 A 
ATOM     23  C   UNL     1       0.188   0.930  23.490  0.00  0.00    +0.012 A 
ATOM     24  C   UNL     1       1.828  -1.281  23.943  0.00  0.00    +0.005 A 
ATOM     25  C   UNL     1       1.547   0.996  23.185  0.00  0.00    +0.005 A 
BRANCH  21  17
ATOM     17  C   UNL     1       3.821  -0.039  23.085  0.00  0.00    -0.013 C 
ATOM     26  C   UNL     1       4.047   0.211  21.562  0.00  0.00    +0.015 C 
ATOM     27  C   UNL     1       4.549  -1.367  23.457  0.00  0.00    +0.015 C 
ATOM     28  C   UNL     1       4.619   1.091  23.815  0.00  0.00    +0.015 C 
ENDBRANCH  21  17
ENDBRANCH  16  19
ENDBRANCH  11  13
TORSDOF 8
ENDMDL
MODEL 2
REMARK VINA RESULT:       3.0      1.263      1.735
REMARK  Name = 26743302
REMARK  12 active torsions:
REMARK  status: ('A' for Active; 'I' for Inactive)
REMARK    1  A    between atoms: N_4  and  C_18
REMARK    2  A    between atoms: N_4  and  C_20
REMARK    3  A    between atoms: C_6  and  C_12
REMARK    4  A    between atoms: C_7  and  C_11
REMARK    5  A    between atoms: C_11  and  C_13
REMARK    6  A    between atoms: C_12  and  C_14
REMARK    7  A    between atoms: C_16  and  C_19
REMARK    8  A    between atoms: C_17  and  C_21
REMARK    9  A    between atoms: C_17  and  C_26
REMARK   10  A    between atoms: C_17  and  C_27
REMARK   11  A    between atoms: C_17  and  C_28
REMARK   12  A    between atoms: C_18  and  C_29
REMARK                            x       y       z     vdW  Elec       q    Type
REMARK                         _______ _______ _______ _____ _____    ______ ____
ROOT
ATOM     11  C   UNL     1      -4.097  -0.532  25.647  0.00  0.00    +0.064 C 
ENDROOT
BRANCH  11   7
ATOM      3  N   UNL     1      -6.818   2.075  24.998  0.00  0.00    -0.316 NA
ATOM      6  C   UNL     1      -3.912   1.792  24.573  0.00  0.00    +0.004 C 
ATOM      7  C   UNL     1      -4.829   0.592  24.914  0.00  0.00    +0.012 C 
ATOM      8  C   UNL     1      -4.756   2.896  23.915  0.00  0.00    +0.019 C 
ATOM      9  C   UNL     1      -6.072   1.033  25.704  0.00  0.00    +0.085 C 
ATOM     10  C   UNL     1      -5.994   3.253  24.737  0.00  0.00    +0.081 C 
ATOM     31  H   UNL     1      -7.628   2.347  25.555  0.00  0.00    +0.122 HD
BRANCH   6  12
ATOM     12  C   UNL     1      -3.133   2.341  25.774  0.00  0.00    +0.100 C 
BRANCH  12  14
ATOM      2  O   UNL     1      -3.785   4.636  26.009  0.00  0.00    -0.276 OA
ATOM      4  N   UNL     1      -1.648   4.236  25.198  0.00  0.00    -0.293 N 
ATOM     14  C   UNL     1      -2.902   3.840  25.678  0.00  0.00    +0.216 C 
ATOM     20  C   UNL     1      -1.276   5.637  25.048  0.00  0.00    +0.133 C 
BRANCH   4  18
ATOM     18  C   UNL     1      -0.619   3.274  24.811  0.00  0.00    +0.196 C 
BRANCH  18  29
ATOM     29  C   UNL     1       0.085   2.756  25.983  0.00  0.00    -0.086 C 
ATOM     30  C   UNL     1       0.661   2.326  26.945  0.00  0.00    +0.005 C 
ENDBRANCH  18  29
ENDBRANCH   4  18
ENDBRANCH  12  14
ENDBRANCH   6  12
ENDBRANCH  11   7
BRANCH  11  13
ATOM      1  O   UNL     1      -1.312  -1.829  23.771  0.00  0.00    -0.354 OA
ATOM      5  N   UNL     1      -2.646  -1.843  24.160  0.00  0.00    -0.083 NA
ATOM     13  C   UNL     1      -2.767  -0.823  25.014  0.00  0.00    +0.085 A 
ATOM     15  C   UNL     1      -1.556  -0.137  25.202  0.00  0.00    +0.076 A 
ATOM     16  C   UNL     1      -0.673  -0.808  24.398  0.00  0.00    +0.167 A 
BRANCH  16  19
ATOM     19  C   UNL     1       0.721  -0.666  24.092  0.00  0.00    +0.020 A 
ATOM     21  C   UNL     1       3.433  -0.388  23.501  0.00  0.00    -0.042 A 
ATOM     22  C   UNL     1       1.185   0.494  23.471  0.00  0.00    +0.012 A 
ATOM     23  C   UNL     1       1.614  -1.687  24.418  0.00  0.00    +0.012 A 
ATOM     24  C   UNL     1       2.540   0.633  23.176  0.00  0.00    +0.005 A 
ATOM     25  C   UNL     1       2.971  -1.548  24.123  0.00  0.00    +0.005 A 
BRANCH  21  17
ATOM     17  C   UNL     1       4.883  -0.240  23.185  0.00  0.00    -0.013 C 
ATOM     26  C   UNL     1       5.104   0.055  21.669  0.00  0.00    +0.015 C 
ATOM     27  C   UNL     1       5.673  -1.540  23.530  0.00  0.00    +0.015 C 
ATOM     28  C   UNL     1       5.622   0.910  23.945  0.00  0.00    +0.015 C 
ENDBRANCH  21  17
ENDBRANCH  16  19
ENDBRANCH  11  13
TORSDOF 8
ENDMDL
MODEL 3
REMARK VINA RESULT:       3.5      1.839      3.611
REMARK  Name = 26743302
REMARK  12 active torsions:
REMARK  status: ('A' for Active; 'I' for Inactive)
REMARK    1  A    between atoms: N_4  and  C_18
REMARK    2  A    between atoms: N_4  and  C_20
REMARK    3  A    between atoms: C_6  and  C_12
REMARK    4  A    between atoms: C_7  and  C_11
REMARK    5  A    between atoms: C_11  and  C_13
REMARK    6  A    between atoms: C_12  and  C_14
REMARK    7  A    between atoms: C_16  and  C_19
REMARK    8  A    between atoms: C_17  and  C_21
REMARK    9  A    between atoms: C_17  and  C_26
REMARK   10  A    between atoms: C_17  and  C_27
REMARK   11  A    between atoms: C_17  and  C_28
REMARK   12  A    between atoms: C_18  and  C_29
REMARK                            x       y       z     vdW  Elec       q    Type
REMARK                         _______ _______ _______ _____ _____    ______ ____
ROOT
ATOM     11  C   UNL     1      -3.631   3.476  23.942  0.00  0.00    +0.064 C 
ENDROOT
BRANCH  11   7
ATOM      3  N   UNL     1      -6.438   2.633  26.399  0.00  0.00    -0.316 NA
ATOM      6  C   UNL     1      -4.074   1.304  25.237  0.00  0.00    +0.004 C 
ATOM      7  C   UNL     1      -4.296   2.834  25.161  0.00  0.00    +0.012 C 
ATOM      8  C   UNL     1      -4.846   0.745  26.444  0.00  0.00    +0.019 C 
ATOM      9  C   UNL     1      -5.790   3.195  25.214  0.00  0.00    +0.085 C 
ATOM     10  C   UNL     1      -6.312   1.178  26.450  0.00  0.00    +0.081 C 
ATOM     31  H   UNL     1      -7.427   2.886  26.394  0.00  0.00    +0.122 HD
BRANCH   6  12
ATOM     12  C   UNL     1      -4.450   0.555  23.953  0.00  0.00    +0.100 C 
BRANCH  12  14
ATOM      2  O   UNL     1      -5.439  -1.626  23.845  0.00  0.00    -0.276 OA
ATOM      4  N   UNL     1      -3.270  -1.503  24.659  0.00  0.00    -0.293 N 
ATOM     14  C   UNL     1      -4.448  -0.953  24.141  0.00  0.00    +0.216 C 
ATOM     20  C   UNL     1      -3.114  -2.932  24.897  0.00  0.00    +0.133 C 
BRANCH   4  18
ATOM     18  C   UNL     1      -2.109  -0.685  25.003  0.00  0.00    +0.196 C 
BRANCH  18  29
ATOM     29  C   UNL     1      -0.948  -1.519  25.306  0.00  0.00    -0.086 C 
ATOM     30  C   UNL     1       0.008  -2.204  25.550  0.00  0.00    +0.005 C 
ENDBRANCH  18  29
ENDBRANCH   4  18
ENDBRANCH  12  14
ENDBRANCH   6  12
ENDBRANCH  11   7
BRANCH  11  13
ATOM      1  O   UNL     1      -1.256   1.366  22.249  0.00  0.00    -0.354 OA
ATOM      5  N   UNL     1      -2.507   1.958  22.370  0.00  0.00    -0.083 NA
ATOM     13  C   UNL     1      -2.438   2.684  23.490  0.00  0.00    +0.085 A 
ATOM     15  C   UNL     1      -1.182   2.590  24.111  0.00  0.00    +0.076 A 
ATOM     16  C   UNL     1      -0.475   1.750  23.291  0.00  0.00    +0.167 A 
BRANCH  16  19
ATOM     19  C   UNL     1       0.856   1.215  23.302  0.00  0.00    +0.020 A 
ATOM     21  C   UNL     1       3.444   0.178  23.317  0.00  0.00    -0.042 A 
ATOM     22  C   UNL     1       1.063  -0.146  23.076  0.00  0.00    +0.012 A 
ATOM     23  C   UNL     1       1.943   2.058  23.534  0.00  0.00    +0.012 A 
ATOM     24  C   UNL     1       2.357  -0.664  23.084  0.00  0.00    +0.005 A 
ATOM     25  C   UNL     1       3.238   1.539  23.542  0.00  0.00    +0.005 A 
BRANCH  21  17
ATOM     17  C   UNL     1       4.829  -0.378  23.326  0.00  0.00    -0.013 C 
ATOM     26  C   UNL     1       4.835  -1.874  23.768  0.00  0.00    +0.015 C 
ATOM     27  C   UNL     1       5.747   0.407  24.314  0.00  0.00    +0.015 C 
ATOM     28  C   UNL     1       5.574  -0.346  21.951  0.00  0.00    +0.015 C 
ENDBRANCH  21  17
ENDBRANCH  16  19
ENDBRANCH  11  13
TORSDOF 8
ENDMDL
