MODEL 1
REMARK VINA RESULT:      -1.6      0.000      0.000
REMARK  Name = 75536259
REMARK  8 active torsions:
REMARK  status: ('A' for Active; 'I' for Inactive)
REMARK    1  A    between atoms: O_3  and  C_10
REMARK    2  A    between atoms: N_5  and  C_9
REMARK    3  A    between atoms: N_5  and  C_11
REMARK    4  A    between atoms: N_6  and  C_20
REMARK    5  A    between atoms: C_8  and  C_11
REMARK    6  A    between atoms: C_12  and  C_19
REMARK    7  A    between atoms: C_19  and  C_21
REMARK    8  A    between atoms: C_23  and  C_24
REMARK                            x       y       z     vdW  Elec       q    Type
REMARK                         _______ _______ _______ _____ _____    ______ ____
ROOT
ATOM      2  O   UNL     1      -3.774   0.043  23.618  0.00  0.00    -0.369 OA
ATOM      8  C   UNL     1      -4.658  -0.464  24.625  0.00  0.00    +0.161 C 
ATOM     10  C   UNL     1      -4.029  -1.645  25.377  0.00  0.00    +0.145 C 
ATOM     12  C   UNL     1      -2.478   0.428  24.084  0.00  0.00    +0.125 C 
ATOM     13  C   UNL     1      -2.616  -1.339  25.863  0.00  0.00    +0.036 C 
ATOM     14  C   UNL     1      -1.767  -0.755  24.737  0.00  0.00    +0.034 C 
ENDROOT
BRANCH  10   3
ATOM      3  O   UNL     1      -3.954  -2.766  24.492  0.00  0.00    -0.389 OA
ATOM     31  H   UNL     1      -4.641  -2.652  23.814  0.00  0.00    +0.210 HD
ENDBRANCH  10   3
BRANCH   8  11
ATOM     11  C   UNL     1      -5.130   0.651  25.555  0.00  0.00    +0.115 C 
BRANCH  11   5
ATOM      5  N   UNL     1      -5.705   1.750  24.797  0.00  0.00    -0.311 NA
ATOM     30  H   UNL     1      -6.654   1.921  25.131  0.00  0.00    +0.122 HD
BRANCH   5   9
ATOM      6  N   UNL     1      -2.288   4.272  24.954  0.00  0.00    -0.305 NA
ATOM      9  C   UNL     1      -4.906   2.965  24.945  0.00  0.00    +0.056 C 
ATOM     15  C   UNL     1      -4.130   3.250  23.657  0.00  0.00    +0.034 C 
ATOM     16  C   UNL     1      -3.933   2.840  26.123  0.00  0.00    +0.034 C 
ATOM     17  C   UNL     1      -3.210   4.461  23.826  0.00  0.00    +0.085 C 
ATOM     18  C   UNL     1      -3.019   4.065  26.211  0.00  0.00    +0.085 C 
ATOM     20  C   UNL     1      -1.383   5.416  25.072  0.00  0.00    +0.104 C 
ENDBRANCH   5   9
ENDBRANCH  11   5
ENDBRANCH   8  11
BRANCH  12  19
ATOM     19  C   UNL     1      -1.692   0.938  22.882  0.00  0.00    +0.090 C 
BRANCH  19  21
ATOM      4  O   UNL     1       1.643   1.826  23.924  0.00  0.00    -0.354 OA
ATOM      7  N   UNL     1       0.279   2.073  23.824  0.00  0.00    -0.083 NA
ATOM     21  C   UNL     1      -0.216   1.016  23.174  0.00  0.00    +0.087 A 
ATOM     22  C   UNL     1       0.777   0.080  22.840  0.00  0.00    +0.076 A 
ATOM     23  C   UNL     1       1.927   0.636  23.334  0.00  0.00    +0.167 A 
BRANCH  23  24
ATOM      1  F   UNL     1       7.277  -0.887  23.436  0.00  0.00    -0.205 F 
ATOM     24  C   UNL     1       3.306   0.243  23.359  0.00  0.00    +0.020 A 
ATOM     25  C   UNL     1       3.652  -1.069  23.681  0.00  0.00    +0.014 A 
ATOM     26  C   UNL     1       4.302   1.174  23.062  0.00  0.00    +0.014 A 
ATOM     27  C   UNL     1       4.993  -1.450  23.708  0.00  0.00    +0.039 A 
ATOM     28  C   UNL     1       5.643   0.792  23.088  0.00  0.00    +0.039 A 
ATOM     29  C   UNL     1       5.989  -0.520  23.410  0.00  0.00    +0.123 A 
ENDBRANCH  23  24
ENDBRANCH  19  21
ENDBRANCH  12  19
TORSDOF 7
ENDMDL
MODEL 2
REMARK VINA RESULT:      -0.7      2.175      4.443
REMARK  Name = 75536259
REMARK  8 active torsions:
REMARK  status: ('A' for Active; 'I' for Inactive)
REMARK    1  A    between atoms: O_3  and  C_10
REMARK    2  A    between atoms: N_5  and  C_9
REMARK    3  A    between atoms: N_5  and  C_11
REMARK    4  A    between atoms: N_6  and  C_20
REMARK    5  A    between atoms: C_8  and  C_11
REMARK    6  A    between atoms: C_12  and  C_19
REMARK    7  A    between atoms: C_19  and  C_21
REMARK    8  A    between atoms: C_23  and  C_24
REMARK                            x       y       z     vdW  Elec       q    Type
REMARK                         _______ _______ _______ _____ _____    ______ ____
ROOT
ATOM      2  O   UNL     1      -3.847   2.214  25.893  0.00  0.00    -0.369 OA
ATOM      8  C   UNL     1      -5.001   1.438  25.548  0.00  0.00    +0.161 C 
ATOM     10  C   UNL     1      -6.299   2.196  25.862  0.00  0.00    +0.145 C 
ATOM     12  C   UNL     1      -3.784   3.510  25.292  0.00  0.00    +0.125 C 
ATOM     13  C   UNL     1      -6.293   3.616  25.303  0.00  0.00    +0.036 C 
ATOM     14  C   UNL     1      -5.004   4.343  25.677  0.00  0.00    +0.034 C 
ENDROOT
BRANCH  10   3
ATOM      3  O   UNL     1      -6.446   2.286  27.282  0.00  0.00    -0.389 OA
ATOM     31  H   UNL     1      -7.276   1.838  27.520  0.00  0.00    +0.210 HD
ENDBRANCH  10   3
BRANCH   8  11
ATOM     11  C   UNL     1      -4.928   0.957  24.101  0.00  0.00    +0.115 C 
BRANCH  11   5
ATOM      5  N   UNL     1      -4.930  -0.496  24.036  0.00  0.00    -0.311 NA
ATOM     30  H   UNL     1      -4.869  -0.783  23.059  0.00  0.00    +0.122 HD
BRANCH   5   9
ATOM      6  N   UNL     1      -1.049  -2.035  24.833  0.00  0.00    -0.305 NA
ATOM      9  C   UNL     1      -3.806  -1.055  24.785  0.00  0.00    +0.056 C 
ATOM     15  C   UNL     1      -2.603  -0.112  24.718  0.00  0.00    +0.034 C 
ATOM     16  C   UNL     1      -3.419  -2.435  24.242  0.00  0.00    +0.034 C 
ATOM     17  C   UNL     1      -1.384  -0.726  25.412  0.00  0.00    +0.085 C 
ATOM     18  C   UNL     1      -2.174  -2.973  24.951  0.00  0.00    +0.085 C 
ATOM     20  C   UNL     1       0.146  -2.586  25.473  0.00  0.00    +0.104 C 
ENDBRANCH   5   9
ENDBRANCH  11   5
ENDBRANCH   8  11
BRANCH  12  19
ATOM     19  C   UNL     1      -2.499   4.175  25.771  0.00  0.00    +0.090 C 
BRANCH  19  21
ATOM      4  O   UNL     1       0.524   2.211  25.784  0.00  0.00    -0.354 OA
ATOM      7  N   UNL     1      -0.472   2.940  26.423  0.00  0.00    -0.083 NA
ATOM     21  C   UNL     1      -1.286   3.346  25.444  0.00  0.00    +0.087 A 
ATOM     22  C   UNL     1      -0.859   2.908  24.179  0.00  0.00    +0.076 A 
ATOM     23  C   UNL     1       0.282   2.199  24.448  0.00  0.00    +0.167 A 
BRANCH  23  24
ATOM      1  F   UNL     1       3.966  -0.591  21.349  0.00  0.00    -0.205 F 
ATOM     24  C   UNL     1       1.232   1.480  23.650  0.00  0.00    +0.020 A 
ATOM     25  C   UNL     1       2.554   1.916  23.576  0.00  0.00    +0.014 A 
ATOM     26  C   UNL     1       0.832   0.343  22.946  0.00  0.00    +0.014 A 
ATOM     27  C   UNL     1       3.478   1.217  22.799  0.00  0.00    +0.039 A 
ATOM     28  C   UNL     1       1.756  -0.357  22.170  0.00  0.00    +0.039 A 
ATOM     29  C   UNL     1       3.079   0.081  22.096  0.00  0.00    +0.123 A 
ENDBRANCH  23  24
ENDBRANCH  19  21
ENDBRANCH  12  19
TORSDOF 7
ENDMDL
MODEL 3
REMARK VINA RESULT:       0.6      2.170      4.305
REMARK  Name = 75536259
REMARK  8 active torsions:
REMARK  status: ('A' for Active; 'I' for Inactive)
REMARK    1  A    between atoms: O_3  and  C_10
REMARK    2  A    between atoms: N_5  and  C_9
REMARK    3  A    between atoms: N_5  and  C_11
REMARK    4  A    between atoms: N_6  and  C_20
REMARK    5  A    between atoms: C_8  and  C_11
REMARK    6  A    between atoms: C_12  and  C_19
REMARK    7  A    between atoms: C_19  and  C_21
REMARK    8  A    between atoms: C_23  and  C_24
REMARK                            x       y       z     vdW  Elec       q    Type
REMARK                         _______ _______ _______ _____ _____    ______ ____
ROOT
ATOM      2  O   UNL     1      -0.894   2.572  24.363  0.00  0.00    -0.369 OA
ATOM      8  C   UNL     1      -1.060   3.101  25.684  0.00  0.00    +0.161 C 
ATOM     10  C   UNL     1      -2.193   4.135  25.735  0.00  0.00    +0.145 C 
ATOM     12  C   UNL     1      -2.070   1.998  23.786  0.00  0.00    +0.125 C 
ATOM     13  C   UNL     1      -3.476   3.623  25.086  0.00  0.00    +0.036 C 
ATOM     14  C   UNL     1      -3.192   3.032  23.708  0.00  0.00    +0.034 C 
ENDROOT
BRANCH  10   3
ATOM      3  O   UNL     1      -1.780   5.305  25.023  0.00  0.00    -0.389 OA
ATOM     31  H   UNL     1      -1.668   5.056  24.090  0.00  0.00    +0.210 HD
ENDBRANCH  10   3
BRANCH   8  11
ATOM     11  C   UNL     1      -1.229   1.981  26.708  0.00  0.00    +0.115 C 
BRANCH  11   5
ATOM      5  N   UNL     1      -0.424   0.824  26.350  0.00  0.00    -0.311 NA
ATOM     30  H   UNL     1       0.254   0.651  27.092  0.00  0.00    +0.122 HD
BRANCH   5   9
ATOM      6  N   UNL     1      -2.992  -1.974  24.443  0.00  0.00    -0.305 NA
ATOM      9  C   UNL     1      -1.261  -0.359  26.162  0.00  0.00    +0.056 C 
ATOM     15  C   UNL     1      -0.707  -1.226  25.029  0.00  0.00    +0.034 C 
ATOM     16  C   UNL     1      -2.709   0.037  25.857  0.00  0.00    +0.034 C 
ATOM     17  C   UNL     1      -1.625  -2.419  24.751  0.00  0.00    +0.085 C 
ATOM     18  C   UNL     1      -3.562  -1.197  25.551  0.00  0.00    +0.085 C 
ATOM     20  C   UNL     1      -3.845  -3.122  24.131  0.00  0.00    +0.104 C 
ENDBRANCH   5   9
ENDBRANCH  11   5
ENDBRANCH   8  11
BRANCH  12  19
ATOM     19  C   UNL     1      -1.700   1.493  22.397  0.00  0.00    +0.090 C 
BRANCH  19  21
ATOM      4  O   UNL     1       1.206  -0.559  21.813  0.00  0.00    -0.354 OA
ATOM      7  N   UNL     1      -0.116  -0.202  21.574  0.00  0.00    -0.083 NA
ATOM     21  C   UNL     1      -0.346   0.834  22.386  0.00  0.00    +0.087 A 
ATOM     22  C   UNL     1       0.781   1.173  23.153  0.00  0.00    +0.076 A 
ATOM     23  C   UNL     1       1.730   0.267  22.756  0.00  0.00    +0.167 A 
BRANCH  23  24
ATOM      1  F   UNL     1       7.035  -0.690  24.131  0.00  0.00    -0.205 F 
ATOM     24  C   UNL     1       3.097   0.020  23.109  0.00  0.00    +0.020 A 
ATOM     25  C   UNL     1       3.480  -1.234  23.584  0.00  0.00    +0.014 A 
ATOM     26  C   UNL     1       4.045   1.035  22.979  0.00  0.00    +0.014 A 
ATOM     27  C   UNL     1       4.809  -1.474  23.930  0.00  0.00    +0.039 A 
ATOM     28  C   UNL     1       5.375   0.795  23.324  0.00  0.00    +0.039 A 
ATOM     29  C   UNL     1       5.757  -0.460  23.799  0.00  0.00    +0.123 A 
ENDBRANCH  23  24
ENDBRANCH  19  21
ENDBRANCH  12  19
TORSDOF 7
ENDMDL
MODEL 4
REMARK VINA RESULT:       1.5      1.730      3.972
REMARK  Name = 75536259
REMARK  8 active torsions:
REMARK  status: ('A' for Active; 'I' for Inactive)
REMARK    1  A    between atoms: O_3  and  C_10
REMARK    2  A    between atoms: N_5  and  C_9
REMARK    3  A    between atoms: N_5  and  C_11
REMARK    4  A    between atoms: N_6  and  C_20
REMARK    5  A    between atoms: C_8  and  C_11
REMARK    6  A    between atoms: C_12  and  C_19
REMARK    7  A    between atoms: C_19  and  C_21
REMARK    8  A    between atoms: C_23  and  C_24
REMARK                            x       y       z     vdW  Elec       q    Type
REMARK                         _______ _______ _______ _____ _____    ______ ____
ROOT
ATOM      2  O   UNL     1      -2.950   1.791  24.711  0.00  0.00    -0.369 OA
ATOM      8  C   UNL     1      -3.678   2.590  25.651  0.00  0.00    +0.161 C 
ATOM     10  C   UNL     1      -3.487   4.088  25.378  0.00  0.00    +0.145 C 
ATOM     12  C   UNL     1      -3.242   2.051  23.336  0.00  0.00    +0.125 C 
ATOM     13  C   UNL     1      -3.724   4.447  23.914  0.00  0.00    +0.036 C 
ATOM     14  C   UNL     1      -2.951   3.510  22.990  0.00  0.00    +0.034 C 
ENDROOT
BRANCH  10   3
ATOM      3  O   UNL     1      -2.141   4.446  25.702  0.00  0.00    -0.389 OA
ATOM     31  H   UNL     1      -1.578   3.677  25.510  0.00  0.00    +0.210 HD
ENDBRANCH  10   3
BRANCH   8  11
ATOM     11  C   UNL     1      -5.148   2.177  25.702  0.00  0.00    +0.115 C 
BRANCH  11   5
ATOM      5  N   UNL     1      -5.279   0.765  26.025  0.00  0.00    -0.311 NA
ATOM     30  H   UNL     1      -6.220   0.457  25.783  0.00  0.00    +0.122 HD
BRANCH   5   9
ATOM      6  N   UNL     1      -3.265  -2.656  24.505  0.00  0.00    -0.305 NA
ATOM      9  C   UNL     1      -4.296  -0.033  25.295  0.00  0.00    +0.056 C 
ATOM     15  C   UNL     1      -4.994  -0.904  24.247  0.00  0.00    +0.034 C 
ATOM     16  C   UNL     1      -3.487  -0.915  26.251  0.00  0.00    +0.034 C 
ATOM     17  C   UNL     1      -3.993  -1.820  23.539  0.00  0.00    +0.085 C 
ATOM     18  C   UNL     1      -2.535  -1.832  25.479  0.00  0.00    +0.085 C 
ATOM     20  C   UNL     1      -2.349  -3.560  23.811  0.00  0.00    +0.104 C 
ENDBRANCH   5   9
ENDBRANCH  11   5
ENDBRANCH   8  11
BRANCH  12  19
ATOM     19  C   UNL     1      -2.381   1.113  22.499  0.00  0.00    +0.090 C 
BRANCH  19  21
ATOM      4  O   UNL     1       0.795   1.684  24.105  0.00  0.00    -0.354 OA
ATOM      7  N   UNL     1      -0.560   1.942  23.932  0.00  0.00    -0.083 NA
ATOM     21  C   UNL     1      -0.947   1.113  22.959  0.00  0.00    +0.087 A 
ATOM     22  C   UNL     1       0.108   0.316  22.483  0.00  0.00    +0.076 A 
ATOM     23  C   UNL     1       1.181   0.714  23.236  0.00  0.00    +0.167 A 
BRANCH  23  24
ATOM      1  F   UNL     1       6.544  -0.746  23.469  0.00  0.00    -0.205 F 
ATOM     24  C   UNL     1       2.563   0.338  23.298  0.00  0.00    +0.020 A 
ATOM     25  C   UNL     1       3.555   1.272  22.997  0.00  0.00    +0.014 A 
ATOM     26  C   UNL     1       2.917  -0.963  23.656  0.00  0.00    +0.014 A 
ATOM     27  C   UNL     1       4.899   0.906  23.054  0.00  0.00    +0.039 A 
ATOM     28  C   UNL     1       4.262  -1.329  23.715  0.00  0.00    +0.039 A 
ATOM     29  C   UNL     1       5.253  -0.394  23.414  0.00  0.00    +0.123 A 
ENDBRANCH  23  24
ENDBRANCH  19  21
ENDBRANCH  12  19
TORSDOF 7
ENDMDL
MODEL 5
REMARK VINA RESULT:       1.8      3.163      7.114
REMARK  Name = 75536259
REMARK  8 active torsions:
REMARK  status: ('A' for Active; 'I' for Inactive)
REMARK    1  A    between atoms: O_3  and  C_10
REMARK    2  A    between atoms: N_5  and  C_9
REMARK    3  A    between atoms: N_5  and  C_11
REMARK    4  A    between atoms: N_6  and  C_20
REMARK    5  A    between atoms: C_8  and  C_11
REMARK    6  A    between atoms: C_12  and  C_19
REMARK    7  A    between atoms: C_19  and  C_21
REMARK    8  A    between atoms: C_23  and  C_24
REMARK                            x       y       z     vdW  Elec       q    Type
REMARK                         _______ _______ _______ _____ _____    ______ ____
ROOT
ATOM      2  O   UNL     1      -2.012   3.566  24.705  0.00  0.00    -0.369 OA
ATOM      8  C   UNL     1      -0.580   3.633  24.731  0.00  0.00    +0.161 C 
ATOM     10  C   UNL     1      -0.078   5.023  24.317  0.00  0.00    +0.145 C 
ATOM     12  C   UNL     1      -2.681   4.553  25.494  0.00  0.00    +0.125 C 
ATOM     13  C   UNL     1      -0.784   6.145  25.072  0.00  0.00    +0.036 C 
ATOM     14  C   UNL     1      -2.299   5.959  25.035  0.00  0.00    +0.034 C 
ENDROOT
BRANCH  10   3
ATOM      3  O   UNL     1      -0.334   5.208  22.922  0.00  0.00    -0.389 OA
ATOM     31  H   UNL     1      -0.934   4.498  22.637  0.00  0.00    +0.210 HD
ENDBRANCH  10   3
BRANCH   8  11
ATOM     11  C   UNL     1      -0.032   3.180  26.082  0.00  0.00    +0.115 C 
BRANCH  11   5
ATOM      5  N   UNL     1      -0.348   1.782  26.327  0.00  0.00    -0.311 NA
ATOM     30  H   UNL     1      -1.358   1.655  26.261  0.00  0.00    +0.122 HD
BRANCH   5   9
ATOM      6  N   UNL     1       0.669   0.027  22.592  0.00  0.00    -0.305 NA
ATOM      9  C   UNL     1       0.321   0.915  25.359  0.00  0.00    +0.056 C 
ATOM     15  C   UNL     1       1.061   1.758  24.317  0.00  0.00    +0.034 C 
ATOM     16  C   UNL     1      -0.685  -0.009  24.664  0.00  0.00    +0.034 C 
ATOM     17  C   UNL     1       1.685   0.872  23.236  0.00  0.00    +0.085 C 
ATOM     18  C   UNL     1      -0.004  -0.837  23.572  0.00  0.00    +0.085 C 
ATOM     20  C   UNL     1       1.272  -0.778  21.530  0.00  0.00    +0.104 C 
ENDBRANCH   5   9
ENDBRANCH  11   5
ENDBRANCH   8  11
BRANCH  12  19
ATOM     19  C   UNL     1      -4.180   4.322  25.343  0.00  0.00    +0.090 C 
BRANCH  19  21
ATOM      4  O   UNL     1      -5.716   1.076  25.031  0.00  0.00    -0.354 OA
ATOM      7  N   UNL     1      -5.776   2.452  25.214  0.00  0.00    -0.083 NA
ATOM     21  C   UNL     1      -4.504   2.861  25.177  0.00  0.00    +0.087 A 
ATOM     22  C   UNL     1      -3.607   1.798  24.977  0.00  0.00    +0.076 A 
ATOM     23  C   UNL     1      -4.419   0.698  24.892  0.00  0.00    +0.167 A 
BRANCH  23  24
ATOM      1  F   UNL     1      -3.555  -4.743  24.121  0.00  0.00    -0.205 F 
ATOM     24  C   UNL     1      -4.198  -0.704  24.694  0.00  0.00    +0.020 A 
ATOM     25  C   UNL     1      -3.547  -1.454  25.674  0.00  0.00    +0.014 A 
ATOM     26  C   UNL     1      -4.630  -1.320  23.518  0.00  0.00    +0.014 A 
ATOM     27  C   UNL     1      -3.330  -2.818  25.480  0.00  0.00    +0.039 A 
ATOM     28  C   UNL     1      -4.414  -2.684  23.325  0.00  0.00    +0.039 A 
ATOM     29  C   UNL     1      -3.763  -3.433  24.307  0.00  0.00    +0.123 A 
ENDBRANCH  23  24
ENDBRANCH  19  21
ENDBRANCH  12  19
TORSDOF 7
ENDMDL
MODEL 6
REMARK VINA RESULT:       2.1      3.652      7.439
REMARK  Name = 75536259
REMARK  8 active torsions:
REMARK  status: ('A' for Active; 'I' for Inactive)
REMARK    1  A    between atoms: O_3  and  C_10
REMARK    2  A    between atoms: N_5  and  C_9
REMARK    3  A    between atoms: N_5  and  C_11
REMARK    4  A    between atoms: N_6  and  C_20
REMARK    5  A    between atoms: C_8  and  C_11
REMARK    6  A    between atoms: C_12  and  C_19
REMARK    7  A    between atoms: C_19  and  C_21
REMARK    8  A    between atoms: C_23  and  C_24
REMARK                            x       y       z     vdW  Elec       q    Type
REMARK                         _______ _______ _______ _____ _____    ______ ____
ROOT
ATOM      2  O   UNL     1       0.475   1.011  23.360  0.00  0.00    -0.369 OA
ATOM      8  C   UNL     1       0.647  -0.400  23.180  0.00  0.00    +0.161 C 
ATOM     10  C   UNL     1       1.828  -0.704  22.248  0.00  0.00    +0.145 C 
ATOM     12  C   UNL     1       1.630   1.709  23.834  0.00  0.00    +0.125 C 
ATOM     13  C   UNL     1       3.094   0.048  22.649  0.00  0.00    +0.036 C 
ATOM     14  C   UNL     1       2.801   1.529  22.870  0.00  0.00    +0.034 C 
ENDROOT
BRANCH  10   3
ATOM      3  O   UNL     1       1.482  -0.301  20.920  0.00  0.00    -0.389 OA
ATOM     31  H   UNL     1       2.161   0.327  20.618  0.00  0.00    +0.210 HD
ENDBRANCH  10   3
BRANCH   8  11
ATOM     11  C   UNL     1       0.748  -1.118  24.523  0.00  0.00    +0.115 C 
BRANCH  11   5
ATOM      5  N   UNL     1      -0.266  -0.636  25.447  0.00  0.00    -0.311 NA
ATOM     30  H   UNL     1      -0.488   0.333  25.217  0.00  0.00    +0.122 HD
BRANCH   5   9
ATOM      6  N   UNL     1      -3.870  -2.270  23.898  0.00  0.00    -0.305 NA
ATOM      9  C   UNL     1      -1.477  -1.450  25.368  0.00  0.00    +0.056 C 
ATOM     15  C   UNL     1      -1.412  -2.381  24.155  0.00  0.00    +0.034 C 
ATOM     16  C   UNL     1      -2.726  -0.568  25.282  0.00  0.00    +0.034 C 
ATOM     17  C   UNL     1      -2.713  -3.171  23.997  0.00  0.00    +0.085 C 
ATOM     18  C   UNL     1      -3.985  -1.416  25.088  0.00  0.00    +0.085 C 
ATOM     20  C   UNL     1      -5.100  -3.038  23.699  0.00  0.00    +0.104 C 
ENDBRANCH   5   9
ENDBRANCH  11   5
ENDBRANCH   8  11
BRANCH  12  19
ATOM     19  C   UNL     1       1.255   3.180  23.964  0.00  0.00    +0.090 C 
BRANCH  19  21
ATOM      4  O   UNL     1      -1.933   4.307  25.215  0.00  0.00    -0.354 OA
ATOM      7  N   UNL     1      -0.571   4.472  24.992  0.00  0.00    -0.083 NA
ATOM     21  C   UNL     1      -0.185   3.355  24.369  0.00  0.00    +0.087 A 
ATOM     22  C   UNL     1      -1.248   2.458  24.173  0.00  0.00    +0.076 A 
ATOM     23  C   UNL     1      -2.324   3.103  24.722  0.00  0.00    +0.167 A 
BRANCH  23  24
ATOM      1  F   UNL     1      -7.717   1.881  25.334  0.00  0.00    -0.205 F 
ATOM     24  C   UNL     1      -3.715   2.789  24.879  0.00  0.00    +0.020 A 
ATOM     25  C   UNL     1      -4.465   3.420  25.870  0.00  0.00    +0.014 A 
ATOM     26  C   UNL     1      -4.317   1.850  24.040  0.00  0.00    +0.014 A 
ATOM     27  C   UNL     1      -5.817   3.114  26.024  0.00  0.00    +0.039 A 
ATOM     28  C   UNL     1      -5.669   1.544  24.194  0.00  0.00    +0.039 A 
ATOM     29  C   UNL     1      -6.419   2.176  25.186  0.00  0.00    +0.123 A 
ENDBRANCH  23  24
ENDBRANCH  19  21
ENDBRANCH  12  19
TORSDOF 7
ENDMDL
