MODEL 1
REMARK VINA RESULT:      -0.4      0.000      0.000
REMARK  Name = 40777252
REMARK  10 active torsions:
REMARK  status: ('A' for Active; 'I' for Inactive)
REMARK    1  A    between atoms: N_4  and  C_14
REMARK    2  A    between atoms: C_8  and  C_15
REMARK    3  A    between atoms: C_9  and  C_14
REMARK    4  A    between atoms: C_17  and  C_20
REMARK    5  A    between atoms: C_18  and  C_23
REMARK    6  A    between atoms: C_19  and  C_24
REMARK    7  A    between atoms: C_20  and  C_21
REMARK    8  A    between atoms: C_20  and  C_22
REMARK    9  A    between atoms: C_21  and  C_25
REMARK   10  A    between atoms: C_22  and  C_26
REMARK                            x       y       z     vdW  Elec       q    Type
REMARK                         _______ _______ _______ _____ _____    ______ ____
ROOT
ATOM      3  N   UNL     1      -2.676  -2.228  23.566  0.00  0.00    -0.297 NA
ATOM      7  C   UNL     1      -2.932  -1.409  26.026  0.00  0.00    +0.002 C 
ATOM      8  C   UNL     1      -3.986  -0.724  25.112  0.00  0.00    +0.055 C 
ATOM      9  C   UNL     1      -1.356  -1.801  24.100  0.00  0.00    +0.074 C 
ATOM     10  C   UNL     1      -1.518  -1.123  25.478  0.00  0.00    +0.024 C 
ATOM     11  C   UNL     1      -3.163  -2.931  25.908  0.00  0.00    +0.019 C 
ATOM     12  C   UNL     1      -3.642  -1.103  23.643  0.00  0.00    +0.094 C 
ATOM     13  C   UNL     1      -3.178  -3.329  24.422  0.00  0.00    +0.085 C 
ENDROOT
BRANCH   8  15
ATOM      5  N   UNL     1      -5.467   1.149  25.637  0.00  0.00    -0.237 NA
ATOM      6  N   UNL     1      -4.707   3.437  25.601  0.00  0.00    -0.232 NA
ATOM     15  C   UNL     1      -4.222   0.770  25.283  0.00  0.00    +0.050 A 
ATOM     16  C   UNL     1      -3.182   1.651  25.072  0.00  0.00    +0.052 A 
ATOM     18  C   UNL     1      -3.485   2.986  25.247  0.00  0.00    +0.076 A 
ATOM     19  C   UNL     1      -5.637   2.479  25.777  0.00  0.00    +0.127 A 
ATOM     24  C   UNL     1      -7.001   2.938  26.166  0.00  0.00    +0.088 C 
BRANCH  18  23
ATOM      1 BR   UNL     1      -0.467   2.044  25.725  0.00  0.00    -0.050 Br
ATOM     23  C   UNL     1      -2.486   4.009  25.055  0.00  0.00    +0.014 A 
ATOM     27  C   UNL     1      -1.126   3.756  25.226  0.00  0.00    +0.027 A 
ATOM     28  C   UNL     1      -2.917   5.285  24.689  0.00  0.00    +0.011 A 
ATOM     29  C   UNL     1      -0.195   4.777  25.029  0.00  0.00    +0.016 A 
ATOM     30  C   UNL     1      -1.988   6.306  24.492  0.00  0.00    +0.001 A 
ATOM     31  C   UNL     1      -0.626   6.052  24.662  0.00  0.00    +0.001 A 
ENDBRANCH  18  23
ENDBRANCH   8  15
BRANCH   9  14
ATOM     14  C   UNL     1      -0.587  -0.917  23.116  0.00  0.00    +0.123 C 
BRANCH  14   4
ATOM      2  O   UNL     1       1.695  -0.255  21.500  0.00  0.00    -0.276 OA
ATOM      4  N   UNL     1       0.749  -0.685  23.574  0.00  0.00    -0.314 N 
ATOM     17  C   UNL     1       1.804  -0.367  22.719  0.00  0.00    +0.216 C 
ATOM     32  H   UNL     1       0.920  -0.762  24.571  0.00  0.00    +0.149 HD
BRANCH  17  20
ATOM     20  C   UNL     1       3.135  -0.184  23.455  0.00  0.00    +0.074 C 
BRANCH  20  21
ATOM     21  C   UNL     1       4.059   0.819  22.745  0.00  0.00    +0.009 C 
ATOM     25  C   UNL     1       5.389   1.000  23.470  0.00  0.00    +0.004 C 
ENDBRANCH  20  21
BRANCH  20  22
ATOM     22  C   UNL     1       3.819  -1.551  23.663  0.00  0.00    +0.009 C 
ATOM     26  C   UNL     1       5.271  -1.476  24.115  0.00  0.00    +0.004 C 
ENDBRANCH  20  22
ENDBRANCH  17  20
ENDBRANCH  14   4
ENDBRANCH   9  14
TORSDOF 7
ENDMDL
MODEL 2
REMARK VINA RESULT:      -0.2      2.201      5.695
REMARK  Name = 40777252
REMARK  10 active torsions:
REMARK  status: ('A' for Active; 'I' for Inactive)
REMARK    1  A    between atoms: N_4  and  C_14
REMARK    2  A    between atoms: C_8  and  C_15
REMARK    3  A    between atoms: C_9  and  C_14
REMARK    4  A    between atoms: C_17  and  C_20
REMARK    5  A    between atoms: C_18  and  C_23
REMARK    6  A    between atoms: C_19  and  C_24
REMARK    7  A    between atoms: C_20  and  C_21
REMARK    8  A    between atoms: C_20  and  C_22
REMARK    9  A    between atoms: C_21  and  C_25
REMARK   10  A    between atoms: C_22  and  C_26
REMARK                            x       y       z     vdW  Elec       q    Type
REMARK                         _______ _______ _______ _____ _____    ______ ____
ROOT
ATOM      3  N   UNL     1      -3.220  -2.176  25.964  0.00  0.00    -0.297 NA
ATOM      7  C   UNL     1      -2.374  -2.130  23.501  0.00  0.00    +0.002 C 
ATOM      8  C   UNL     1      -1.222  -1.769  24.479  0.00  0.00    +0.055 C 
ATOM      9  C   UNL     1      -4.140  -1.363  25.126  0.00  0.00    +0.074 C 
ATOM     10  C   UNL     1      -3.549  -1.153  23.715  0.00  0.00    +0.024 C 
ATOM     11  C   UNL     1      -2.874  -3.535  23.902  0.00  0.00    +0.019 C 
ATOM     12  C   UNL     1      -1.846  -1.620  25.896  0.00  0.00    +0.094 C 
ATOM     13  C   UNL     1      -3.192  -3.549  25.407  0.00  0.00    +0.085 C 
ENDROOT
BRANCH   8  15
ATOM      5  N   UNL     1       0.866  -0.904  23.545  0.00  0.00    -0.237 NA
ATOM      6  N   UNL     1       1.355   1.455  23.460  0.00  0.00    -0.232 NA
ATOM     15  C   UNL     1      -0.315  -0.600  24.121  0.00  0.00    +0.050 A 
ATOM     16  C   UNL     1      -0.726   0.688  24.395  0.00  0.00    +0.052 A 
ATOM     18  C   UNL     1       0.158   1.685  24.039  0.00  0.00    +0.076 A 
ATOM     19  C   UNL     1       1.641   0.156  23.244  0.00  0.00    +0.127 A 
ATOM     24  C   UNL     1       2.956  -0.139  22.608  0.00  0.00    +0.088 C 
BRANCH  18  23
ATOM      1 BR   UNL     1      -0.730   2.394  27.028  0.00  0.00    -0.050 Br
ATOM     23  C   UNL     1      -0.151   3.075  24.273  0.00  0.00    +0.014 A 
ATOM     27  C   UNL     1      -0.554   3.543  25.524  0.00  0.00    +0.027 A 
ATOM     28  C   UNL     1      -0.039   3.961  23.201  0.00  0.00    +0.011 A 
ATOM     29  C   UNL     1      -0.843   4.896  25.703  0.00  0.00    +0.016 A 
ATOM     30  C   UNL     1      -0.327   5.314  23.380  0.00  0.00    +0.001 A 
ATOM     31  C   UNL     1      -0.729   5.782  24.632  0.00  0.00    +0.001 A 
ENDBRANCH  18  23
ENDBRANCH   8  15
BRANCH   9  14
ATOM     14  C   UNL     1      -4.516  -0.037  25.790  0.00  0.00    +0.123 C 
BRANCH  14   4
ATOM      2  O   UNL     1      -6.213   2.007  24.695  0.00  0.00    -0.276 OA
ATOM      4  N   UNL     1      -4.109   1.073  24.983  0.00  0.00    -0.314 N 
ATOM     17  C   UNL     1      -5.001   2.024  24.490  0.00  0.00    +0.216 C 
ATOM     32  H   UNL     1      -3.121   1.154  24.767  0.00  0.00    +0.149 HD
BRANCH  17  20
ATOM     20  C   UNL     1      -4.317   3.100  23.640  0.00  0.00    +0.074 C 
BRANCH  20  21
ATOM     21  C   UNL     1      -2.984   2.613  23.049  0.00  0.00    +0.009 C 
ATOM     25  C   UNL     1      -3.068   2.370  21.545  0.00  0.00    +0.004 C 
ENDBRANCH  20  21
BRANCH  20  22
ATOM     22  C   UNL     1      -4.147   4.395  24.459  0.00  0.00    +0.009 C 
ATOM     26  C   UNL     1      -4.032   4.187  25.964  0.00  0.00    +0.004 C 
ENDBRANCH  20  22
ENDBRANCH  17  20
ENDBRANCH  14   4
ENDBRANCH   9  14
TORSDOF 7
ENDMDL
MODEL 3
REMARK VINA RESULT:       0.4      1.581      5.214
REMARK  Name = 40777252
REMARK  10 active torsions:
REMARK  status: ('A' for Active; 'I' for Inactive)
REMARK    1  A    between atoms: N_4  and  C_14
REMARK    2  A    between atoms: C_8  and  C_15
REMARK    3  A    between atoms: C_9  and  C_14
REMARK    4  A    between atoms: C_17  and  C_20
REMARK    5  A    between atoms: C_18  and  C_23
REMARK    6  A    between atoms: C_19  and  C_24
REMARK    7  A    between atoms: C_20  and  C_21
REMARK    8  A    between atoms: C_20  and  C_22
REMARK    9  A    between atoms: C_21  and  C_25
REMARK   10  A    between atoms: C_22  and  C_26
REMARK                            x       y       z     vdW  Elec       q    Type
REMARK                         _______ _______ _______ _____ _____    ______ ____
ROOT
ATOM      3  N   UNL     1      -0.583   4.415  25.531  0.00  0.00    -0.297 NA
ATOM      7  C   UNL     1      -2.426   4.104  23.717  0.00  0.00    +0.002 C 
ATOM      8  C   UNL     1      -2.996   3.799  25.130  0.00  0.00    +0.055 C 
ATOM      9  C   UNL     1      -0.072   3.559  24.429  0.00  0.00    +0.074 C 
ATOM     10  C   UNL     1      -1.209   3.194  23.450  0.00  0.00    +0.024 C 
ATOM     11  C   UNL     1      -1.906   5.558  23.752  0.00  0.00    +0.019 C 
ATOM     12  C   UNL     1      -1.800   3.807  26.124  0.00  0.00    +0.094 C 
ATOM     13  C   UNL     1      -0.956   5.727  24.951  0.00  0.00    +0.085 C 
ENDROOT
BRANCH   8  15
ATOM      5  N   UNL     1      -5.087   2.765  25.865  0.00  0.00    -0.237 NA
ATOM      6  N   UNL     1      -5.504   0.402  25.629  0.00  0.00    -0.232 NA
ATOM     15  C   UNL     1      -3.879   2.569  25.298  0.00  0.00    +0.050 A 
ATOM     16  C   UNL     1      -3.419   1.339  24.876  0.00  0.00    +0.052 A 
ATOM     18  C   UNL     1      -4.283   0.281  25.069  0.00  0.00    +0.076 A 
ATOM     19  C   UNL     1      -5.838   1.654  25.999  0.00  0.00    +0.127 A 
ATOM     24  C   UNL     1      -7.180   1.829  26.624  0.00  0.00    +0.088 C 
BRANCH  18  23
ATOM      1 BR   UNL     1      -1.439  -0.727  26.129  0.00  0.00    -0.050 Br
ATOM     23  C   UNL     1      -3.920  -1.059  24.673  0.00  0.00    +0.014 A 
ATOM     27  C   UNL     1      -2.713  -1.643  25.055  0.00  0.00    +0.027 A 
ATOM     28  C   UNL     1      -4.821  -1.774  23.883  0.00  0.00    +0.011 A 
ATOM     29  C   UNL     1      -2.406  -2.942  24.648  0.00  0.00    +0.016 A 
ATOM     30  C   UNL     1      -4.514  -3.073  23.476  0.00  0.00    +0.001 A 
ATOM     31  C   UNL     1      -3.306  -3.657  23.860  0.00  0.00    +0.001 A 
ENDBRANCH  18  23
ENDBRANCH   8  15
BRANCH   9  14
ATOM     14  C   UNL     1       0.656   2.316  24.945  0.00  0.00    +0.123 C 
BRANCH  14   4
ATOM      2  O   UNL     1       0.962  -0.298  23.791  0.00  0.00    -0.276 OA
ATOM      4  N   UNL     1       1.671   1.899  24.025  0.00  0.00    -0.314 N 
ATOM     17  C   UNL     1       1.748   0.605  23.511  0.00  0.00    +0.216 C 
ATOM     32  H   UNL     1       2.360   2.589  23.747  0.00  0.00    +0.149 HD
BRANCH  17  20
ATOM     20  C   UNL     1       2.934   0.410  22.561  0.00  0.00    +0.074 C 
BRANCH  20  21
ATOM     21  C   UNL     1       2.517  -0.256  21.239  0.00  0.00    +0.009 C 
ATOM     25  C   UNL     1       1.037  -0.622  21.214  0.00  0.00    +0.004 C 
ENDBRANCH  20  21
BRANCH  20  22
ATOM     22  C   UNL     1       4.060  -0.370  23.271  0.00  0.00    +0.009 C 
ATOM     26  C   UNL     1       5.286   0.461  23.625  0.00  0.00    +0.004 C 
ENDBRANCH  20  22
ENDBRANCH  17  20
ENDBRANCH  14   4
ENDBRANCH   9  14
TORSDOF 7
ENDMDL
MODEL 4
REMARK VINA RESULT:       1.1      1.091      1.634
REMARK  Name = 40777252
REMARK  10 active torsions:
REMARK  status: ('A' for Active; 'I' for Inactive)
REMARK    1  A    between atoms: N_4  and  C_14
REMARK    2  A    between atoms: C_8  and  C_15
REMARK    3  A    between atoms: C_9  and  C_14
REMARK    4  A    between atoms: C_17  and  C_20
REMARK    5  A    between atoms: C_18  and  C_23
REMARK    6  A    between atoms: C_19  and  C_24
REMARK    7  A    between atoms: C_20  and  C_21
REMARK    8  A    between atoms: C_20  and  C_22
REMARK    9  A    between atoms: C_21  and  C_25
REMARK   10  A    between atoms: C_22  and  C_26
REMARK                            x       y       z     vdW  Elec       q    Type
REMARK                         _______ _______ _______ _____ _____    ______ ____
ROOT
ATOM      3  N   UNL     1      -1.515  -2.035  23.814  0.00  0.00    -0.297 NA
ATOM      7  C   UNL     1      -3.615  -1.947  25.353  0.00  0.00    +0.002 C 
ATOM      8  C   UNL     1      -3.674  -0.817  24.287  0.00  0.00    +0.055 C 
ATOM      9  C   UNL     1      -1.102  -2.072  25.241  0.00  0.00    +0.074 C 
ATOM     10  C   UNL     1      -2.311  -1.814  26.166  0.00  0.00    +0.024 C 
ATOM     11  C   UNL     1      -3.534  -3.282  24.582  0.00  0.00    +0.019 C 
ATOM     12  C   UNL     1      -2.306  -0.808  23.546  0.00  0.00    +0.094 C 
ATOM     13  C   UNL     1      -2.384  -3.210  23.562  0.00  0.00    +0.085 C 
ENDROOT
BRANCH   8  15
ATOM      5  N   UNL     1      -5.305   0.680  25.325  0.00  0.00    -0.237 NA
ATOM      6  N   UNL     1      -4.909   3.046  25.563  0.00  0.00    -0.232 NA
ATOM     15  C   UNL     1      -4.096   0.574  24.737  0.00  0.00    +0.050 A 
ATOM     16  C   UNL     1      -3.248   1.643  24.529  0.00  0.00    +0.052 A 
ATOM     18  C   UNL     1      -3.711   2.866  24.967  0.00  0.00    +0.076 A 
ATOM     19  C   UNL     1      -5.644   1.926  25.708  0.00  0.00    +0.127 A 
ATOM     24  C   UNL     1      -6.975   2.084  26.361  0.00  0.00    +0.088 C 
BRANCH  18  23
ATOM      1 BR   UNL     1      -0.753   2.712  26.171  0.00  0.00    -0.050 Br
ATOM     23  C   UNL     1      -2.921   4.063  24.807  0.00  0.00    +0.014 A 
ATOM     27  C   UNL     1      -1.612   4.154  25.278  0.00  0.00    +0.027 A 
ATOM     28  C   UNL     1      -3.505   5.152  24.159  0.00  0.00    +0.011 A 
ATOM     29  C   UNL     1      -0.886   5.332  25.101  0.00  0.00    +0.016 A 
ATOM     30  C   UNL     1      -2.780   6.330  23.981  0.00  0.00    +0.001 A 
ATOM     31  C   UNL     1      -1.470   6.420  24.451  0.00  0.00    +0.001 A 
ENDBRANCH  18  23
ENDBRANCH   8  15
BRANCH   9  14
ATOM     14  C   UNL     1       0.057  -1.118  25.538  0.00  0.00    +0.123 C 
BRANCH  14   4
ATOM      2  O   UNL     1       0.913   1.119  23.951  0.00  0.00    -0.276 OA
ATOM      4  N   UNL     1       1.019  -1.137  24.478  0.00  0.00    -0.314 N 
ATOM     17  C   UNL     1       1.379  -0.001  23.755  0.00  0.00    +0.216 C 
ATOM     32  H   UNL     1       1.448  -2.029  24.254  0.00  0.00    +0.149 HD
BRANCH  17  20
ATOM     20  C   UNL     1       2.415  -0.291  22.664  0.00  0.00    +0.074 C 
BRANCH  20  21
ATOM     21  C   UNL     1       3.636   0.639  22.760  0.00  0.00    +0.009 C 
ATOM     25  C   UNL     1       4.838  -0.043  23.405  0.00  0.00    +0.004 C 
ENDBRANCH  20  21
BRANCH  20  22
ATOM     22  C   UNL     1       1.752  -0.232  21.273  0.00  0.00    +0.009 C 
ATOM     26  C   UNL     1       0.449  -1.012  21.154  0.00  0.00    +0.004 C 
ENDBRANCH  20  22
ENDBRANCH  17  20
ENDBRANCH  14   4
ENDBRANCH   9  14
TORSDOF 7
ENDMDL
MODEL 5
REMARK VINA RESULT:       1.4      2.442      6.272
REMARK  Name = 40777252
REMARK  10 active torsions:
REMARK  status: ('A' for Active; 'I' for Inactive)
REMARK    1  A    between atoms: N_4  and  C_14
REMARK    2  A    between atoms: C_8  and  C_15
REMARK    3  A    between atoms: C_9  and  C_14
REMARK    4  A    between atoms: C_17  and  C_20
REMARK    5  A    between atoms: C_18  and  C_23
REMARK    6  A    between atoms: C_19  and  C_24
REMARK    7  A    between atoms: C_20  and  C_21
REMARK    8  A    between atoms: C_20  and  C_22
REMARK    9  A    between atoms: C_21  and  C_25
REMARK   10  A    between atoms: C_22  and  C_26
REMARK                            x       y       z     vdW  Elec       q    Type
REMARK                         _______ _______ _______ _____ _____    ______ ____
ROOT
ATOM      3  N   UNL     1      -3.986  -1.691  25.861  0.00  0.00    -0.297 NA
ATOM      7  C   UNL     1      -2.566  -1.658  23.678  0.00  0.00    +0.002 C 
ATOM      8  C   UNL     1      -1.664  -1.405  24.918  0.00  0.00    +0.055 C 
ATOM      9  C   UNL     1      -4.617  -0.795  24.857  0.00  0.00    +0.074 C 
ATOM     10  C   UNL     1      -3.689  -0.601  23.639  0.00  0.00    +0.024 C 
ATOM     11  C   UNL     1      -3.243  -3.030  23.894  0.00  0.00    +0.019 C 
ATOM     12  C   UNL     1      -2.602  -1.238  26.147  0.00  0.00    +0.094 C 
ATOM     13  C   UNL     1      -3.917  -3.051  25.277  0.00  0.00    +0.085 C 
ENDROOT
BRANCH   8  15
ATOM      5  N   UNL     1      -0.891   0.841  25.500  0.00  0.00    -0.237 NA
ATOM      6  N   UNL     1       1.214   1.718  24.716  0.00  0.00    -0.232 NA
ATOM     15  C   UNL     1      -0.620  -0.300  24.833  0.00  0.00    +0.050 A 
ATOM     16  C   UNL     1       0.529  -0.505  24.097  0.00  0.00    +0.052 A 
ATOM     18  C   UNL     1       1.419   0.549  24.074  0.00  0.00    +0.076 A 
ATOM     19  C   UNL     1       0.056   1.795  25.400  0.00  0.00    +0.127 A 
ATOM     24  C   UNL     1      -0.209   3.072  26.121  0.00  0.00    +0.088 C 
BRANCH  18  23
ATOM      1 BR   UNL     1       1.135  -0.425  21.041  0.00  0.00    -0.050 Br
ATOM     23  C   UNL     1       2.658   0.463  23.339  0.00  0.00    +0.014 A 
ATOM     27  C   UNL     1       2.701   0.054  22.007  0.00  0.00    +0.027 A 
ATOM     28  C   UNL     1       3.838   0.803  24.002  0.00  0.00    +0.011 A 
ATOM     29  C   UNL     1       3.923  -0.013  21.336  0.00  0.00    +0.016 A 
ATOM     30  C   UNL     1       5.059   0.736  23.332  0.00  0.00    +0.001 A 
ATOM     31  C   UNL     1       5.101   0.328  21.998  0.00  0.00    +0.001 A 
ENDBRANCH  18  23
ENDBRANCH   8  15
BRANCH   9  14
ATOM     14  C   UNL     1      -5.053   0.543  25.461  0.00  0.00    +0.123 C 
BRANCH  14   4
ATOM      2  O   UNL     1      -5.753   3.325  25.304  0.00  0.00    -0.276 OA
ATOM      4  N   UNL     1      -4.222   1.610  24.992  0.00  0.00    -0.314 N 
ATOM     17  C   UNL     1      -4.642   2.939  24.949  0.00  0.00    +0.216 C 
ATOM     32  H   UNL     1      -3.288   1.370  24.678  0.00  0.00    +0.149 HD
BRANCH  17  20
ATOM     20  C   UNL     1      -3.573   3.884  24.390  0.00  0.00    +0.074 C 
BRANCH  20  21
ATOM     21  C   UNL     1      -2.588   3.162  23.456  0.00  0.00    +0.009 C 
ATOM     25  C   UNL     1      -3.186   2.890  22.079  0.00  0.00    +0.004 C 
ENDBRANCH  20  21
BRANCH  20  22
ATOM     22  C   UNL     1      -2.849   4.608  25.544  0.00  0.00    +0.009 C 
ATOM     26  C   UNL     1      -1.758   5.576  25.105  0.00  0.00    +0.004 C 
ENDBRANCH  20  22
ENDBRANCH  17  20
ENDBRANCH  14   4
ENDBRANCH   9  14
TORSDOF 7
ENDMDL
MODEL 6
REMARK VINA RESULT:       1.6      2.348      5.742
REMARK  Name = 40777252
REMARK  10 active torsions:
REMARK  status: ('A' for Active; 'I' for Inactive)
REMARK    1  A    between atoms: N_4  and  C_14
REMARK    2  A    between atoms: C_8  and  C_15
REMARK    3  A    between atoms: C_9  and  C_14
REMARK    4  A    between atoms: C_17  and  C_20
REMARK    5  A    between atoms: C_18  and  C_23
REMARK    6  A    between atoms: C_19  and  C_24
REMARK    7  A    between atoms: C_20  and  C_21
REMARK    8  A    between atoms: C_20  and  C_22
REMARK    9  A    between atoms: C_21  and  C_25
REMARK   10  A    between atoms: C_22  and  C_26
REMARK                            x       y       z     vdW  Elec       q    Type
REMARK                         _______ _______ _______ _____ _____    ______ ____
ROOT
ATOM      3  N   UNL     1      -3.309  -2.224  25.890  0.00  0.00    -0.297 NA
ATOM      7  C   UNL     1      -2.184  -1.984  23.553  0.00  0.00    +0.002 C 
ATOM      8  C   UNL     1      -1.232  -1.473  24.670  0.00  0.00    +0.055 C 
ATOM      9  C   UNL     1      -4.235  -1.544  24.948  0.00  0.00    +0.074 C 
ATOM     10  C   UNL     1      -3.516  -1.208  23.623  0.00  0.00    +0.024 C 
ATOM     11  C   UNL     1      -2.501  -3.460  23.880  0.00  0.00    +0.019 C 
ATOM     12  C   UNL     1      -2.042  -1.458  25.998  0.00  0.00    +0.094 C 
ATOM     13  C   UNL     1      -2.995  -3.562  25.334  0.00  0.00    +0.085 C 
ENDROOT
BRANCH   8  15
ATOM      5  N   UNL     1       0.742  -0.264  23.882  0.00  0.00    -0.237 NA
ATOM      6  N   UNL     1       0.906   2.138  23.992  0.00  0.00    -0.232 NA
ATOM     15  C   UNL     1      -0.484  -0.168  24.435  0.00  0.00    +0.050 A 
ATOM     16  C   UNL     1      -1.075   1.027  24.789  0.00  0.00    +0.052 A 
ATOM     18  C   UNL     1      -0.326   2.159  24.542  0.00  0.00    +0.076 A 
ATOM     19  C   UNL     1       1.373   0.911  23.691  0.00  0.00    +0.127 A 
ATOM     24  C   UNL     1       2.732   0.846  23.083  0.00  0.00    +0.088 C 
BRANCH  18  23
ATOM      1 BR   UNL     1       0.684   4.515  22.629  0.00  0.00    -0.050 Br
ATOM     23  C   UNL     1      -0.829   3.472  24.869  0.00  0.00    +0.014 A 
ATOM     27  C   UNL     1      -0.481   4.602  24.129  0.00  0.00    +0.027 A 
ATOM     28  C   UNL     1      -1.687   3.591  25.962  0.00  0.00    +0.011 A 
ATOM     29  C   UNL     1      -0.993   5.852  24.482  0.00  0.00    +0.016 A 
ATOM     30  C   UNL     1      -2.199   4.840  26.315  0.00  0.00    +0.001 A 
ATOM     31  C   UNL     1      -1.852   5.970  25.574  0.00  0.00    +0.001 A 
ENDBRANCH  18  23
ENDBRANCH   8  15
BRANCH   9  14
ATOM     14  C   UNL     1      -4.895  -0.310  25.566  0.00  0.00    +0.123 C 
BRANCH  14   4
ATOM      2  O   UNL     1      -6.324   1.993  24.612  0.00  0.00    -0.276 OA
ATOM      4  N   UNL     1      -4.326   0.893  25.039  0.00  0.00    -0.314 N 
ATOM     17  C   UNL     1      -5.095   1.968  24.595  0.00  0.00    +0.216 C 
ATOM     32  H   UNL     1      -3.314   0.947  24.990  0.00  0.00    +0.149 HD
BRANCH  17  20
ATOM     20  C   UNL     1      -4.247   3.128  24.061  0.00  0.00    +0.074 C 
BRANCH  20  21
ATOM     21  C   UNL     1      -4.861   4.498  24.394  0.00  0.00    +0.009 C 
ATOM     25  C   UNL     1      -5.700   4.466  25.667  0.00  0.00    +0.004 C 
ENDBRANCH  20  21
BRANCH  20  22
ATOM     22  C   UNL     1      -4.006   2.956  22.547  0.00  0.00    +0.009 C 
ATOM     26  C   UNL     1      -2.756   2.162  22.187  0.00  0.00    +0.004 C 
ENDBRANCH  20  22
ENDBRANCH  17  20
ENDBRANCH  14   4
ENDBRANCH   9  14
TORSDOF 7
ENDMDL
MODEL 7
REMARK VINA RESULT:       3.0      1.989      2.650
REMARK  Name = 40777252
REMARK  10 active torsions:
REMARK  status: ('A' for Active; 'I' for Inactive)
REMARK    1  A    between atoms: N_4  and  C_14
REMARK    2  A    between atoms: C_8  and  C_15
REMARK    3  A    between atoms: C_9  and  C_14
REMARK    4  A    between atoms: C_17  and  C_20
REMARK    5  A    between atoms: C_18  and  C_23
REMARK    6  A    between atoms: C_19  and  C_24
REMARK    7  A    between atoms: C_20  and  C_21
REMARK    8  A    between atoms: C_20  and  C_22
REMARK    9  A    between atoms: C_21  and  C_25
REMARK   10  A    between atoms: C_22  and  C_26
REMARK                            x       y       z     vdW  Elec       q    Type
REMARK                         _______ _______ _______ _____ _____    ______ ____
ROOT
ATOM      3  N   UNL     1      -1.818  -2.345  23.868  0.00  0.00    -0.297 NA
ATOM      7  C   UNL     1      -4.134  -2.315  25.058  0.00  0.00    +0.002 C 
ATOM      8  C   UNL     1      -3.950  -1.036  24.195  0.00  0.00    +0.055 C 
ATOM      9  C   UNL     1      -1.649  -2.633  25.316  0.00  0.00    +0.074 C 
ATOM     10  C   UNL     1      -2.977  -2.417  26.074  0.00  0.00    +0.024 C 
ATOM     11  C   UNL     1      -4.005  -3.520  24.101  0.00  0.00    +0.019 C 
ATOM     12  C   UNL     1      -2.480  -1.030  23.686  0.00  0.00    +0.094 C 
ATOM     13  C   UNL     1      -2.699  -3.391  23.297  0.00  0.00    +0.085 C 
ENDROOT
BRANCH   8  15
ATOM      5  N   UNL     1      -5.474   0.309  25.554  0.00  0.00    -0.237 NA
ATOM      6  N   UNL     1      -5.143   2.672  25.897  0.00  0.00    -0.232 NA
ATOM     15  C   UNL     1      -4.359   0.301  24.796  0.00  0.00    +0.050 A 
ATOM     16  C   UNL     1      -3.593   1.422  24.545  0.00  0.00    +0.052 A 
ATOM     18  C   UNL     1      -4.038   2.591  25.128  0.00  0.00    +0.076 A 
ATOM     19  C   UNL     1      -5.804   1.510  26.067  0.00  0.00    +0.127 A 
ATOM     24  C   UNL     1      -7.033   1.560  26.910  0.00  0.00    +0.088 C 
BRANCH  18  23
ATOM      1 BR   UNL     1      -4.120   3.771  22.157  0.00  0.00    -0.050 Br
ATOM     23  C   UNL     1      -3.328   3.833  24.942  0.00  0.00    +0.014 A 
ATOM     27  C   UNL     1      -3.271   4.475  23.705  0.00  0.00    +0.027 A 
ATOM     28  C   UNL     1      -2.686   4.392  26.047  0.00  0.00    +0.011 A 
ATOM     29  C   UNL     1      -2.572   5.676  23.573  0.00  0.00    +0.016 A 
ATOM     30  C   UNL     1      -1.988   5.593  25.916  0.00  0.00    +0.001 A 
ATOM     31  C   UNL     1      -1.931   6.234  24.679  0.00  0.00    +0.001 A 
ENDBRANCH  18  23
ENDBRANCH   8  15
BRANCH   9  14
ATOM     14  C   UNL     1      -0.501  -1.835  25.940  0.00  0.00    +0.123 C 
BRANCH  14   4
ATOM      2  O   UNL     1      -0.738   1.028  25.995  0.00  0.00    -0.276 OA
ATOM      4  N   UNL     1       0.051  -0.912  24.996  0.00  0.00    -0.314 N 
ATOM     17  C   UNL     1      -0.111   0.469  25.097  0.00  0.00    +0.216 C 
ATOM     32  H   UNL     1       0.581  -1.297  24.222  0.00  0.00    +0.149 HD
BRANCH  17  20
ATOM     20  C   UNL     1       0.562   1.235  23.954  0.00  0.00    +0.074 C 
BRANCH  20  21
ATOM     21  C   UNL     1      -0.291   2.418  23.464  0.00  0.00    +0.009 C 
ATOM     25  C   UNL     1       0.247   3.761  23.945  0.00  0.00    +0.004 C 
ENDBRANCH  20  21
BRANCH  20  22
ATOM     22  C   UNL     1       0.922   0.269  22.807  0.00  0.00    +0.009 C 
ATOM     26  C   UNL     1       2.416   0.108  22.554  0.00  0.00    +0.004 C 
ENDBRANCH  20  22
ENDBRANCH  17  20
ENDBRANCH  14   4
ENDBRANCH   9  14
TORSDOF 7
ENDMDL
