MODEL 1
REMARK VINA RESULT:       2.7      0.000      0.000
REMARK  Name = 38027513
REMARK  14 active torsions:
REMARK  status: ('A' for Active; 'I' for Inactive)
REMARK    1  A    between atoms: S_1  and  N_7
REMARK    2  A    between atoms: S_1  and  C_23
REMARK    3  A    between atoms: N_7  and  C_17
REMARK    4  A    between atoms: N_8  and  C_24
REMARK    5  A    between atoms: N_9  and  C_30
REMARK    6  A    between atoms: C_10  and  C_14
REMARK    7  A    between atoms: C_11  and  C_17
REMARK    8  A    between atoms: C_13  and  C_18
REMARK    9  A    between atoms: C_14  and  C_19
REMARK   10  A    between atoms: C_14  and  C_20
REMARK   11  A    between atoms: C_15  and  C_21
REMARK   12  A    between atoms: C_18  and  C_22
REMARK   13  A    between atoms: C_24  and  C_27
REMARK   14  A    between atoms: C_36  and  C_37
REMARK                            x       y       z     vdW  Elec       q    Type
REMARK                         _______ _______ _______ _____ _____    ______ ____
ROOT
ATOM     10  C   UNL     1      -2.764  -1.580  24.200  0.00  0.00    +0.000 C 
ATOM     11  C   UNL     1      -3.489  -0.788  25.318  0.00  0.00    +0.030 C 
ATOM     12  C   UNL     1      -1.261  -1.681  24.505  0.00  0.00    +0.012 C 
ATOM     13  C   UNL     1      -0.598  -0.297  24.634  0.00  0.00    +0.023 C 
ATOM     15  C   UNL     1      -1.405   0.636  25.514  0.00  0.00    -0.073 C 
ATOM     16  C   UNL     1      -2.692   0.392  25.820  0.00  0.00    -0.023 C 
ATOM     21  C   UNL     1      -0.686   1.831  26.073  0.00  0.00    +0.039 C 
ENDROOT
BRANCH  10  14
ATOM     14  C   UNL     1      -3.353  -2.982  24.022  0.00  0.00    -0.013 C 
ATOM     19  C   UNL     1      -3.490  -3.677  25.373  0.00  0.00    +0.007 C 
ATOM     20  C   UNL     1      -4.702  -2.906  23.313  0.00  0.00    +0.007 C 
ENDBRANCH  10  14
BRANCH  11  17
ATOM     17  C   UNL     1      -4.870  -0.311  24.850  0.00  0.00    +0.113 C 
BRANCH  17   7
ATOM      7  N   UNL     1      -5.562   0.332  25.977  0.00  0.00    -0.189 NA
ATOM     38  H   UNL     1      -5.951  -0.288  26.698  0.00  0.00    +0.148 HD
BRANCH   7   1
ATOM      1  S   UNL     1      -6.284   1.863  25.779  0.00  0.00    +0.058 S 
ATOM      4  O   UNL     1      -6.910   2.263  27.024  0.00  0.00    -0.153 OA
ATOM      5  O   UNL     1      -7.045   1.873  24.544  0.00  0.00    -0.153 OA
BRANCH   1  23
ATOM     23  C   UNL     1      -4.873   2.896  25.523  0.00  0.00    +0.105 A 
ATOM     25  C   UNL     1      -4.371   3.085  24.234  0.00  0.00    +0.030 A 
ATOM     26  C   UNL     1      -4.260   3.521  26.609  0.00  0.00    +0.030 A 
ATOM     28  C   UNL     1      -3.257   3.900  24.034  0.00  0.00    +0.025 A 
ATOM     29  C   UNL     1      -3.146   4.336  26.407  0.00  0.00    +0.025 A 
ATOM     30  C   UNL     1      -2.644   4.525  25.119  0.00  0.00    +0.033 A 
BRANCH  30   9
ATOM      6  O   UNL     1      -0.026   3.953  23.746  0.00  0.00    -0.276 OA
ATOM      9  N   UNL     1      -1.530   5.340  24.918  0.00  0.00    -0.286 N 
ATOM     36  C   UNL     1      -0.330   5.021  24.269  0.00  0.00    +0.214 C 
ATOM     37  C   UNL     1       0.629   6.184  24.261  0.00  0.00    +0.109 C 
ATOM     40  H   UNL     1      -1.611   6.280  25.300  0.00  0.00    +0.155 HD
ENDBRANCH  30   9
ENDBRANCH   1  23
ENDBRANCH   7   1
ENDBRANCH  17   7
ENDBRANCH  11  17
BRANCH  13  18
ATOM     18  C   UNL     1      -0.350   0.327  23.256  0.00  0.00    +0.103 C 
BRANCH  18  22
ATOM      3  O   UNL     1       1.709   1.476  23.797  0.00  0.00    -0.276 OA
ATOM      8  N   UNL     1       1.630   0.084  21.938  0.00  0.00    -0.311 N 
ATOM     22  C   UNL     1       1.099   0.710  23.057  0.00  0.00    +0.214 C 
ATOM     39  H   UNL     1       1.048  -0.543  21.390  0.00  0.00    +0.149 HD
BRANCH   8  24
ATOM     24  C   UNL     1       2.995   0.267  21.504  0.00  0.00    +0.139 C 
BRANCH  24  27
ATOM      2  F   UNL     1       6.687  -1.100  25.531  0.00  0.00    -0.205 F 
ATOM     27  C   UNL     1       3.979  -0.097  22.578  0.00  0.00    -0.030 A 
ATOM     31  C   UNL     1       3.959  -1.375  23.139  0.00  0.00    +0.008 A 
ATOM     32  C   UNL     1       4.915   0.841  23.015  0.00  0.00    +0.008 A 
ATOM     33  C   UNL     1       4.873  -1.713  24.137  0.00  0.00    +0.038 A 
ATOM     34  C   UNL     1       5.829   0.502  24.013  0.00  0.00    +0.038 A 
ATOM     35  C   UNL     1       5.807  -0.775  24.573  0.00  0.00    +0.123 A 
ENDBRANCH  24  27
ENDBRANCH   8  24
ENDBRANCH  18  22
ENDBRANCH  13  18
TORSDOF 10
ENDMDL
MODEL 2
REMARK VINA RESULT:       2.7      1.832      4.663
REMARK  Name = 38027513
REMARK  14 active torsions:
REMARK  status: ('A' for Active; 'I' for Inactive)
REMARK    1  A    between atoms: S_1  and  N_7
REMARK    2  A    between atoms: S_1  and  C_23
REMARK    3  A    between atoms: N_7  and  C_17
REMARK    4  A    between atoms: N_8  and  C_24
REMARK    5  A    between atoms: N_9  and  C_30
REMARK    6  A    between atoms: C_10  and  C_14
REMARK    7  A    between atoms: C_11  and  C_17
REMARK    8  A    between atoms: C_13  and  C_18
REMARK    9  A    between atoms: C_14  and  C_19
REMARK   10  A    between atoms: C_14  and  C_20
REMARK   11  A    between atoms: C_15  and  C_21
REMARK   12  A    between atoms: C_18  and  C_22
REMARK   13  A    between atoms: C_24  and  C_27
REMARK   14  A    between atoms: C_36  and  C_37
REMARK                            x       y       z     vdW  Elec       q    Type
REMARK                         _______ _______ _______ _____ _____    ______ ____
ROOT
ATOM     10  C   UNL     1      -2.117   3.555  25.018  0.00  0.00    +0.000 C 
ATOM     11  C   UNL     1      -3.405   3.829  24.200  0.00  0.00    +0.030 C 
ATOM     12  C   UNL     1      -0.920   3.345  24.078  0.00  0.00    +0.012 C 
ATOM     13  C   UNL     1      -1.141   2.171  23.106  0.00  0.00    +0.023 C 
ATOM     15  C   UNL     1      -2.508   2.226  22.457  0.00  0.00    -0.073 C 
ATOM     16  C   UNL     1      -3.503   2.984  22.952  0.00  0.00    -0.023 C 
ATOM     21  C   UNL     1      -2.693   1.427  21.198  0.00  0.00    +0.039 C 
ENDROOT
BRANCH  10  14
ATOM     14  C   UNL     1      -1.815   4.691  25.999  0.00  0.00    -0.013 C 
ATOM     19  C   UNL     1      -1.733   6.024  25.261  0.00  0.00    +0.007 C 
ATOM     20  C   UNL     1      -2.874   4.744  27.096  0.00  0.00    +0.007 C 
ENDBRANCH  10  14
BRANCH  11  17
ATOM     17  C   UNL     1      -4.659   3.624  25.057  0.00  0.00    +0.113 C 
BRANCH  17   7
ATOM      7  N   UNL     1      -5.621   2.799  24.310  0.00  0.00    -0.189 NA
ATOM     38  H   UNL     1      -6.148   3.264  23.561  0.00  0.00    +0.148 HD
BRANCH   7   1
ATOM      1  S   UNL     1      -6.328   1.431  25.042  0.00  0.00    +0.058 S 
ATOM      4  O   UNL     1      -7.370   0.911  24.179  0.00  0.00    -0.153 OA
ATOM      5  O   UNL     1      -6.614   1.732  26.431  0.00  0.00    -0.153 OA
BRANCH   1  23
ATOM     23  C   UNL     1      -4.985   0.282  25.029  0.00  0.00    +0.105 A 
ATOM     25  C   UNL     1      -4.749  -0.502  23.899  0.00  0.00    +0.030 A 
ATOM     26  C   UNL     1      -4.162   0.158  26.149  0.00  0.00    +0.030 A 
ATOM     28  C   UNL     1      -3.690  -1.409  23.890  0.00  0.00    +0.025 A 
ATOM     29  C   UNL     1      -3.103  -0.749  26.138  0.00  0.00    +0.025 A 
ATOM     30  C   UNL     1      -2.866  -1.533  25.009  0.00  0.00    +0.033 A 
BRANCH  30   9
ATOM      6  O   UNL     1      -0.124  -1.350  26.239  0.00  0.00    -0.276 OA
ATOM      9  N   UNL     1      -1.807  -2.440  24.999  0.00  0.00    -0.286 N 
ATOM     36  C   UNL     1      -0.544  -2.303  25.590  0.00  0.00    +0.214 C 
ATOM     37  C   UNL     1       0.322  -3.514  25.349  0.00  0.00    +0.109 C 
ATOM     40  H   UNL     1      -1.985  -3.303  24.489  0.00  0.00    +0.155 HD
ENDBRANCH  30   9
ENDBRANCH   1  23
ENDBRANCH   7   1
ENDBRANCH  17   7
ENDBRANCH  11  17
BRANCH  13  18
ATOM     18  C   UNL     1      -0.920   0.826  23.807  0.00  0.00    +0.103 C 
BRANCH  18  22
ATOM      3  O   UNL     1      -0.085  -1.263  22.917  0.00  0.00    -0.276 OA
ATOM      8  N   UNL     1       1.119   0.694  22.566  0.00  0.00    -0.311 N 
ATOM     22  C   UNL     1       0.058  -0.052  23.058  0.00  0.00    +0.214 C 
ATOM     39  H   UNL     1       1.145   1.696  22.727  0.00  0.00    +0.149 HD
BRANCH   8  24
ATOM     24  C   UNL     1       2.207   0.116  21.811  0.00  0.00    +0.139 C 
BRANCH  24  27
ATOM      2  F   UNL     1       6.709  -0.895  25.038  0.00  0.00    -0.205 F 
ATOM     27  C   UNL     1       3.407  -0.153  22.672  0.00  0.00    -0.030 A 
ATOM     31  C   UNL     1       3.551  -1.392  23.300  0.00  0.00    +0.008 A 
ATOM     32  C   UNL     1       4.378   0.833  22.844  0.00  0.00    +0.008 A 
ATOM     33  C   UNL     1       4.666  -1.642  24.099  0.00  0.00    +0.038 A 
ATOM     34  C   UNL     1       5.493   0.583  23.644  0.00  0.00    +0.038 A 
ATOM     35  C   UNL     1       5.637  -0.654  24.271  0.00  0.00    +0.123 A 
ENDBRANCH  24  27
ENDBRANCH   8  24
ENDBRANCH  18  22
ENDBRANCH  13  18
TORSDOF 10
ENDMDL
MODEL 3
REMARK VINA RESULT:       2.9      2.892      7.283
REMARK  Name = 38027513
REMARK  14 active torsions:
REMARK  status: ('A' for Active; 'I' for Inactive)
REMARK    1  A    between atoms: S_1  and  N_7
REMARK    2  A    between atoms: S_1  and  C_23
REMARK    3  A    between atoms: N_7  and  C_17
REMARK    4  A    between atoms: N_8  and  C_24
REMARK    5  A    between atoms: N_9  and  C_30
REMARK    6  A    between atoms: C_10  and  C_14
REMARK    7  A    between atoms: C_11  and  C_17
REMARK    8  A    between atoms: C_13  and  C_18
REMARK    9  A    between atoms: C_14  and  C_19
REMARK   10  A    between atoms: C_14  and  C_20
REMARK   11  A    between atoms: C_15  and  C_21
REMARK   12  A    between atoms: C_18  and  C_22
REMARK   13  A    between atoms: C_24  and  C_27
REMARK   14  A    between atoms: C_36  and  C_37
REMARK                            x       y       z     vdW  Elec       q    Type
REMARK                         _______ _______ _______ _____ _____    ______ ____
ROOT
ATOM     10  C   UNL     1      -3.262  -0.993  24.975  0.00  0.00    +0.000 C 
ATOM     11  C   UNL     1      -2.092  -0.271  24.261  0.00  0.00    +0.030 C 
ATOM     12  C   UNL     1      -4.583  -0.736  24.232  0.00  0.00    +0.012 C 
ATOM     13  C   UNL     1      -4.917   0.765  24.140  0.00  0.00    +0.023 C 
ATOM     15  C   UNL     1      -3.721   1.582  23.696  0.00  0.00    -0.073 C 
ATOM     16  C   UNL     1      -2.467   1.097  23.744  0.00  0.00    -0.023 C 
ATOM     21  C   UNL     1      -4.003   2.954  23.151  0.00  0.00    +0.039 C 
ENDROOT
BRANCH  10  14
ATOM     14  C   UNL     1      -3.016  -2.500  25.090  0.00  0.00    -0.013 C 
ATOM     19  C   UNL     1      -4.051  -3.271  24.277  0.00  0.00    +0.007 C 
ATOM     20  C   UNL     1      -1.602  -2.844  24.632  0.00  0.00    +0.007 C 
ENDBRANCH  10  14
BRANCH  11  17
ATOM     17  C   UNL     1      -0.871  -0.152  25.182  0.00  0.00    +0.113 C 
BRANCH  17   7
ATOM      7  N   UNL     1       0.305  -0.708  24.494  0.00  0.00    -0.189 NA
ATOM     38  H   UNL     1       1.025  -1.143  25.084  0.00  0.00    +0.148 HD
BRANCH   7   1
ATOM      1  S   UNL     1       0.790  -0.082  22.985  0.00  0.00    +0.058 S 
ATOM      4  O   UNL     1       0.294   1.274  22.846  0.00  0.00    -0.153 OA
ATOM      5  O   UNL     1       0.520  -1.066  21.955  0.00  0.00    -0.153 OA
BRANCH   1  23
ATOM     23  C   UNL     1       2.546  -0.003  23.176  0.00  0.00    +0.105 A 
ATOM     25  C   UNL     1       3.238   1.146  22.793  0.00  0.00    +0.030 A 
ATOM     26  C   UNL     1       3.239  -1.091  23.707  0.00  0.00    +0.030 A 
ATOM     28  C   UNL     1       4.623   1.207  22.943  0.00  0.00    +0.025 A 
ATOM     29  C   UNL     1       4.624  -1.029  23.857  0.00  0.00    +0.025 A 
ATOM     30  C   UNL     1       5.316   0.120  23.475  0.00  0.00    +0.033 A 
BRANCH  30   9
ATOM      6  O   UNL     1       7.511  -1.288  21.969  0.00  0.00    -0.276 OA
ATOM      9  N   UNL     1       6.702   0.182  23.626  0.00  0.00    -0.286 N 
ATOM     36  C   UNL     1       7.683  -0.500  22.894  0.00  0.00    +0.214 C 
ATOM     37  C   UNL     1       9.074  -0.157  23.368  0.00  0.00    +0.109 C 
ATOM     40  H   UNL     1       7.026   0.799  24.368  0.00  0.00    +0.155 HD
ENDBRANCH  30   9
ENDBRANCH   1  23
ENDBRANCH   7   1
ENDBRANCH  17   7
ENDBRANCH  11  17
BRANCH  13  18
ATOM     18  C   UNL     1      -5.477   1.288  25.467  0.00  0.00    +0.103 C 
BRANCH  18  22
ATOM      3  O   UNL     1      -5.661   3.701  25.494  0.00  0.00    -0.276 OA
ATOM      8  N   UNL     1      -3.766   2.687  26.378  0.00  0.00    -0.311 N 
ATOM     22  C   UNL     1      -5.010   2.696  25.766  0.00  0.00    +0.214 C 
ATOM     39  H   UNL     1      -3.307   1.802  26.571  0.00  0.00    +0.149 HD
BRANCH   8  24
ATOM     24  C   UNL     1      -3.073   3.891  26.776  0.00  0.00    +0.139 C 
BRANCH  24  27
ATOM      2  F   UNL     1       0.833   5.412  23.016  0.00  0.00    -0.205 F 
ATOM     27  C   UNL     1      -2.032   4.297  25.774  0.00  0.00    -0.030 A 
ATOM     31  C   UNL     1      -0.992   3.422  25.455  0.00  0.00    +0.008 A 
ATOM     32  C   UNL     1      -2.103   5.548  25.161  0.00  0.00    +0.008 A 
ATOM     33  C   UNL     1      -0.025   3.799  24.524  0.00  0.00    +0.038 A 
ATOM     34  C   UNL     1      -1.135   5.925  24.230  0.00  0.00    +0.038 A 
ATOM     35  C   UNL     1      -0.096   5.051  23.912  0.00  0.00    +0.123 A 
ENDBRANCH  24  27
ENDBRANCH   8  24
ENDBRANCH  18  22
ENDBRANCH  13  18
TORSDOF 10
ENDMDL
MODEL 4
REMARK VINA RESULT:       3.0      3.010      5.753
REMARK  Name = 38027513
REMARK  14 active torsions:
REMARK  status: ('A' for Active; 'I' for Inactive)
REMARK    1  A    between atoms: S_1  and  N_7
REMARK    2  A    between atoms: S_1  and  C_23
REMARK    3  A    between atoms: N_7  and  C_17
REMARK    4  A    between atoms: N_8  and  C_24
REMARK    5  A    between atoms: N_9  and  C_30
REMARK    6  A    between atoms: C_10  and  C_14
REMARK    7  A    between atoms: C_11  and  C_17
REMARK    8  A    between atoms: C_13  and  C_18
REMARK    9  A    between atoms: C_14  and  C_19
REMARK   10  A    between atoms: C_14  and  C_20
REMARK   11  A    between atoms: C_15  and  C_21
REMARK   12  A    between atoms: C_18  and  C_22
REMARK   13  A    between atoms: C_24  and  C_27
REMARK   14  A    between atoms: C_36  and  C_37
REMARK                            x       y       z     vdW  Elec       q    Type
REMARK                         _______ _______ _______ _____ _____    ______ ____
ROOT
ATOM     10  C   UNL     1      -5.072   2.522  25.276  0.00  0.00    +0.000 C 
ATOM     11  C   UNL     1      -4.514   1.290  24.521  0.00  0.00    +0.030 C 
ATOM     12  C   UNL     1      -4.831   3.804  24.463  0.00  0.00    +0.012 C 
ATOM     13  C   UNL     1      -3.336   4.040  24.177  0.00  0.00    +0.023 C 
ATOM     15  C   UNL     1      -2.652   2.784  23.678  0.00  0.00    -0.073 C 
ATOM     16  C   UNL     1      -3.200   1.565  23.829  0.00  0.00    -0.023 C 
ATOM     21  C   UNL     1      -1.344   2.964  22.960  0.00  0.00    +0.039 C 
ENDROOT
BRANCH  10  14
ATOM     14  C   UNL     1      -6.565   2.374  25.583  0.00  0.00    -0.013 C 
ATOM     19  C   UNL     1      -7.268   1.631  24.452  0.00  0.00    +0.007 C 
ATOM     20  C   UNL     1      -6.766   1.653  26.911  0.00  0.00    +0.007 C 
ENDBRANCH  10  14
BRANCH  11  17
ATOM     17  C   UNL     1      -4.354   0.089  25.462  0.00  0.00    +0.113 C 
BRANCH  17   7
ATOM      7  N   UNL     1      -4.277  -1.142  24.661  0.00  0.00    -0.189 NA
ATOM     38  H   UNL     1      -5.152  -1.477  24.239  0.00  0.00    +0.148 HD
BRANCH   7   1
ATOM      1  S   UNL     1      -3.058  -2.291  24.971  0.00  0.00    +0.058 S 
ATOM      4  O   UNL     1      -3.245  -3.435  24.100  0.00  0.00    -0.153 OA
ATOM      5  O   UNL     1      -2.936  -2.478  26.404  0.00  0.00    -0.153 OA
BRANCH   1  23
ATOM     23  C   UNL     1      -1.608  -1.431  24.438  0.00  0.00    +0.105 A 
ATOM     25  C   UNL     1      -1.065  -1.693  23.180  0.00  0.00    +0.030 A 
ATOM     26  C   UNL     1      -1.007  -0.492  25.276  0.00  0.00    +0.030 A 
ATOM     28  C   UNL     1       0.079  -1.014  22.761  0.00  0.00    +0.025 A 
ATOM     29  C   UNL     1       0.137   0.187  24.856  0.00  0.00    +0.025 A 
ATOM     30  C   UNL     1       0.680  -0.075  23.598  0.00  0.00    +0.033 A 
BRANCH  30   9
ATOM      6  O   UNL     1       3.529  -1.016  23.345  0.00  0.00    -0.276 OA
ATOM      9  N   UNL     1       1.824   0.604  23.178  0.00  0.00    -0.286 N 
ATOM     36  C   UNL     1       3.133   0.115  23.081  0.00  0.00    +0.214 C 
ATOM     37  C   UNL     1       4.090   1.170  22.581  0.00  0.00    +0.109 C 
ATOM     40  H   UNL     1       1.675   1.577  22.919  0.00  0.00    +0.155 HD
ENDBRANCH  30   9
ENDBRANCH   1  23
ENDBRANCH   7   1
ENDBRANCH  17   7
ENDBRANCH  11  17
BRANCH  13  18
ATOM     18  C   UNL     1      -2.621   4.602  25.410  0.00  0.00    +0.103 C 
BRANCH  18  22
ATOM      3  O   UNL     1      -0.405   5.242  24.679  0.00  0.00    -0.276 OA
ATOM      8  N   UNL     1      -0.671   3.356  26.011  0.00  0.00    -0.311 N 
ATOM     22  C   UNL     1      -1.118   4.465  25.308  0.00  0.00    +0.214 C 
ATOM     39  H   UNL     1      -1.338   2.776  26.510  0.00  0.00    +0.149 HD
BRANCH   8  24
ATOM     24  C   UNL     1       0.721   2.978  26.086  0.00  0.00    +0.139 C 
BRANCH  24  27
ATOM      2  F   UNL     1       2.335   1.920  31.376  0.00  0.00    -0.205 F 
ATOM     27  C   UNL     1       1.152   2.695  27.497  0.00  0.00    -0.030 A 
ATOM     31  C   UNL     1       2.472   2.930  27.883  0.00  0.00    +0.008 A 
ATOM     32  C   UNL     1       0.232   2.199  28.421  0.00  0.00    +0.008 A 
ATOM     33  C   UNL     1       2.872   2.668  29.194  0.00  0.00    +0.038 A 
ATOM     34  C   UNL     1       0.632   1.936  29.731  0.00  0.00    +0.038 A 
ATOM     35  C   UNL     1       1.952   2.171  30.117  0.00  0.00    +0.123 A 
ENDBRANCH  24  27
ENDBRANCH   8  24
ENDBRANCH  18  22
ENDBRANCH  13  18
TORSDOF 10
ENDMDL
MODEL 5
REMARK VINA RESULT:       3.6      1.955      4.498
REMARK  Name = 38027513
REMARK  14 active torsions:
REMARK  status: ('A' for Active; 'I' for Inactive)
REMARK    1  A    between atoms: S_1  and  N_7
REMARK    2  A    between atoms: S_1  and  C_23
REMARK    3  A    between atoms: N_7  and  C_17
REMARK    4  A    between atoms: N_8  and  C_24
REMARK    5  A    between atoms: N_9  and  C_30
REMARK    6  A    between atoms: C_10  and  C_14
REMARK    7  A    between atoms: C_11  and  C_17
REMARK    8  A    between atoms: C_13  and  C_18
REMARK    9  A    between atoms: C_14  and  C_19
REMARK   10  A    between atoms: C_14  and  C_20
REMARK   11  A    between atoms: C_15  and  C_21
REMARK   12  A    between atoms: C_18  and  C_22
REMARK   13  A    between atoms: C_24  and  C_27
REMARK   14  A    between atoms: C_36  and  C_37
REMARK                            x       y       z     vdW  Elec       q    Type
REMARK                         _______ _______ _______ _____ _____    ______ ____
ROOT
ATOM     10  C   UNL     1      -0.990   2.333  26.165  0.00  0.00    +0.000 C 
ATOM     11  C   UNL     1      -1.531   3.753  26.472  0.00  0.00    +0.030 C 
ATOM     12  C   UNL     1       0.303   2.419  25.339  0.00  0.00    +0.012 C 
ATOM     13  C   UNL     1       0.094   3.162  24.007  0.00  0.00    +0.023 C 
ATOM     15  C   UNL     1      -0.675   4.454  24.195  0.00  0.00    -0.073 C 
ATOM     16  C   UNL     1      -1.384   4.705  25.310  0.00  0.00    -0.023 C 
ATOM     21  C   UNL     1      -0.573   5.470  23.093  0.00  0.00    +0.039 C 
ENDROOT
BRANCH  10  14
ATOM     14  C   UNL     1      -0.737   1.532  27.445  0.00  0.00    -0.013 C 
ATOM     19  C   UNL     1      -0.617   0.045  27.127  0.00  0.00    +0.007 C 
ATOM     20  C   UNL     1       0.519   2.037  28.149  0.00  0.00    +0.007 C 
ENDBRANCH  10  14
BRANCH  11  17
ATOM     17  C   UNL     1      -3.000   3.703  26.910  0.00  0.00    +0.113 C 
BRANCH  17   7
ATOM      7  N   UNL     1      -3.724   4.823  26.290  0.00  0.00    -0.189 NA
ATOM     38  H   UNL     1      -3.816   5.681  26.848  0.00  0.00    +0.148 HD
BRANCH   7   1
ATOM      1  S   UNL     1      -4.901   4.526  25.094  0.00  0.00    +0.058 S 
ATOM      4  O   UNL     1      -4.560   5.263  23.893  0.00  0.00    -0.153 OA
ATOM      5  O   UNL     1      -6.220   4.661  25.683  0.00  0.00    -0.153 OA
BRANCH   1  23
ATOM     23  C   UNL     1      -4.656   2.806  24.767  0.00  0.00    +0.105 A 
ATOM     25  C   UNL     1      -5.304   1.848  25.548  0.00  0.00    +0.030 A 
ATOM     26  C   UNL     1      -3.814   2.407  23.729  0.00  0.00    +0.030 A 
ATOM     28  C   UNL     1      -5.110   0.492  25.289  0.00  0.00    +0.025 A 
ATOM     29  C   UNL     1      -3.620   1.050  23.471  0.00  0.00    +0.025 A 
ATOM     30  C   UNL     1      -4.268   0.092  24.251  0.00  0.00    +0.033 A 
BRANCH  30   9
ATOM      6  O   UNL     1      -3.229  -2.107  26.026  0.00  0.00    -0.276 OA
ATOM      9  N   UNL     1      -4.075  -1.265  23.992  0.00  0.00    -0.286 N 
ATOM     36  C   UNL     1      -3.583  -2.249  24.859  0.00  0.00    +0.214 C 
ATOM     37  C   UNL     1      -3.526  -3.603  24.195  0.00  0.00    +0.109 C 
ATOM     40  H   UNL     1      -4.319  -1.561  23.050  0.00  0.00    +0.155 HD
ENDBRANCH  30   9
ENDBRANCH   1  23
ENDBRANCH   7   1
ENDBRANCH  17   7
ENDBRANCH  11  17
BRANCH  13  18
ATOM     18  C   UNL     1      -0.591   2.261  22.974  0.00  0.00    +0.103 C 
BRANCH  18  22
ATOM      3  O   UNL     1      -0.757  -0.075  23.581  0.00  0.00    -0.276 OA
ATOM      8  N   UNL     1       1.141   0.689  22.478  0.00  0.00    -0.311 N 
ATOM     22  C   UNL     1      -0.111   0.830  23.060  0.00  0.00    +0.214 C 
ATOM     39  H   UNL     1       1.594   1.497  22.063  0.00  0.00    +0.149 HD
BRANCH   8  24
ATOM     24  C   UNL     1       1.846  -0.570  22.418  0.00  0.00    +0.139 C 
BRANCH  24  27
ATOM      2  F   UNL     1       7.115  -0.130  24.356  0.00  0.00    -0.205 F 
ATOM     27  C   UNL     1       3.251  -0.452  22.935  0.00  0.00    -0.030 A 
ATOM     31  C   UNL     1       3.848  -1.534  23.584  0.00  0.00    +0.008 A 
ATOM     32  C   UNL     1       3.959   0.737  22.766  0.00  0.00    +0.008 A 
ATOM     33  C   UNL     1       5.153  -1.424  24.065  0.00  0.00    +0.038 A 
ATOM     34  C   UNL     1       5.264   0.847  23.246  0.00  0.00    +0.038 A 
ATOM     35  C   UNL     1       5.860  -0.234  23.896  0.00  0.00    +0.123 A 
ENDBRANCH  24  27
ENDBRANCH   8  24
ENDBRANCH  18  22
ENDBRANCH  13  18
TORSDOF 10
ENDMDL
MODEL 6
REMARK VINA RESULT:       4.0      2.795      7.557
REMARK  Name = 38027513
REMARK  14 active torsions:
REMARK  status: ('A' for Active; 'I' for Inactive)
REMARK    1  A    between atoms: S_1  and  N_7
REMARK    2  A    between atoms: S_1  and  C_23
REMARK    3  A    between atoms: N_7  and  C_17
REMARK    4  A    between atoms: N_8  and  C_24
REMARK    5  A    between atoms: N_9  and  C_30
REMARK    6  A    between atoms: C_10  and  C_14
REMARK    7  A    between atoms: C_11  and  C_17
REMARK    8  A    between atoms: C_13  and  C_18
REMARK    9  A    between atoms: C_14  and  C_19
REMARK   10  A    between atoms: C_14  and  C_20
REMARK   11  A    between atoms: C_15  and  C_21
REMARK   12  A    between atoms: C_18  and  C_22
REMARK   13  A    between atoms: C_24  and  C_27
REMARK   14  A    between atoms: C_36  and  C_37
REMARK                            x       y       z     vdW  Elec       q    Type
REMARK                         _______ _______ _______ _____ _____    ______ ____
ROOT
ATOM     10  C   UNL     1      -2.841   2.456  23.812  0.00  0.00    +0.000 C 
ATOM     11  C   UNL     1      -1.505   2.790  24.523  0.00  0.00    +0.030 C 
ATOM     12  C   UNL     1      -3.806   3.650  23.897  0.00  0.00    +0.012 C 
ATOM     13  C   UNL     1      -4.113   4.048  25.353  0.00  0.00    +0.023 C 
ATOM     15  C   UNL     1      -2.854   4.136  26.191  0.00  0.00    -0.073 C 
ATOM     16  C   UNL     1      -1.694   3.579  25.796  0.00  0.00    -0.023 C 
ATOM     21  C   UNL     1      -2.944   4.918  27.471  0.00  0.00    +0.039 C 
ENDROOT
BRANCH  10  14
ATOM     14  C   UNL     1      -2.625   2.067  22.347  0.00  0.00    -0.013 C 
ATOM     19  C   UNL     1      -2.924   0.586  22.140  0.00  0.00    +0.007 C 
ATOM     20  C   UNL     1      -3.494   2.927  21.434  0.00  0.00    +0.007 C 
ENDBRANCH  10  14
BRANCH  11  17
ATOM     17  C   UNL     1      -0.706   1.517  24.824  0.00  0.00    +0.113 C 
BRANCH  17   7
ATOM      7  N   UNL     1       0.446   1.446  23.912  0.00  0.00    -0.189 NA
ATOM     38  H   UNL     1       0.690   2.306  23.405  0.00  0.00    +0.148 HD
BRANCH   7   1
ATOM      1  S   UNL     1       0.892  -0.041  23.208  0.00  0.00    +0.058 S 
ATOM      4  O   UNL     1       0.524  -0.037  21.805  0.00  0.00    -0.153 OA
ATOM      5  O   UNL     1       0.461  -1.122  24.072  0.00  0.00    -0.153 OA
BRANCH   1  23
ATOM     23  C   UNL     1       2.656   0.028  23.309  0.00  0.00    +0.105 A 
ATOM     25  C   UNL     1       3.334   1.175  22.894  0.00  0.00    +0.030 A 
ATOM     26  C   UNL     1       3.369  -1.064  23.802  0.00  0.00    +0.030 A 
ATOM     28  C   UNL     1       4.725   1.228  22.974  0.00  0.00    +0.025 A 
ATOM     29  C   UNL     1       4.761  -1.010  23.882  0.00  0.00    +0.025 A 
ATOM     30  C   UNL     1       5.439   0.136  23.468  0.00  0.00    +0.033 A 
BRANCH  30   9
ATOM      6  O   UNL     1       7.545  -1.396  21.955  0.00  0.00    -0.276 OA
ATOM      9  N   UNL     1       6.830   0.190  23.547  0.00  0.00    -0.286 N 
ATOM     36  C   UNL     1       7.768  -0.551  22.817  0.00  0.00    +0.214 C 
ATOM     37  C   UNL     1       9.184  -0.196  23.200  0.00  0.00    +0.109 C 
ATOM     40  H   UNL     1       7.196   0.850  24.230  0.00  0.00    +0.155 HD
ENDBRANCH  30   9
ENDBRANCH   1  23
ENDBRANCH   7   1
ENDBRANCH  17   7
ENDBRANCH  11  17
BRANCH  13  18
ATOM     18  C   UNL     1      -5.127   3.089  25.986  0.00  0.00    +0.103 C 
BRANCH  18  22
ATOM      3  O   UNL     1      -6.301   2.019  24.161  0.00  0.00    -0.276 OA
ATOM      8  N   UNL     1      -4.739   0.808  25.385  0.00  0.00    -0.311 N 
ATOM     22  C   UNL     1      -5.474   1.940  25.066  0.00  0.00    +0.214 C 
ATOM     39  H   UNL     1      -4.070   0.843  26.148  0.00  0.00    +0.149 HD
BRANCH   8  24
ATOM     24  C   UNL     1      -4.866  -0.442  24.673  0.00  0.00    +0.139 C 
BRANCH  24  27
ATOM      2  F   UNL     1      -0.334  -3.716  25.339  0.00  0.00    -0.205 F 
ATOM     27  C   UNL     1      -3.658  -1.315  24.850  0.00  0.00    -0.030 A 
ATOM     31  C   UNL     1      -2.655  -0.944  25.747  0.00  0.00    +0.008 A 
ATOM     32  C   UNL     1      -3.537  -2.496  24.119  0.00  0.00    +0.008 A 
ATOM     33  C   UNL     1      -1.532  -1.755  25.912  0.00  0.00    +0.038 A 
ATOM     34  C   UNL     1      -2.414  -3.307  24.283  0.00  0.00    +0.038 A 
ATOM     35  C   UNL     1      -1.412  -2.936  25.180  0.00  0.00    +0.123 A 
ENDBRANCH  24  27
ENDBRANCH   8  24
ENDBRANCH  18  22
ENDBRANCH  13  18
TORSDOF 10
ENDMDL
MODEL 7
REMARK VINA RESULT:       4.6      2.978      6.482
REMARK  Name = 38027513
REMARK  14 active torsions:
REMARK  status: ('A' for Active; 'I' for Inactive)
REMARK    1  A    between atoms: S_1  and  N_7
REMARK    2  A    between atoms: S_1  and  C_23
REMARK    3  A    between atoms: N_7  and  C_17
REMARK    4  A    between atoms: N_8  and  C_24
REMARK    5  A    between atoms: N_9  and  C_30
REMARK    6  A    between atoms: C_10  and  C_14
REMARK    7  A    between atoms: C_11  and  C_17
REMARK    8  A    between atoms: C_13  and  C_18
REMARK    9  A    between atoms: C_14  and  C_19
REMARK   10  A    between atoms: C_14  and  C_20
REMARK   11  A    between atoms: C_15  and  C_21
REMARK   12  A    between atoms: C_18  and  C_22
REMARK   13  A    between atoms: C_24  and  C_27
REMARK   14  A    between atoms: C_36  and  C_37
REMARK                            x       y       z     vdW  Elec       q    Type
REMARK                         _______ _______ _______ _____ _____    ______ ____
ROOT
ATOM     10  C   UNL     1      -4.437   3.037  25.480  0.00  0.00    +0.000 C 
ATOM     11  C   UNL     1      -4.105   3.594  24.073  0.00  0.00    +0.030 C 
ATOM     12  C   UNL     1      -4.202   4.113  26.552  0.00  0.00    +0.012 C 
ATOM     13  C   UNL     1      -2.748   4.622  26.558  0.00  0.00    +0.023 C 
ATOM     15  C   UNL     1      -2.257   4.941  25.161  0.00  0.00    -0.073 C 
ATOM     16  C   UNL     1      -2.884   4.483  24.062  0.00  0.00    -0.023 C 
ATOM     21  C   UNL     1      -1.054   5.835  25.054  0.00  0.00    +0.039 C 
ENDROOT
BRANCH  10  14
ATOM     14  C   UNL     1      -5.878   2.526  25.564  0.00  0.00    -0.013 C 
ATOM     19  C   UNL     1      -6.061   1.303  24.672  0.00  0.00    +0.007 C 
ATOM     20  C   UNL     1      -6.244   2.201  27.009  0.00  0.00    +0.007 C 
ENDBRANCH  10  14
BRANCH  11  17
ATOM     17  C   UNL     1      -3.919   2.460  23.058  0.00  0.00    +0.113 C 
BRANCH  17   7
ATOM      7  N   UNL     1      -2.508   2.046  23.053  0.00  0.00    -0.189 NA
ATOM     38  H   UNL     1      -1.814   2.759  23.308  0.00  0.00    +0.148 HD
BRANCH   7   1
ATOM      1  S   UNL     1      -1.993   0.765  22.054  0.00  0.00    +0.058 S 
ATOM      4  O   UNL     1      -2.147   1.149  20.664  0.00  0.00    -0.153 OA
ATOM      5  O   UNL     1      -2.573  -0.474  22.536  0.00  0.00    -0.153 OA
BRANCH   1  23
ATOM     23  C   UNL     1      -0.264   0.699  22.414  0.00  0.00    +0.105 A 
ATOM     25  C   UNL     1       0.539  -0.265  21.805  0.00  0.00    +0.030 A 
ATOM     26  C   UNL     1       0.297   1.612  23.308  0.00  0.00    +0.030 A 
ATOM     28  C   UNL     1       1.904  -0.316  22.090  0.00  0.00    +0.025 A 
ATOM     29  C   UNL     1       1.662   1.560  23.592  0.00  0.00    +0.025 A 
ATOM     30  C   UNL     1       2.465   0.596  22.983  0.00  0.00    +0.033 A 
BRANCH  30   9
ATOM      6  O   UNL     1       4.193  -1.707  23.864  0.00  0.00    -0.276 OA
ATOM      9  N   UNL     1       3.830   0.545  23.267  0.00  0.00    -0.286 N 
ATOM     36  C   UNL     1       4.587  -0.560  23.677  0.00  0.00    +0.214 C 
ATOM     37  C   UNL     1       6.038  -0.200  23.882  0.00  0.00    +0.109 C 
ATOM     40  H   UNL     1       4.323   1.429  23.166  0.00  0.00    +0.155 HD
ENDBRANCH  30   9
ENDBRANCH   1  23
ENDBRANCH   7   1
ENDBRANCH  17   7
ENDBRANCH  11  17
BRANCH  13  18
ATOM     18  C   UNL     1      -1.817   3.623  27.253  0.00  0.00    +0.103 C 
BRANCH  18  22
ATOM      3  O   UNL     1      -0.429   3.222  25.312  0.00  0.00    -0.276 OA
ATOM      8  N   UNL     1      -1.179   1.421  26.575  0.00  0.00    -0.311 N 
ATOM     22  C   UNL     1      -1.060   2.767  26.262  0.00  0.00    +0.214 C 
ATOM     39  H   UNL     1      -1.716   1.141  27.390  0.00  0.00    +0.149 HD
BRANCH   8  24
ATOM     24  C   UNL     1      -0.560   0.373  25.798  0.00  0.00    +0.139 C 
BRANCH  24  27
ATOM      2  F   UNL     1      -4.197  -3.734  24.526  0.00  0.00    -0.205 F 
ATOM     27  C   UNL     1      -1.529  -0.723  25.459  0.00  0.00    -0.030 A 
ATOM     31  C   UNL     1      -2.888  -0.563  25.739  0.00  0.00    +0.008 A 
ATOM     32  C   UNL     1      -1.074  -1.899  24.864  0.00  0.00    +0.008 A 
ATOM     33  C   UNL     1      -3.788  -1.580  25.424  0.00  0.00    +0.038 A 
ATOM     34  C   UNL     1      -1.974  -2.916  24.550  0.00  0.00    +0.038 A 
ATOM     35  C   UNL     1      -3.331  -2.757  24.830  0.00  0.00    +0.123 A 
ENDBRANCH  24  27
ENDBRANCH   8  24
ENDBRANCH  18  22
ENDBRANCH  13  18
TORSDOF 10
ENDMDL
MODEL 8
REMARK VINA RESULT:       4.9      2.981      7.861
REMARK  Name = 38027513
REMARK  14 active torsions:
REMARK  status: ('A' for Active; 'I' for Inactive)
REMARK    1  A    between atoms: S_1  and  N_7
REMARK    2  A    between atoms: S_1  and  C_23
REMARK    3  A    between atoms: N_7  and  C_17
REMARK    4  A    between atoms: N_8  and  C_24
REMARK    5  A    between atoms: N_9  and  C_30
REMARK    6  A    between atoms: C_10  and  C_14
REMARK    7  A    between atoms: C_11  and  C_17
REMARK    8  A    between atoms: C_13  and  C_18
REMARK    9  A    between atoms: C_14  and  C_19
REMARK   10  A    between atoms: C_14  and  C_20
REMARK   11  A    between atoms: C_15  and  C_21
REMARK   12  A    between atoms: C_18  and  C_22
REMARK   13  A    between atoms: C_24  and  C_27
REMARK   14  A    between atoms: C_36  and  C_37
REMARK                            x       y       z     vdW  Elec       q    Type
REMARK                         _______ _______ _______ _____ _____    ______ ____
ROOT
ATOM     10  C   UNL     1      -1.841  -0.791  25.061  0.00  0.00    +0.000 C 
ATOM     11  C   UNL     1      -1.487  -2.248  24.667  0.00  0.00    +0.030 C 
ATOM     12  C   UNL     1      -3.225  -0.737  25.727  0.00  0.00    +0.012 C 
ATOM     13  C   UNL     1      -4.336  -1.279  24.807  0.00  0.00    +0.023 C 
ATOM     15  C   UNL     1      -3.945  -2.594  24.165  0.00  0.00    -0.073 C 
ATOM     16  C   UNL     1      -2.668  -3.017  24.125  0.00  0.00    -0.023 C 
ATOM     21  C   UNL     1      -5.060  -3.436  23.612  0.00  0.00    +0.039 C 
ENDROOT
BRANCH  10  14
ATOM     14  C   UNL     1      -0.791  -0.184  25.996  0.00  0.00    -0.013 C 
ATOM     19  C   UNL     1      -0.819   1.338  25.910  0.00  0.00    +0.007 C 
ATOM     20  C   UNL     1      -1.023  -0.649  27.430  0.00  0.00    +0.007 C 
ENDBRANCH  10  14
BRANCH  11  17
ATOM     17  C   UNL     1      -0.343  -2.283  23.647  0.00  0.00    +0.113 C 
BRANCH  17   7
ATOM      7  N   UNL     1       0.623  -1.222  23.973  0.00  0.00    -0.189 NA
ATOM     38  H   UNL     1       0.663  -0.915  24.952  0.00  0.00    +0.148 HD
BRANCH   7   1
ATOM      1  S   UNL     1       1.111  -0.111  22.776  0.00  0.00    +0.058 S 
ATOM      4  O   UNL     1       0.543   1.191  23.070  0.00  0.00    -0.153 OA
ATOM      5  O   UNL     1       0.924  -0.709  21.468  0.00  0.00    -0.153 OA
BRANCH   1  23
ATOM     23  C   UNL     1       2.854  -0.021  23.058  0.00  0.00    +0.105 A 
ATOM     25  C   UNL     1       3.524  -1.103  23.631  0.00  0.00    +0.030 A 
ATOM     26  C   UNL     1       3.559   1.131  22.708  0.00  0.00    +0.030 A 
ATOM     28  C   UNL     1       4.899  -1.030  23.853  0.00  0.00    +0.025 A 
ATOM     29  C   UNL     1       4.934   1.202  22.931  0.00  0.00    +0.025 A 
ATOM     30  C   UNL     1       5.604   0.121  23.503  0.00  0.00    +0.033 A 
BRANCH  30   9
ATOM      6  O   UNL     1       7.894  -1.141  22.009  0.00  0.00    -0.276 OA
ATOM      9  N   UNL     1       6.979   0.192  23.726  0.00  0.00    -0.286 N 
ATOM     36  C   UNL     1       8.007  -0.421  22.996  0.00  0.00    +0.214 C 
ATOM     37  C   UNL     1       9.367  -0.094  23.562  0.00  0.00    +0.109 C 
ATOM     40  H   UNL     1       7.256   0.757  24.526  0.00  0.00    +0.155 HD
ENDBRANCH  30   9
ENDBRANCH   1  23
ENDBRANCH   7   1
ENDBRANCH  17   7
ENDBRANCH  11  17
BRANCH  13  18
ATOM     18  C   UNL     1      -4.725  -0.245  23.746  0.00  0.00    +0.103 C 
BRANCH  18  22
ATOM      3  O   UNL     1      -3.440   1.797  23.933  0.00  0.00    -0.276 OA
ATOM      8  N   UNL     1      -5.515   1.652  24.969  0.00  0.00    -0.311 N 
ATOM     22  C   UNL     1      -4.461   1.171  24.206  0.00  0.00    +0.214 C 
ATOM     39  H   UNL     1      -6.325   1.061  25.134  0.00  0.00    +0.149 HD
BRANCH   8  24
ATOM     24  C   UNL     1      -5.534   2.977  25.544  0.00  0.00    +0.139 C 
BRANCH  24  27
ATOM      2  F   UNL     1      -0.555   5.559  25.055  0.00  0.00    -0.205 F 
ATOM     27  C   UNL     1      -4.206   3.665  25.413  0.00  0.00    -0.030 A 
ATOM     31  C   UNL     1      -3.884   4.341  24.236  0.00  0.00    +0.008 A 
ATOM     32  C   UNL     1      -3.295   3.629  26.468  0.00  0.00    +0.008 A 
ATOM     33  C   UNL     1      -2.650   4.980  24.115  0.00  0.00    +0.038 A 
ATOM     34  C   UNL     1      -2.061   4.268  26.348  0.00  0.00    +0.038 A 
ATOM     35  C   UNL     1      -1.739   4.943  25.170  0.00  0.00    +0.123 A 
ENDBRANCH  24  27
ENDBRANCH   8  24
ENDBRANCH  18  22
ENDBRANCH  13  18
TORSDOF 10
ENDMDL
