MODEL 1
REMARK VINA RESULT:      -2.2      0.000      0.000
REMARK  Name = 51137049
REMARK  4 active torsions:
REMARK  status: ('A' for Active; 'I' for Inactive)
REMARK    1  A    between atoms: N_2  and  C_9
REMARK    2  A    between atoms: C_5  and  C_10
REMARK    3  A    between atoms: C_9  and  C_11
REMARK    4  A    between atoms: C_20  and  C_24
REMARK                            x       y       z     vdW  Elec       q    Type
REMARK                         _______ _______ _______ _____ _____    ______ ____
ROOT
ATOM      2  N   UNL     1      -4.119  -0.741  24.809  0.00  0.00    -0.297 NA
ATOM      5  C   UNL     1      -1.990  -1.497  24.182  0.00  0.00    +0.090 C 
ATOM      6  C   UNL     1      -2.277  -1.916  25.634  0.00  0.00    +0.029 C 
ATOM      7  C   UNL     1      -3.040  -0.423  23.872  0.00  0.00    +0.097 C 
ATOM      8  C   UNL     1      -3.445  -1.042  26.072  0.00  0.00    +0.085 C 
ENDROOT
BRANCH   5  10
ATOM      1  O   UNL     1      -0.427   0.293  23.644  0.00  0.00    -0.439 OA
ATOM      3  N   UNL     1       0.532  -1.740  23.932  0.00  0.00    -0.213 NA
ATOM     10  C   UNL     1      -0.576  -1.032  23.924  0.00  0.00    +0.201 A 
ATOM     12  C   UNL     1       1.502  -0.813  23.634  0.00  0.00    +0.110 A 
ATOM     13  C   UNL     1       0.919   0.433  23.458  0.00  0.00    +0.155 A 
ATOM     17  C   UNL     1       2.892  -0.937  23.495  0.00  0.00    +0.035 A 
ATOM     18  C   UNL     1       1.614   1.595  23.147  0.00  0.00    +0.049 A 
ATOM     20  C   UNL     1       3.627   0.215  23.181  0.00  0.00    -0.048 A 
ATOM     21  C   UNL     1       2.998   1.455  23.011  0.00  0.00    +0.007 A 
ATOM     24  C   UNL     1       5.109   0.116  23.025  0.00  0.00    +0.044 C 
ENDBRANCH   5  10
BRANCH   2   9
ATOM      9  C   UNL     1      -5.081   0.343  24.939  0.00  0.00    +0.121 C 
BRANCH   9  11
ATOM      4  N   UNL     1      -4.607   4.029  25.545  0.00  0.00    -0.255 NA
ATOM     11  C   UNL     1      -4.428   1.674  25.050  0.00  0.00    -0.015 A 
ATOM     14  C   UNL     1      -3.077   1.836  24.777  0.00  0.00    +0.016 A 
ATOM     15  C   UNL     1      -5.142   2.793  25.426  0.00  0.00    +0.116 A 
ATOM     16  C   UNL     1      -2.482   3.101  24.889  0.00  0.00    +0.001 A 
ATOM     19  C   UNL     1      -3.296   4.185  25.280  0.00  0.00    +0.071 A 
ATOM     22  C   UNL     1      -1.118   3.299  24.620  0.00  0.00    +0.010 A 
ATOM     23  C   UNL     1      -2.705   5.441  25.390  0.00  0.00    +0.028 A 
ATOM     25  C   UNL     1      -0.553   4.565  24.737  0.00  0.00    +0.001 A 
ATOM     26  C   UNL     1      -1.348   5.637  25.123  0.00  0.00    +0.002 A 
ENDBRANCH   9  11
ENDBRANCH   2   9
TORSDOF 3
ENDMDL
MODEL 2
REMARK VINA RESULT:      -0.7      1.549      4.435
REMARK  Name = 51137049
REMARK  4 active torsions:
REMARK  status: ('A' for Active; 'I' for Inactive)
REMARK    1  A    between atoms: N_2  and  C_9
REMARK    2  A    between atoms: C_5  and  C_10
REMARK    3  A    between atoms: C_9  and  C_11
REMARK    4  A    between atoms: C_20  and  C_24
REMARK                            x       y       z     vdW  Elec       q    Type
REMARK                         _______ _______ _______ _____ _____    ______ ____
ROOT
ATOM      2  N   UNL     1      -3.530   3.751  25.754  0.00  0.00    -0.297 NA
ATOM      5  C   UNL     1      -1.225   3.626  25.341  0.00  0.00    +0.090 C 
ATOM      6  C   UNL     1      -1.844   4.730  24.467  0.00  0.00    +0.029 C 
ATOM      7  C   UNL     1      -2.421   2.798  25.827  0.00  0.00    +0.097 C 
ATOM      8  C   UNL     1      -3.342   4.451  24.482  0.00  0.00    +0.085 C 
ENDROOT
BRANCH   5  10
ATOM      1  O   UNL     1      -0.574   1.569  24.208  0.00  0.00    -0.439 OA
ATOM      3  N   UNL     1       1.092   3.089  24.433  0.00  0.00    -0.213 NA
ATOM     10  C   UNL     1      -0.169   2.791  24.655  0.00  0.00    +0.201 A 
ATOM     12  C   UNL     1       1.571   1.976  23.784  0.00  0.00    +0.110 A 
ATOM     13  C   UNL     1       0.553   1.044  23.644  0.00  0.00    +0.155 A 
ATOM     17  C   UNL     1       2.843   1.672  23.280  0.00  0.00    +0.035 A 
ATOM     18  C   UNL     1       0.694  -0.196  23.033  0.00  0.00    +0.049 A 
ATOM     20  C   UNL     1       3.024   0.429  22.656  0.00  0.00    -0.048 A 
ATOM     21  C   UNL     1       1.970  -0.485  22.537  0.00  0.00    +0.007 A 
ATOM     24  C   UNL     1       4.369   0.074  22.110  0.00  0.00    +0.044 C 
ENDBRANCH   5  10
BRANCH   2   9
ATOM      9  C   UNL     1      -4.829   3.101  25.841  0.00  0.00    +0.121 C 
BRANCH   9  11
ATOM      4  N   UNL     1      -5.942  -0.125  24.251  0.00  0.00    -0.255 NA
ATOM     11  C   UNL     1      -4.802   1.703  25.339  0.00  0.00    -0.015 A 
ATOM     14  C   UNL     1      -3.666   0.916  25.466  0.00  0.00    +0.016 A 
ATOM     15  C   UNL     1      -5.904   1.139  24.729  0.00  0.00    +0.116 A 
ATOM     16  C   UNL     1      -3.663  -0.401  24.983  0.00  0.00    +0.001 A 
ATOM     19  C   UNL     1      -4.839  -0.887  24.376  0.00  0.00    +0.071 A 
ATOM     22  C   UNL     1      -2.531  -1.224  25.097  0.00  0.00    +0.010 A 
ATOM     23  C   UNL     1      -4.837  -2.195  23.898  0.00  0.00    +0.028 A 
ATOM     25  C   UNL     1      -2.555  -2.527  24.610  0.00  0.00    +0.001 A 
ATOM     26  C   UNL     1      -3.710  -3.013  24.010  0.00  0.00    +0.002 A 
ENDBRANCH   9  11
ENDBRANCH   2   9
TORSDOF 3
ENDMDL
