MODEL 1
REMARK VINA RESULT:       7.6      0.000      0.000
REMARK  Name = 71693339
REMARK  11 active torsions:
REMARK  status: ('A' for Active; 'I' for Inactive)
REMARK    1  A    between atoms: O_2  and  C_13
REMARK    2  A    between atoms: N_5  and  C_11
REMARK    3  A    between atoms: N_6  and  C_23
REMARK    4  A    between atoms: N_7  and  C_28
REMARK    5  A    between atoms: C_9  and  C_13
REMARK    6  A    between atoms: C_10  and  C_15
REMARK    7  A    between atoms: C_11  and  C_12
REMARK    8  A    between atoms: C_12  and  C_17
REMARK    9  A    between atoms: C_12  and  C_18
REMARK   10  A    between atoms: C_24  and  C_25
REMARK   11  A    between atoms: C_27  and  C_29
REMARK                            x       y       z     vdW  Elec       q    Type
REMARK                         _______ _______ _______ _____ _____    ______ ____
ROOT
ATOM     15  C   UNL     1      -1.395   0.358  23.852  0.00  0.00    -0.017 A 
ATOM     19  C   UNL     1      -0.903  -0.934  23.662  0.00  0.00    +0.008 A 
ATOM     20  C   UNL     1      -0.511   1.429  23.978  0.00  0.00    +0.008 A 
ATOM     21  C   UNL     1       0.472  -1.154  23.597  0.00  0.00    +0.023 A 
ATOM     22  C   UNL     1       0.865   1.210  23.912  0.00  0.00    +0.023 A 
ATOM     23  C   UNL     1       1.357  -0.083  23.721  0.00  0.00    +0.034 A 
ENDROOT
BRANCH  15  10
ATOM      1  O   UNL     1      -3.381  -0.157  25.030  0.00  0.00    -0.361 OA
ATOM      3  O   UNL     1      -6.638   1.243  25.384  0.00  0.00    -0.273 OA
ATOM      5  N   UNL     1      -4.729   2.199  24.450  0.00  0.00    -0.291 N 
ATOM      9  C   UNL     1      -3.284   2.071  24.140  0.00  0.00    +0.135 C 
ATOM     10  C   UNL     1      -2.889   0.597  23.923  0.00  0.00    +0.171 C 
ATOM     14  C   UNL     1      -5.473   1.150  24.993  0.00  0.00    +0.242 C 
ATOM     16  C   UNL     1      -4.788  -0.202  25.019  0.00  0.00    +0.256 C 
BRANCH   5  11
ATOM     11  C   UNL     1      -5.325   3.532  24.411  0.00  0.00    +0.111 C 
BRANCH  11  12
ATOM     12  C   UNL     1      -5.333   4.207  25.787  0.00  0.00    +0.000 C 
ATOM     17  C   UNL     1      -3.919   4.572  26.244  0.00  0.00    +0.009 C 
ATOM     18  C   UNL     1      -6.208   5.461  25.752  0.00  0.00    +0.009 C 
ENDBRANCH  11  12
ENDBRANCH   5  11
BRANCH   9  13
ATOM     13  C   UNL     1      -2.864   2.926  22.936  0.00  0.00    +0.181 C 
BRANCH  13   2
ATOM      2  O   UNL     1      -2.892   2.109  21.784  0.00  0.00    -0.393 OA
ATOM     30  H   UNL     1      -2.398   1.297  21.993  0.00  0.00    +0.209 HD
ENDBRANCH  13   2
ENDBRANCH   9  13
ENDBRANCH  15  10
BRANCH  23   6
ATOM      4  O   UNL     1       3.567   1.723  22.804  0.00  0.00    -0.268 OA
ATOM      6  N   UNL     1       2.732  -0.303  23.656  0.00  0.00    -0.280 N 
ATOM     24  C   UNL     1       3.728   0.580  23.216  0.00  0.00    +0.266 C 
ATOM     31  H   UNL     1       3.033  -1.225  23.964  0.00  0.00    +0.155 HD
BRANCH  24  25
ATOM      7  N   UNL     1       5.471  -1.207  23.651  0.00  0.00    -0.262 N 
ATOM      8  N   UNL     1       6.797  -1.426  23.642  0.00  0.00    -0.176 NA
ATOM     25  C   UNL     1       5.118   0.061  23.293  0.00  0.00    +0.124 A 
ATOM     26  C   UNL     1       6.297   0.717  23.030  0.00  0.00    +0.057 A 
ATOM     27  C   UNL     1       7.296  -0.247  23.262  0.00  0.00    +0.061 A 
ATOM     28  C   UNL     1       4.581  -2.282  24.023  0.00  0.00    +0.173 C 
ATOM     29  C   UNL     1       8.753  -0.078  23.129  0.00  0.00    +0.067 C 
ENDBRANCH  24  25
ENDBRANCH  23   6
TORSDOF 7
ENDMDL
