MODEL 1
REMARK VINA RESULT:      -4.8      0.000      0.000
REMARK  Name = 75536903
REMARK  5 active torsions:
REMARK  status: ('A' for Active; 'I' for Inactive)
REMARK    1  A    between atoms: O_2  and  C_8
REMARK    2  A    between atoms: O_2  and  C_15
REMARK    3  A    between atoms: O_4  and  C_18
REMARK    4  A    between atoms: O_4  and  C_24
REMARK    5  A    between atoms: C_13  and  C_14
REMARK                            x       y       z     vdW  Elec       q    Type
REMARK                         _______ _______ _______ _____ _____    ______ ____
ROOT
ATOM      1  O   UNL     1       1.112  -0.631  23.092  0.00  0.00    -0.375 OA
ATOM      3  O   UNL     1      -0.101   4.002  23.692  0.00  0.00    -0.270 OA
ATOM      5  N   UNL     1      -0.041   1.850  24.619  0.00  0.00    -0.292 N 
ATOM      8  C   UNL     1      -0.240  -0.645  25.123  0.00  0.00    +0.218 C 
ATOM      9  C   UNL     1      -0.728   0.788  25.363  0.00  0.00    +0.155 C 
ATOM     10  C   UNL     1       1.306   1.585  24.111  0.00  0.00    +0.136 C 
ATOM     11  C   UNL     1      -0.147  -1.007  23.642  0.00  0.00    +0.206 C 
ATOM     12  C   UNL     1       1.257   0.760  22.832  0.00  0.00    +0.179 C 
ATOM     13  C   UNL     1      -0.627   3.096  24.338  0.00  0.00    +0.247 C 
ENDROOT
BRANCH  13  14
ATOM     14  C   UNL     1      -1.980   3.362  24.849  0.00  0.00    +0.040 A 
ATOM     16  C   UNL     1      -3.077   2.701  24.297  0.00  0.00    +0.058 A 
ATOM     17  C   UNL     1      -2.167   4.277  25.886  0.00  0.00    +0.013 A 
ATOM     18  C   UNL     1      -4.360   2.954  24.782  0.00  0.00    +0.121 A 
ATOM     19  C   UNL     1      -3.450   4.529  26.370  0.00  0.00    +0.004 A 
ATOM     20  C   UNL     1      -4.547   3.868  25.819  0.00  0.00    +0.045 A 
BRANCH  18   4
ATOM      4  O   UNL     1      -5.430   2.307  24.244  0.00  0.00    -0.495 OA
ATOM     24  C   UNL     1      -6.426   1.834  25.150  0.00  0.00    +0.277 C 
ENDBRANCH  18   4
ENDBRANCH  13  14
BRANCH   8   2
ATOM      2  O   UNL     1      -1.182  -1.512  25.755  0.00  0.00    -0.468 OA
BRANCH   2  15
ATOM      6  N   UNL     1      -3.196  -0.693  24.931  0.00  0.00    -0.219 NA
ATOM      7  N   UNL     1      -3.790  -3.244  23.930  0.00  0.00    -0.256 NA
ATOM     15  C   UNL     1      -2.354  -1.734  25.086  0.00  0.00    +0.234 A 
ATOM     21  C   UNL     1      -2.646  -2.987  24.594  0.00  0.00    +0.177 A 
ATOM     22  C   UNL     1      -4.340  -0.950  24.267  0.00  0.00    +0.134 A 
ATOM     23  C   UNL     1      -4.632  -2.204  23.775  0.00  0.00    +0.130 A 
ENDBRANCH   2  15
ENDBRANCH   8   2
TORSDOF 4
ENDMDL
MODEL 2
REMARK VINA RESULT:      -4.5      1.534      5.110
REMARK  Name = 75536903
REMARK  5 active torsions:
REMARK  status: ('A' for Active; 'I' for Inactive)
REMARK    1  A    between atoms: O_2  and  C_8
REMARK    2  A    between atoms: O_2  and  C_15
REMARK    3  A    between atoms: O_4  and  C_18
REMARK    4  A    between atoms: O_4  and  C_24
REMARK    5  A    between atoms: C_13  and  C_14
REMARK                            x       y       z     vdW  Elec       q    Type
REMARK                         _______ _______ _______ _____ _____    ______ ____
ROOT
ATOM      1  O   UNL     1      -4.853   3.706  26.207  0.00  0.00    -0.375 OA
ATOM      3  O   UNL     1      -0.146   3.699  25.132  0.00  0.00    -0.270 OA
ATOM      5  N   UNL     1      -2.299   2.983  24.541  0.00  0.00    -0.292 N 
ATOM      8  C   UNL     1      -4.660   2.016  24.457  0.00  0.00    +0.218 C 
ATOM      9  C   UNL     1      -3.177   1.897  24.090  0.00  0.00    +0.155 C 
ATOM     10  C   UNL     1      -2.899   4.281  24.849  0.00  0.00    +0.136 C 
ATOM     11  C   UNL     1      -4.891   2.307  25.938  0.00  0.00    +0.206 C 
ATOM     12  C   UNL     1      -3.548   4.272  26.227  0.00  0.00    +0.179 C 
ATOM     13  C   UNL     1      -0.915   2.827  24.727  0.00  0.00    +0.247 C 
ENDROOT
BRANCH  13  14
ATOM     14  C   UNL     1      -0.312   1.522  24.416  0.00  0.00    +0.040 A 
ATOM     16  C   UNL     1       0.739   1.437  23.503  0.00  0.00    +0.058 A 
ATOM     17  C   UNL     1      -0.791   0.366  25.036  0.00  0.00    +0.013 A 
ATOM     18  C   UNL     1       1.310   0.200  23.208  0.00  0.00    +0.121 A 
ATOM     19  C   UNL     1      -0.220  -0.871  24.740  0.00  0.00    +0.004 A 
ATOM     20  C   UNL     1       0.831  -0.954  23.827  0.00  0.00    +0.045 A 
BRANCH  18   4
ATOM      4  O   UNL     1       2.336   0.118  22.318  0.00  0.00    -0.495 OA
ATOM     24  C   UNL     1       3.563   0.750  22.681  0.00  0.00    +0.277 C 
ENDBRANCH  18   4
ENDBRANCH  13  14
BRANCH   8   2
ATOM      2  O   UNL     1      -5.267   0.766  24.128  0.00  0.00    -0.468 OA
BRANCH   2  15
ATOM      6  N   UNL     1      -4.132  -0.419  25.774  0.00  0.00    -0.219 NA
ATOM      7  N   UNL     1      -3.740  -2.516  23.953  0.00  0.00    -0.256 NA
ATOM     15  C   UNL     1      -4.592  -0.360  24.509  0.00  0.00    +0.234 A 
ATOM     21  C   UNL     1      -4.400  -1.391  23.615  0.00  0.00    +0.177 A 
ATOM     22  C   UNL     1      -3.472  -1.544  26.113  0.00  0.00    +0.134 A 
ATOM     23  C   UNL     1      -3.279  -2.574  25.218  0.00  0.00    +0.130 A 
ENDBRANCH   2  15
ENDBRANCH   8   2
TORSDOF 4
ENDMDL
MODEL 3
REMARK VINA RESULT:      -4.3      1.805      4.764
REMARK  Name = 75536903
REMARK  5 active torsions:
REMARK  status: ('A' for Active; 'I' for Inactive)
REMARK    1  A    between atoms: O_2  and  C_8
REMARK    2  A    between atoms: O_2  and  C_15
REMARK    3  A    between atoms: O_4  and  C_18
REMARK    4  A    between atoms: O_4  and  C_24
REMARK    5  A    between atoms: C_13  and  C_14
REMARK                            x       y       z     vdW  Elec       q    Type
REMARK                         _______ _______ _______ _____ _____    ______ ____
ROOT
ATOM      1  O   UNL     1      -1.307  -2.480  24.986  0.00  0.00    -0.375 OA
ATOM      3  O   UNL     1      -5.514  -0.127  24.723  0.00  0.00    -0.270 OA
ATOM      5  N   UNL     1      -3.236  -0.147  24.173  0.00  0.00    -0.292 N 
ATOM      8  C   UNL     1      -0.686  -0.273  24.151  0.00  0.00    +0.218 C 
ATOM      9  C   UNL     1      -1.961   0.575  24.092  0.00  0.00    +0.155 C 
ATOM     10  C   UNL     1      -3.255  -1.567  23.818  0.00  0.00    +0.136 C 
ATOM     11  C   UNL     1      -0.669  -1.252  25.323  0.00  0.00    +0.206 C 
ATOM     12  C   UNL     1      -2.728  -2.425  24.961  0.00  0.00    +0.179 C 
ATOM     13  C   UNL     1      -4.432   0.447  24.610  0.00  0.00    +0.247 C 
ENDROOT
BRANCH  13  14
ATOM     14  C   UNL     1      -4.412   1.874  24.966  0.00  0.00    +0.040 A 
ATOM     16  C   UNL     1      -3.201   2.564  25.018  0.00  0.00    +0.058 A 
ATOM     17  C   UNL     1      -5.606   2.538  25.253  0.00  0.00    +0.013 A 
ATOM     18  C   UNL     1      -3.183   3.917  25.356  0.00  0.00    +0.121 A 
ATOM     19  C   UNL     1      -5.587   3.891  25.591  0.00  0.00    +0.004 A 
ATOM     20  C   UNL     1      -4.376   4.580  25.642  0.00  0.00    +0.045 A 
BRANCH  18   4
ATOM      4  O   UNL     1      -2.001   4.590  25.405  0.00  0.00    -0.495 OA
ATOM     24  C   UNL     1      -0.814   3.837  25.163  0.00  0.00    +0.277 C 
ENDBRANCH  18   4
ENDBRANCH  13  14
BRANCH   8   2
ATOM      2  O   UNL     1       0.407   0.637  24.289  0.00  0.00    -0.468 OA
BRANCH   2  15
ATOM      6  N   UNL     1       2.580   1.152  23.644  0.00  0.00    -0.219 NA
ATOM      7  N   UNL     1       2.224  -0.385  21.325  0.00  0.00    -0.256 NA
ATOM     15  C   UNL     1       1.422   0.514  23.381  0.00  0.00    +0.234 A 
ATOM     21  C   UNL     1       1.248  -0.241  22.242  0.00  0.00    +0.177 A 
ATOM     22  C   UNL     1       3.557   1.008  22.727  0.00  0.00    +0.134 A 
ATOM     23  C   UNL     1       3.382   0.254  21.587  0.00  0.00    +0.130 A 
ENDBRANCH   2  15
ENDBRANCH   8   2
TORSDOF 4
ENDMDL
MODEL 4
REMARK VINA RESULT:      -3.8      1.817      5.114
REMARK  Name = 75536903
REMARK  5 active torsions:
REMARK  status: ('A' for Active; 'I' for Inactive)
REMARK    1  A    between atoms: O_2  and  C_8
REMARK    2  A    between atoms: O_2  and  C_15
REMARK    3  A    between atoms: O_4  and  C_18
REMARK    4  A    between atoms: O_4  and  C_24
REMARK    5  A    between atoms: C_13  and  C_14
REMARK                            x       y       z     vdW  Elec       q    Type
REMARK                         _______ _______ _______ _____ _____    ______ ____
ROOT
ATOM      1  O   UNL     1      -4.472  -3.043  24.067  0.00  0.00    -0.375 OA
ATOM      3  O   UNL     1      -0.087  -1.791  25.650  0.00  0.00    -0.270 OA
ATOM      5  N   UNL     1      -2.334  -1.174  25.391  0.00  0.00    -0.292 N 
ATOM      8  C   UNL     1      -4.687  -0.660  24.547  0.00  0.00    +0.218 C 
ATOM      9  C   UNL     1      -3.315  -0.154  25.002  0.00  0.00    +0.155 C 
ATOM     10  C   UNL     1      -2.823  -2.494  25.790  0.00  0.00    +0.136 C 
ATOM     11  C   UNL     1      -4.603  -1.751  23.482  0.00  0.00    +0.206 C 
ATOM     12  C   UNL     1      -3.176  -3.339  24.572  0.00  0.00    +0.179 C 
ATOM     13  C   UNL     1      -0.945  -0.957  25.363  0.00  0.00    +0.247 C 
ENDROOT
BRANCH  13  14
ATOM     14  C   UNL     1      -0.454   0.370  24.962  0.00  0.00    +0.040 A 
ATOM     16  C   UNL     1      -0.953   1.516  25.583  0.00  0.00    +0.058 A 
ATOM     17  C   UNL     1       0.511   0.484  23.961  0.00  0.00    +0.013 A 
ATOM     18  C   UNL     1      -0.488   2.774  25.202  0.00  0.00    +0.121 A 
ATOM     19  C   UNL     1       0.976   1.743  23.581  0.00  0.00    +0.004 A 
ATOM     20  C   UNL     1       0.477   2.888  24.202  0.00  0.00    +0.045 A 
BRANCH  18   4
ATOM      4  O   UNL     1      -0.974   3.891  25.808  0.00  0.00    -0.495 OA
ATOM     24  C   UNL     1      -0.999   5.091  25.037  0.00  0.00    +0.277 C 
ENDBRANCH  18   4
ENDBRANCH  13  14
BRANCH   8   2
ATOM      2  O   UNL     1      -5.383   0.464  24.007  0.00  0.00    -0.468 OA
BRANCH   2  15
ATOM      6  N   UNL     1      -4.273   2.505  23.917  0.00  0.00    -0.219 NA
ATOM      7  N   UNL     1      -5.447   3.218  26.362  0.00  0.00    -0.256 NA
ATOM     15  C   UNL     1      -5.112   1.679  24.573  0.00  0.00    +0.234 A 
ATOM     21  C   UNL     1      -5.689   2.031  25.774  0.00  0.00    +0.177 A 
ATOM     22  C   UNL     1      -4.030   3.693  24.505  0.00  0.00    +0.134 A 
ATOM     23  C   UNL     1      -4.607   4.043  25.706  0.00  0.00    +0.130 A 
ENDBRANCH   2  15
ENDBRANCH   8   2
TORSDOF 4
ENDMDL
MODEL 5
REMARK VINA RESULT:      -3.2      1.877      5.385
REMARK  Name = 75536903
REMARK  5 active torsions:
REMARK  status: ('A' for Active; 'I' for Inactive)
REMARK    1  A    between atoms: O_2  and  C_8
REMARK    2  A    between atoms: O_2  and  C_15
REMARK    3  A    between atoms: O_4  and  C_18
REMARK    4  A    between atoms: O_4  and  C_24
REMARK    5  A    between atoms: C_13  and  C_14
REMARK                            x       y       z     vdW  Elec       q    Type
REMARK                         _______ _______ _______ _____ _____    ______ ____
ROOT
ATOM      1  O   UNL     1      -1.536   4.687  24.520  0.00  0.00    -0.375 OA
ATOM      3  O   UNL     1      -5.236   1.605  24.860  0.00  0.00    -0.270 OA
ATOM      5  N   UNL     1      -3.009   2.072  25.423  0.00  0.00    -0.292 N 
ATOM      8  C   UNL     1      -0.527   2.671  25.454  0.00  0.00    +0.218 C 
ATOM      9  C   UNL     1      -1.623   1.604  25.542  0.00  0.00    +0.155 C 
ATOM     10  C   UNL     1      -3.296   3.477  25.715  0.00  0.00    +0.136 C 
ATOM     11  C   UNL     1      -0.676   3.586  24.240  0.00  0.00    +0.206 C 
ATOM     12  C   UNL     1      -2.923   4.370  24.539  0.00  0.00    +0.179 C 
ATOM     13  C   UNL     1      -4.067   1.248  25.004  0.00  0.00    +0.247 C 
ENDROOT
BRANCH  13  14
ATOM     14  C   UNL     1      -3.778  -0.164  24.711  0.00  0.00    +0.040 A 
ATOM     16  C   UNL     1      -2.611  -0.753  25.198  0.00  0.00    +0.058 A 
ATOM     17  C   UNL     1      -4.670  -0.915  23.944  0.00  0.00    +0.013 A 
ATOM     18  C   UNL     1      -2.337  -2.092  24.919  0.00  0.00    +0.121 A 
ATOM     19  C   UNL     1      -4.395  -2.253  23.666  0.00  0.00    +0.004 A 
ATOM     20  C   UNL     1      -3.229  -2.842  24.154  0.00  0.00    +0.045 A 
BRANCH  18   4
ATOM      4  O   UNL     1      -1.199  -2.667  25.396  0.00  0.00    -0.495 OA
ATOM     24  C   UNL     1      -0.120  -1.795  25.729  0.00  0.00    +0.277 C 
ENDBRANCH  18   4
ENDBRANCH  13  14
BRANCH   8   2
ATOM      2  O   UNL     1       0.717   1.977  25.362  0.00  0.00    -0.468 OA
BRANCH   2  15
ATOM      6  N   UNL     1       2.175   1.232  23.712  0.00  0.00    -0.219 NA
ATOM      7  N   UNL     1       0.060  -0.170  22.517  0.00  0.00    -0.256 NA
ATOM     15  C   UNL     1       0.929   1.248  24.225  0.00  0.00    +0.234 A 
ATOM     21  C   UNL     1      -0.110   0.559  23.638  0.00  0.00    +0.177 A 
ATOM     22  C   UNL     1       2.345   0.503  22.591  0.00  0.00    +0.134 A 
ATOM     23  C   UNL     1       1.306  -0.185  22.004  0.00  0.00    +0.130 A 
ENDBRANCH   2  15
ENDBRANCH   8   2
TORSDOF 4
ENDMDL
MODEL 6
REMARK VINA RESULT:      -3.1     15.463     18.043
REMARK  Name = 75536903
REMARK  5 active torsions:
REMARK  status: ('A' for Active; 'I' for Inactive)
REMARK    1  A    between atoms: O_2  and  C_8
REMARK    2  A    between atoms: O_2  and  C_15
REMARK    3  A    between atoms: O_4  and  C_18
REMARK    4  A    between atoms: O_4  and  C_24
REMARK    5  A    between atoms: C_13  and  C_14
REMARK                            x       y       z     vdW  Elec       q    Type
REMARK                         _______ _______ _______ _____ _____    ______ ____
ROOT
ATOM      1  O   UNL     1      -9.722  -7.795   9.461  0.00  0.00    -0.375 OA
ATOM      3  O   UNL     1      -4.936  -8.131   8.927  0.00  0.00    -0.270 OA
ATOM      5  N   UNL     1      -6.935  -9.228   9.471  0.00  0.00    -0.292 N 
ATOM      8  C   UNL     1      -9.181  -9.967  10.432  0.00  0.00    +0.218 C 
ATOM      9  C   UNL     1      -7.661 -10.139  10.364  0.00  0.00    +0.155 C 
ATOM     10  C   UNL     1      -7.673  -8.587   8.382  0.00  0.00    +0.136 C 
ATOM     11  C   UNL     1      -9.613  -8.523  10.680  0.00  0.00    +0.206 C 
ATOM     12  C   UNL     1      -8.480  -7.399   8.891  0.00  0.00    +0.179 C 
ATOM     13  C   UNL     1      -5.575  -8.911   9.632  0.00  0.00    +0.247 C 
ENDROOT
BRANCH  13  14
ATOM     14  C   UNL     1      -4.834  -9.557  10.726  0.00  0.00    +0.040 A 
ATOM     16  C   UNL     1      -5.388  -9.615  12.005  0.00  0.00    +0.058 A 
ATOM     17  C   UNL     1      -3.575 -10.110  10.485  0.00  0.00    +0.013 A 
ATOM     18  C   UNL     1      -4.684 -10.227  13.042  0.00  0.00    +0.121 A 
ATOM     19  C   UNL     1      -2.873 -10.721  11.523  0.00  0.00    +0.004 A 
ATOM     20  C   UNL     1      -3.427 -10.780  12.801  0.00  0.00    +0.045 A 
BRANCH  18   4
ATOM      4  O   UNL     1      -5.225 -10.285  14.290  0.00  0.00    -0.495 OA
ATOM     24  C   UNL     1      -4.341 -10.588  15.368  0.00  0.00    +0.277 C 
ENDBRANCH  18   4
ENDBRANCH  13  14
BRANCH   8   2
ATOM      2  O   UNL     1      -9.639 -10.781  11.512  0.00  0.00    -0.468 OA
BRANCH   2  15
ATOM      6  N   UNL     1     -10.664  -9.388  13.066  0.00  0.00    -0.219 NA
ATOM      7  N   UNL     1      -8.588  -9.924  14.873  0.00  0.00    -0.256 NA
ATOM     15  C   UNL     1      -9.641 -10.207  12.753  0.00  0.00    +0.234 A 
ATOM     21  C   UNL     1      -8.621 -10.471  13.642  0.00  0.00    +0.177 A 
ATOM     22  C   UNL     1     -10.631  -8.841  14.297  0.00  0.00    +0.134 A 
ATOM     23  C   UNL     1      -9.611  -9.104  15.184  0.00  0.00    +0.130 A 
ENDBRANCH   2  15
ENDBRANCH   8   2
TORSDOF 4
ENDMDL
MODEL 7
REMARK VINA RESULT:      -3.1      1.900      5.841
REMARK  Name = 75536903
REMARK  5 active torsions:
REMARK  status: ('A' for Active; 'I' for Inactive)
REMARK    1  A    between atoms: O_2  and  C_8
REMARK    2  A    between atoms: O_2  and  C_15
REMARK    3  A    between atoms: O_4  and  C_18
REMARK    4  A    between atoms: O_4  and  C_24
REMARK    5  A    between atoms: C_13  and  C_14
REMARK                            x       y       z     vdW  Elec       q    Type
REMARK                         _______ _______ _______ _____ _____    ______ ____
ROOT
ATOM      1  O   UNL     1      -4.733  -2.740  24.153  0.00  0.00    -0.375 OA
ATOM      3  O   UNL     1      -0.089  -2.393  25.422  0.00  0.00    -0.270 OA
ATOM      5  N   UNL     1      -2.161  -1.313  25.234  0.00  0.00    -0.292 N 
ATOM      8  C   UNL     1      -4.398  -0.345  24.476  0.00  0.00    +0.218 C 
ATOM      9  C   UNL     1      -2.923  -0.127  24.825  0.00  0.00    +0.155 C 
ATOM     10  C   UNL     1      -2.897  -2.469  25.748  0.00  0.00    +0.136 C 
ATOM     11  C   UNL     1      -4.620  -1.487  23.486  0.00  0.00    +0.206 C 
ATOM     12  C   UNL     1      -3.501  -3.284  24.612  0.00  0.00    +0.179 C 
ATOM     13  C   UNL     1      -0.764  -1.408  25.121  0.00  0.00    +0.247 C 
ENDROOT
BRANCH  13  14
ATOM     14  C   UNL     1      -0.025  -0.246  24.605  0.00  0.00    +0.040 A 
ATOM     16  C   UNL     1       0.998  -0.426  23.674  0.00  0.00    +0.058 A 
ATOM     17  C   UNL     1      -0.347   1.038  25.047  0.00  0.00    +0.013 A 
ATOM     18  C   UNL     1       1.699   0.676  23.185  0.00  0.00    +0.121 A 
ATOM     19  C   UNL     1       0.354   2.140  24.558  0.00  0.00    +0.004 A 
ATOM     20  C   UNL     1       1.376   1.959  23.627  0.00  0.00    +0.045 A 
BRANCH  18   4
ATOM      4  O   UNL     1       2.696   0.500  22.276  0.00  0.00    -0.495 OA
ATOM     24  C   UNL     1       4.031   0.734  22.722  0.00  0.00    +0.277 C 
ENDBRANCH  18   4
ENDBRANCH  13  14
BRANCH   8   2
ATOM      2  O   UNL     1      -4.868   0.872  23.895  0.00  0.00    -0.468 OA
BRANCH   2  15
ATOM      6  N   UNL     1      -3.423   2.684  24.074  0.00  0.00    -0.219 NA
ATOM      7  N   UNL     1      -4.929   3.633  26.242  0.00  0.00    -0.256 NA
ATOM     15  C   UNL     1      -4.510   2.030  24.528  0.00  0.00    +0.234 A 
ATOM     21  C   UNL     1      -5.251   2.496  25.593  0.00  0.00    +0.177 A 
ATOM     22  C   UNL     1      -3.102   3.821  24.723  0.00  0.00    +0.134 A 
ATOM     23  C   UNL     1      -3.842   4.287  25.788  0.00  0.00    +0.130 A 
ENDBRANCH   2  15
ENDBRANCH   8   2
TORSDOF 4
ENDMDL
MODEL 8
REMARK VINA RESULT:      -2.4      1.916      5.006
REMARK  Name = 75536903
REMARK  5 active torsions:
REMARK  status: ('A' for Active; 'I' for Inactive)
REMARK    1  A    between atoms: O_2  and  C_8
REMARK    2  A    between atoms: O_2  and  C_15
REMARK    3  A    between atoms: O_4  and  C_18
REMARK    4  A    between atoms: O_4  and  C_24
REMARK    5  A    between atoms: C_13  and  C_14
REMARK                            x       y       z     vdW  Elec       q    Type
REMARK                         _______ _______ _______ _____ _____    ______ ____
ROOT
ATOM      1  O   UNL     1      -1.752   5.307  24.987  0.00  0.00    -0.375 OA
ATOM      3  O   UNL     1       1.081   1.404  24.770  0.00  0.00    -0.270 OA
ATOM      5  N   UNL     1      -0.838   2.488  23.970  0.00  0.00    -0.292 N 
ATOM      8  C   UNL     1      -3.055   3.717  23.673  0.00  0.00    +0.218 C 
ATOM      9  C   UNL     1      -2.256   2.412  23.600  0.00  0.00    +0.155 C 
ATOM     10  C   UNL     1      -0.169   3.788  23.902  0.00  0.00    +0.136 C 
ATOM     11  C   UNL     1      -2.890   4.450  25.002  0.00  0.00    +0.206 C 
ATOM     12  C   UNL     1      -0.502   4.640  25.120  0.00  0.00    +0.179 C 
ATOM     13  C   UNL     1      -0.099   1.380  24.421  0.00  0.00    +0.247 C 
ENDROOT
BRANCH  13  14
ATOM     14  C   UNL     1      -0.771   0.074  24.488  0.00  0.00    +0.040 A 
ATOM     16  C   UNL     1      -2.131  -0.027  24.197  0.00  0.00    +0.058 A 
ATOM     17  C   UNL     1      -0.048  -1.066  24.844  0.00  0.00    +0.013 A 
ATOM     18  C   UNL     1      -2.768  -1.266  24.261  0.00  0.00    +0.121 A 
ATOM     19  C   UNL     1      -0.685  -2.304  24.909  0.00  0.00    +0.004 A 
ATOM     20  C   UNL     1      -2.045  -2.405  24.616  0.00  0.00    +0.045 A 
BRANCH  18   4
ATOM      4  O   UNL     1      -4.095  -1.365  23.975  0.00  0.00    -0.495 OA
ATOM     24  C   UNL     1      -4.599  -2.664  23.669  0.00  0.00    +0.277 C 
ENDBRANCH  18   4
ENDBRANCH  13  14
BRANCH   8   2
ATOM      2  O   UNL     1      -4.429   3.369  23.501  0.00  0.00    -0.468 OA
BRANCH   2  15
ATOM      6  N   UNL     1      -5.201   1.443  24.549  0.00  0.00    -0.219 NA
ATOM      7  N   UNL     1      -6.110   3.008  26.692  0.00  0.00    -0.256 NA
ATOM     15  C   UNL     1      -5.049   2.782  24.569  0.00  0.00    +0.234 A 
ATOM     21  C   UNL     1      -5.495   3.551  25.622  0.00  0.00    +0.177 A 
ATOM     22  C   UNL     1      -5.816   0.900  25.619  0.00  0.00    +0.134 A 
ATOM     23  C   UNL     1      -6.263   1.669  26.671  0.00  0.00    +0.130 A 
ENDBRANCH   2  15
ENDBRANCH   8   2
TORSDOF 4
ENDMDL
MODEL 9
REMARK VINA RESULT:      -1.9      1.949      6.326
REMARK  Name = 75536903
REMARK  5 active torsions:
REMARK  status: ('A' for Active; 'I' for Inactive)
REMARK    1  A    between atoms: O_2  and  C_8
REMARK    2  A    between atoms: O_2  and  C_15
REMARK    3  A    between atoms: O_4  and  C_18
REMARK    4  A    between atoms: O_4  and  C_24
REMARK    5  A    between atoms: C_13  and  C_14
REMARK                            x       y       z     vdW  Elec       q    Type
REMARK                         _______ _______ _______ _____ _____    ______ ____
ROOT
ATOM      1  O   UNL     1      -6.070   3.540  24.870  0.00  0.00    -0.375 OA
ATOM      3  O   UNL     1      -4.921  -1.115  24.308  0.00  0.00    -0.270 OA
ATOM      5  N   UNL     1      -4.505   0.889  25.452  0.00  0.00    -0.292 N 
ATOM      8  C   UNL     1      -4.009   3.293  26.152  0.00  0.00    +0.218 C 
ATOM      9  C   UNL     1      -3.528   1.848  25.982  0.00  0.00    +0.155 C 
ATOM     10  C   UNL     1      -5.928   1.202  25.579  0.00  0.00    +0.136 C 
ATOM     11  C   UNL     1      -4.681   3.854  24.901  0.00  0.00    +0.206 C 
ATOM     12  C   UNL     1      -6.368   2.196  24.512  0.00  0.00    +0.179 C 
ATOM     13  C   UNL     1      -4.139  -0.299  24.795  0.00  0.00    +0.247 C 
ENDROOT
BRANCH  13  14
ATOM     14  C   UNL     1      -2.708  -0.614  24.668  0.00  0.00    +0.040 A 
ATOM     16  C   UNL     1      -1.923   0.068  23.739  0.00  0.00    +0.058 A 
ATOM     17  C   UNL     1      -2.135  -1.596  25.477  0.00  0.00    +0.013 A 
ATOM     18  C   UNL     1      -0.566  -0.231  23.619  0.00  0.00    +0.121 A 
ATOM     19  C   UNL     1      -0.779  -1.895  25.356  0.00  0.00    +0.004 A 
ATOM     20  C   UNL     1       0.006  -1.212  24.428  0.00  0.00    +0.045 A 
BRANCH  18   4
ATOM      4  O   UNL     1       0.200   0.436  22.713  0.00  0.00    -0.495 OA
ATOM     24  C   UNL     1       1.570   0.050  22.612  0.00  0.00    +0.277 C 
ENDBRANCH  18   4
ENDBRANCH  13  14
BRANCH   8   2
ATOM      2  O   UNL     1      -2.854   4.078  26.452  0.00  0.00    -0.468 OA
BRANCH   2  15
ATOM      6  N   UNL     1      -0.928   2.776  26.405  0.00  0.00    -0.219 NA
ATOM      7  N   UNL     1      -0.198   3.995  23.987  0.00  0.00    -0.256 NA
ATOM     15  C   UNL     1      -1.693   3.722  25.823  0.00  0.00    +0.234 A 
ATOM     21  C   UNL     1      -1.334   4.320  24.635  0.00  0.00    +0.177 A 
ATOM     22  C   UNL     1       0.208   2.452  25.757  0.00  0.00    +0.134 A 
ATOM     23  C   UNL     1       0.567   3.051  24.569  0.00  0.00    +0.130 A 
ENDBRANCH   2  15
ENDBRANCH   8   2
TORSDOF 4
ENDMDL
MODEL 10
REMARK VINA RESULT:      -1.8      1.840      4.946
REMARK  Name = 75536903
REMARK  5 active torsions:
REMARK  status: ('A' for Active; 'I' for Inactive)
REMARK    1  A    between atoms: O_2  and  C_8
REMARK    2  A    between atoms: O_2  and  C_15
REMARK    3  A    between atoms: O_4  and  C_18
REMARK    4  A    between atoms: O_4  and  C_24
REMARK    5  A    between atoms: C_13  and  C_14
REMARK                            x       y       z     vdW  Elec       q    Type
REMARK                         _______ _______ _______ _____ _____    ______ ____
ROOT
ATOM      1  O   UNL     1      -4.454  -2.624  23.642  0.00  0.00    -0.375 OA
ATOM      3  O   UNL     1      -0.096  -1.618  25.458  0.00  0.00    -0.270 OA
ATOM      5  N   UNL     1      -2.392  -1.144  25.479  0.00  0.00    -0.292 N 
ATOM      8  C   UNL     1      -4.817  -0.577  24.919  0.00  0.00    +0.218 C 
ATOM      9  C   UNL     1      -3.463  -0.140  25.488  0.00  0.00    +0.155 C 
ATOM     10  C   UNL     1      -2.763  -2.558  25.410  0.00  0.00    +0.136 C 
ATOM     11  C   UNL     1      -4.708  -1.226  23.541  0.00  0.00    +0.206 C 
ATOM     12  C   UNL     1      -3.116  -2.963  23.984  0.00  0.00    +0.179 C 
ATOM     13  C   UNL     1      -1.026  -0.813  25.496  0.00  0.00    +0.247 C 
ENDROOT
BRANCH  13  14
ATOM     14  C   UNL     1      -0.654   0.609  25.566  0.00  0.00    +0.040 A 
ATOM     16  C   UNL     1      -0.570   1.367  24.398  0.00  0.00    +0.058 A 
ATOM     17  C   UNL     1      -0.383   1.199  26.802  0.00  0.00    +0.013 A 
ATOM     18  C   UNL     1      -0.216   2.714  24.465  0.00  0.00    +0.121 A 
ATOM     19  C   UNL     1      -0.029   2.546  26.868  0.00  0.00    +0.004 A 
ATOM     20  C   UNL     1       0.053   3.304  25.700  0.00  0.00    +0.045 A 
BRANCH  18   4
ATOM      4  O   UNL     1      -0.136   3.454  23.326  0.00  0.00    -0.495 OA
ATOM     24  C   UNL     1      -0.241   4.871  23.463  0.00  0.00    +0.277 C 
ENDBRANCH  18   4
ENDBRANCH  13  14
BRANCH   8   2
ATOM      2  O   UNL     1      -5.618   0.601  24.816  0.00  0.00    -0.468 OA
BRANCH   2  15
ATOM      6  N   UNL     1      -5.098   2.614  25.855  0.00  0.00    -0.219 NA
ATOM      7  N   UNL     1      -3.489   3.296  23.662  0.00  0.00    -0.256 NA
ATOM     15  C   UNL     1      -4.952   1.795  24.795  0.00  0.00    +0.234 A 
ATOM     21  C   UNL     1      -4.160   2.130  23.718  0.00  0.00    +0.177 A 
ATOM     22  C   UNL     1      -4.426   3.781  25.799  0.00  0.00    +0.134 A 
ATOM     23  C   UNL     1      -3.636   4.116  24.721  0.00  0.00    +0.130 A 
ENDBRANCH   2  15
ENDBRANCH   8   2
TORSDOF 4
ENDMDL
