MODEL 1
REMARK VINA RESULT:       1.1      0.000      0.000
REMARK  Name = 11886737
REMARK  6 active torsions:
REMARK  status: ('A' for Active; 'I' for Inactive)
REMARK    1  A    between atoms: O_4  and  C_30
REMARK    2  A    between atoms: O_4  and  C_31
REMARK    3  A    between atoms: N_5  and  C_12
REMARK    4  A    between atoms: N_6  and  C_13
REMARK    5  A    between atoms: N_9  and  C_20
REMARK    6  A    between atoms: C_18  and  C_19
REMARK                            x       y       z     vdW  Elec       q    Type
REMARK                         _______ _______ _______ _____ _____    ______ ____
ROOT
ATOM      3  O   UNL     1      -6.398 -10.056  15.484  0.00  0.00    -0.252 OA
ATOM      6  N   UNL     1      -6.168 -10.086  17.785  0.00  0.00    -0.292 N 
ATOM      9  N   UNL     1      -4.277 -10.178  16.484  0.00  0.00    -0.269 N 
ATOM     17  C   UNL     1      -5.673 -10.103  16.475  0.00  0.00    +0.304 C 
ATOM     37  H   UNL     1      -5.502 -10.058  18.551  0.00  0.00    +0.151 HD
ATOM     38  H   UNL     1      -3.829 -10.210  17.396  0.00  0.00    +0.156 HD
ENDROOT
BRANCH   6  13
ATOM      1  O   UNL     1      -9.719 -10.781  17.280  0.00  0.00    -0.370 OA
ATOM      2  O   UNL     1      -8.333  -7.959  17.190  0.00  0.00    -0.370 OA
ATOM     10  C   UNL     1      -8.602  -8.972  16.203  0.00  0.00    +0.175 C 
ATOM     11  C   UNL     1      -8.421 -10.316  16.880  0.00  0.00    +0.171 C 
ATOM     12  C   UNL     1     -10.065  -8.933  15.808  0.00  0.00    +0.166 C 
ATOM     13  C   UNL     1      -7.575 -10.012  18.096  0.00  0.00    +0.131 C 
ATOM     14  C   UNL     1     -10.720  -9.858  16.828  0.00  0.00    +0.190 C 
ATOM     15  C   UNL     1      -7.989  -8.592  18.431  0.00  0.00    +0.185 C 
BRANCH  12   5
ATOM      5  N   UNL     1     -10.280  -9.302  14.407  0.00  0.00    -0.243 N 
ATOM      7  N   UNL     1     -10.583 -10.564  14.078  0.00  0.00    -0.065 NA
ATOM      8  N   UNL     1     -10.718 -10.599  12.757  0.00  0.00    -0.129 NA
ATOM     16  C   UNL     1     -10.212  -8.493  13.320  0.00  0.00    +0.139 A 
ATOM     18  C   UNL     1     -10.494  -9.339  12.278  0.00  0.00    +0.113 A 
BRANCH  18  19
ATOM     19  C   UNL     1     -10.549  -8.972  10.899  0.00  0.00    +0.004 A 
ATOM     21  C   UNL     1     -10.484  -9.953   9.904  0.00  0.00    +0.010 A 
ATOM     22  C   UNL     1     -10.665  -7.627  10.531  0.00  0.00    +0.010 A 
ATOM     25  C   UNL     1     -10.537  -9.594   8.558  0.00  0.00    +0.001 A 
ATOM     26  C   UNL     1     -10.718  -7.268   9.183  0.00  0.00    +0.001 A 
ATOM     27  C   UNL     1     -10.654  -8.252   8.197  0.00  0.00    +0.000 A 
ENDBRANCH  18  19
ENDBRANCH  12   5
ENDBRANCH   6  13
BRANCH   9  20
ATOM     20  C   UNL     1      -3.403 -10.216  15.373  0.00  0.00    +0.035 A 
ATOM     23  C   UNL     1      -3.927 -10.410  14.104  0.00  0.00    +0.027 A 
ATOM     24  C   UNL     1      -2.042 -10.059  15.574  0.00  0.00    +0.027 A 
ATOM     28  C   UNL     1      -3.065 -10.448  13.009  0.00  0.00    +0.048 A 
ATOM     29  C   UNL     1      -1.179 -10.098  14.478  0.00  0.00    +0.048 A 
ATOM     30  C   UNL     1      -1.692 -10.293  13.195  0.00  0.00    +0.129 A 
BRANCH  30   4
ATOM      4  O   UNL     1      -0.851 -10.328  12.125  0.00  0.00    -0.456 OA
BRANCH   4  31
ATOM     31  C   UNL     1      -0.002  -9.250  11.938  0.00  0.00    +0.128 A 
ATOM     32  C   UNL     1      -0.040  -8.200  12.835  0.00  0.00    +0.046 A 
ATOM     33  C   UNL     1       0.861  -9.254  10.858  0.00  0.00    +0.046 A 
ATOM     34  C   UNL     1       0.815  -7.114  12.647  0.00  0.00    +0.004 A 
ATOM     35  C   UNL     1       1.717  -8.168  10.668  0.00  0.00    +0.004 A 
ATOM     36  C   UNL     1       1.694  -7.098  11.563  0.00  0.00    +0.000 A 
ENDBRANCH   4  31
ENDBRANCH  30   4
ENDBRANCH   9  20
TORSDOF 6
ENDMDL
