MODEL 1
REMARK VINA RESULT:      -3.4      0.000      0.000
REMARK  Name = 26743252
REMARK  10 active torsions:
REMARK  status: ('A' for Active; 'I' for Inactive)
REMARK    1  A    between atoms: O_3  and  C_31
REMARK    2  A    between atoms: O_3  and  C_32
REMARK    3  A    between atoms: N_6  and  C_25
REMARK    4  A    between atoms: C_7  and  C_11
REMARK    5  A    between atoms: C_8  and  C_14
REMARK    6  A    between atoms: C_11  and  C_21
REMARK    7  A    between atoms: C_12  and  C_19
REMARK    8  A    between atoms: C_14  and  C_24
REMARK    9  A    between atoms: C_19  and  C_22
REMARK   10  A    between atoms: C_25  and  C_26
REMARK                            x       y       z     vdW  Elec       q    Type
REMARK                         _______ _______ _______ _____ _____    ______ ____
ROOT
ATOM      4  N   UNL     1      -0.462   4.477  25.001  0.00  0.00    -0.316 NA
ATOM      7  C   UNL     1      -2.507   3.147  25.520  0.00  0.00    +0.012 C 
ATOM      8  C   UNL     1      -3.347   4.448  25.507  0.00  0.00    +0.004 C 
ATOM      9  C   UNL     1      -2.678   5.527  24.641  0.00  0.00    +0.019 C 
ATOM     10  C   UNL     1      -1.052   3.481  25.898  0.00  0.00    +0.085 C 
ATOM     13  C   UNL     1      -1.215   5.730  25.034  0.00  0.00    +0.081 C 
ATOM     33  H   UNL     1      -0.450   4.114  24.049  0.00  0.00    +0.122 HD
ENDROOT
BRANCH   7  11
ATOM     11  C   UNL     1      -2.561   2.362  24.203  0.00  0.00    +0.064 C 
BRANCH  11  21
ATOM      1  O   UNL     1       0.233   0.126  24.595  0.00  0.00    -0.359 OA
ATOM      5  N   UNL     1      -0.863   0.823  25.088  0.00  0.00    -0.083 NA
ATOM     21  C   UNL     1      -1.351   1.488  24.038  0.00  0.00    +0.084 A 
ATOM     22  C   UNL     1       0.374   0.391  23.271  0.00  0.00    +0.138 A 
ATOM     23  C   UNL     1      -0.612   1.253  22.866  0.00  0.00    +0.071 A 
BRANCH  22  19
ATOM     19  C   UNL     1       1.491  -0.269  22.586  0.00  0.00    +0.080 C 
BRANCH  19  12
ATOM     12  C   UNL     1       2.826  -0.096  23.308  0.00  0.00    -0.004 C 
ATOM     15  C   UNL     1       3.563  -1.438  23.412  0.00  0.00    +0.004 C 
ATOM     16  C   UNL     1       3.696   0.950  22.597  0.00  0.00    +0.004 C 
ATOM     17  C   UNL     1       4.925  -1.283  24.083  0.00  0.00    +0.000 C 
ATOM     18  C   UNL     1       5.058   1.102  23.269  0.00  0.00    +0.000 C 
ATOM     20  C   UNL     1       5.783  -0.236  23.379  0.00  0.00    +0.000 C 
ENDBRANCH  19  12
ENDBRANCH  22  19
ENDBRANCH  11  21
ENDBRANCH   7  11
BRANCH   8  14
ATOM     14  C   UNL     1      -4.797   4.230  25.081  0.00  0.00    +0.099 C 
BRANCH  14  24
ATOM      2  O   UNL     1      -5.766   2.771  26.750  0.00  0.00    -0.276 OA
ATOM      6  N   UNL     1      -5.343   1.945  24.619  0.00  0.00    -0.311 N 
ATOM     24  C   UNL     1      -5.358   2.924  25.601  0.00  0.00    +0.214 C 
ATOM     34  H   UNL     1      -4.976   2.166  23.698  0.00  0.00    +0.149 HD
BRANCH   6  25
ATOM     25  C   UNL     1      -5.818   0.598  24.840  0.00  0.00    +0.139 C 
BRANCH  25  26
ATOM     26  C   UNL     1      -4.696  -0.400  24.847  0.00  0.00    -0.030 A 
ATOM     27  C   UNL     1      -4.482  -1.217  23.736  0.00  0.00    +0.009 A 
ATOM     28  C   UNL     1      -3.868  -0.509  25.964  0.00  0.00    +0.009 A 
ATOM     29  C   UNL     1      -3.439  -2.143  23.743  0.00  0.00    +0.046 A 
ATOM     30  C   UNL     1      -2.825  -1.436  25.971  0.00  0.00    +0.046 A 
ATOM     31  C   UNL     1      -2.611  -2.253  24.861  0.00  0.00    +0.120 A 
BRANCH  31   3
ATOM      3  O   UNL     1      -1.593  -3.157  24.867  0.00  0.00    -0.495 OA
ATOM     32  C   UNL     1      -0.321  -2.699  25.319  0.00  0.00    +0.277 C 
ENDBRANCH  31   3
ENDBRANCH  25  26
ENDBRANCH   6  25
ENDBRANCH  14  24
ENDBRANCH   8  14
TORSDOF 9
ENDMDL
MODEL 2
REMARK VINA RESULT:      -1.5      1.884      7.135
REMARK  Name = 26743252
REMARK  10 active torsions:
REMARK  status: ('A' for Active; 'I' for Inactive)
REMARK    1  A    between atoms: O_3  and  C_31
REMARK    2  A    between atoms: O_3  and  C_32
REMARK    3  A    between atoms: N_6  and  C_25
REMARK    4  A    between atoms: C_7  and  C_11
REMARK    5  A    between atoms: C_8  and  C_14
REMARK    6  A    between atoms: C_11  and  C_21
REMARK    7  A    between atoms: C_12  and  C_19
REMARK    8  A    between atoms: C_14  and  C_24
REMARK    9  A    between atoms: C_19  and  C_22
REMARK   10  A    between atoms: C_25  and  C_26
REMARK                            x       y       z     vdW  Elec       q    Type
REMARK                         _______ _______ _______ _____ _____    ______ ____
ROOT
ATOM      4  N   UNL     1      -3.470  -3.580  23.848  0.00  0.00    -0.316 NA
ATOM      7  C   UNL     1      -3.530  -1.532  25.270  0.00  0.00    +0.012 C 
ATOM      8  C   UNL     1      -1.992  -1.408  25.144  0.00  0.00    +0.004 C 
ATOM      9  C   UNL     1      -1.488  -2.092  23.863  0.00  0.00    +0.019 C 
ATOM     10  C   UNL     1      -3.939  -3.008  25.111  0.00  0.00    +0.085 C 
ATOM     13  C   UNL     1      -2.011  -3.524  23.752  0.00  0.00    +0.081 C 
ATOM     33  H   UNL     1      -3.881  -3.069  23.068  0.00  0.00    +0.122 HD
ENDROOT
BRANCH   7  11
ATOM     11  C   UNL     1      -4.307  -0.644  24.288  0.00  0.00    +0.064 C 
BRANCH  11  21
ATOM      1  O   UNL     1      -5.701   2.227  25.954  0.00  0.00    -0.359 OA
ATOM      5  N   UNL     1      -5.750   0.902  25.539  0.00  0.00    -0.083 NA
ATOM     21  C   UNL     1      -4.602   0.702  24.885  0.00  0.00    +0.084 A 
ATOM     22  C   UNL     1      -4.533   2.783  25.541  0.00  0.00    +0.138 A 
ATOM     23  C   UNL     1      -3.796   1.853  24.856  0.00  0.00    +0.071 A 
BRANCH  22  19
ATOM     19  C   UNL     1      -4.315   4.190  25.898  0.00  0.00    +0.080 C 
BRANCH  19  12
ATOM     12  C   UNL     1      -2.840   4.587  25.901  0.00  0.00    -0.004 C 
ATOM     15  C   UNL     1      -1.945   3.347  26.029  0.00  0.00    +0.004 C 
ATOM     16  C   UNL     1      -2.490   5.384  24.636  0.00  0.00    +0.004 C 
ATOM     17  C   UNL     1      -0.464   3.712  25.980  0.00  0.00    +0.000 C 
ATOM     18  C   UNL     1      -1.008   5.747  24.590  0.00  0.00    +0.000 C 
ATOM     20  C   UNL     1      -0.122   4.512  24.727  0.00  0.00    +0.000 C 
ENDBRANCH  19  12
ENDBRANCH  22  19
ENDBRANCH  11  21
ENDBRANCH   7  11
BRANCH   8  14
ATOM     14  C   UNL     1      -1.491   0.033  25.224  0.00  0.00    +0.099 C 
BRANCH  14  24
ATOM      2  O   UNL     1      -1.320   1.291  23.164  0.00  0.00    -0.276 OA
ATOM      6  N   UNL     1       0.403  -0.147  23.770  0.00  0.00    -0.311 N 
ATOM     24  C   UNL     1      -0.823   0.480  23.941  0.00  0.00    +0.214 C 
ATOM     34  H   UNL     1       0.727  -0.812  24.466  0.00  0.00    +0.149 HD
BRANCH   6  25
ATOM     25  C   UNL     1       1.258   0.090  22.629  0.00  0.00    +0.139 C 
BRANCH  25  26
ATOM     26  C   UNL     1       2.712  -0.037  22.980  0.00  0.00    -0.030 A 
ATOM     27  C   UNL     1       3.196  -1.225  23.530  0.00  0.00    +0.009 A 
ATOM     28  C   UNL     1       3.579   1.032  22.758  0.00  0.00    +0.009 A 
ATOM     29  C   UNL     1       4.547  -1.343  23.855  0.00  0.00    +0.046 A 
ATOM     30  C   UNL     1       4.930   0.915  23.084  0.00  0.00    +0.046 A 
ATOM     31  C   UNL     1       5.414  -0.272  23.633  0.00  0.00    +0.120 A 
BRANCH  31   3
ATOM      3  O   UNL     1       6.733  -0.387  23.950  0.00  0.00    -0.495 OA
ATOM     32  C   UNL     1       7.650  -0.536  22.868  0.00  0.00    +0.277 C 
ENDBRANCH  31   3
ENDBRANCH  25  26
ENDBRANCH   6  25
ENDBRANCH  14  24
ENDBRANCH   8  14
TORSDOF 9
ENDMDL
MODEL 3
REMARK VINA RESULT:      -0.9      1.682      4.498
REMARK  Name = 26743252
REMARK  10 active torsions:
REMARK  status: ('A' for Active; 'I' for Inactive)
REMARK    1  A    between atoms: O_3  and  C_31
REMARK    2  A    between atoms: O_3  and  C_32
REMARK    3  A    between atoms: N_6  and  C_25
REMARK    4  A    between atoms: C_7  and  C_11
REMARK    5  A    between atoms: C_8  and  C_14
REMARK    6  A    between atoms: C_11  and  C_21
REMARK    7  A    between atoms: C_12  and  C_19
REMARK    8  A    between atoms: C_14  and  C_24
REMARK    9  A    between atoms: C_19  and  C_22
REMARK   10  A    between atoms: C_25  and  C_26
REMARK                            x       y       z     vdW  Elec       q    Type
REMARK                         _______ _______ _______ _____ _____    ______ ____
ROOT
ATOM      4  N   UNL     1      -0.463  -0.719  26.436  0.00  0.00    -0.316 NA
ATOM      7  C   UNL     1      -1.435  -1.768  24.393  0.00  0.00    +0.012 C 
ATOM      8  C   UNL     1      -2.708  -2.133  25.195  0.00  0.00    +0.004 C 
ATOM      9  C   UNL     1      -2.896  -1.184  26.389  0.00  0.00    +0.019 C 
ATOM     10  C   UNL     1      -0.234  -1.677  25.353  0.00  0.00    +0.085 C 
ATOM     13  C   UNL     1      -1.628  -1.095  27.237  0.00  0.00    +0.081 C 
ATOM     33  H   UNL     1      -0.606   0.211  26.045  0.00  0.00    +0.122 HD
ENDROOT
BRANCH   7  11
ATOM     11  C   UNL     1      -1.569  -0.482  23.566  0.00  0.00    +0.064 C 
BRANCH  11  21
ATOM      1  O   UNL     1       1.134   1.814  24.180  0.00  0.00    -0.359 OA
ATOM      5  N   UNL     1      -0.134   1.310  24.440  0.00  0.00    -0.083 NA
ATOM     21  C   UNL     1      -0.292   0.308  23.572  0.00  0.00    +0.084 A 
ATOM     22  C   UNL     1       1.699   1.106  23.169  0.00  0.00    +0.138 A 
ATOM     23  C   UNL     1       0.832   0.133  22.747  0.00  0.00    +0.071 A 
BRANCH  22  19
ATOM     19  C   UNL     1       3.051   1.508  22.763  0.00  0.00    +0.080 C 
BRANCH  19  12
ATOM     12  C   UNL     1       4.068   0.372  22.853  0.00  0.00    -0.004 C 
ATOM     15  C   UNL     1       5.365   0.858  23.515  0.00  0.00    +0.004 C 
ATOM     16  C   UNL     1       3.482  -0.824  23.616  0.00  0.00    +0.004 C 
ATOM     17  C   UNL     1       6.380  -0.273  23.666  0.00  0.00    +0.000 C 
ATOM     18  C   UNL     1       4.499  -1.952  23.766  0.00  0.00    +0.000 C 
ATOM     20  C   UNL     1       5.790  -1.463  24.416  0.00  0.00    +0.000 C 
ENDBRANCH  19  12
ENDBRANCH  22  19
ENDBRANCH  11  21
ENDBRANCH   7  11
BRANCH   8  14
ATOM     14  C   UNL     1      -3.971  -2.185  24.337  0.00  0.00    +0.099 C 
BRANCH  14  24
ATOM      2  O   UNL     1      -4.124  -0.385  22.729  0.00  0.00    -0.276 OA
ATOM      6  N   UNL     1      -5.096  -0.128  24.825  0.00  0.00    -0.311 N 
ATOM     24  C   UNL     1      -4.389  -0.815  23.848  0.00  0.00    +0.214 C 
ATOM     34  H   UNL     1      -5.259  -0.566  25.727  0.00  0.00    +0.149 HD
BRANCH   6  25
ATOM     25  C   UNL     1      -5.615   1.206  24.631  0.00  0.00    +0.139 C 
BRANCH  25  26
ATOM     26  C   UNL     1      -4.559   2.254  24.829  0.00  0.00    -0.030 A 
ATOM     27  C   UNL     1      -3.588   2.460  23.848  0.00  0.00    +0.009 A 
ATOM     28  C   UNL     1      -4.548   3.022  25.993  0.00  0.00    +0.009 A 
ATOM     29  C   UNL     1      -2.607   3.435  24.033  0.00  0.00    +0.046 A 
ATOM     30  C   UNL     1      -3.567   3.996  26.178  0.00  0.00    +0.046 A 
ATOM     31  C   UNL     1      -2.596   4.202  25.198  0.00  0.00    +0.120 A 
BRANCH  31   3
ATOM      3  O   UNL     1      -1.639   5.153  25.377  0.00  0.00    -0.495 OA
ATOM     32  C   UNL     1      -0.440   5.019  24.616  0.00  0.00    +0.277 C 
ENDBRANCH  31   3
ENDBRANCH  25  26
ENDBRANCH   6  25
ENDBRANCH  14  24
ENDBRANCH   8  14
TORSDOF 9
ENDMDL
MODEL 4
REMARK VINA RESULT:      -0.6      1.781      6.287
REMARK  Name = 26743252
REMARK  10 active torsions:
REMARK  status: ('A' for Active; 'I' for Inactive)
REMARK    1  A    between atoms: O_3  and  C_31
REMARK    2  A    between atoms: O_3  and  C_32
REMARK    3  A    between atoms: N_6  and  C_25
REMARK    4  A    between atoms: C_7  and  C_11
REMARK    5  A    between atoms: C_8  and  C_14
REMARK    6  A    between atoms: C_11  and  C_21
REMARK    7  A    between atoms: C_12  and  C_19
REMARK    8  A    between atoms: C_14  and  C_24
REMARK    9  A    between atoms: C_19  and  C_22
REMARK   10  A    between atoms: C_25  and  C_26
REMARK                            x       y       z     vdW  Elec       q    Type
REMARK                         _______ _______ _______ _____ _____    ______ ____
ROOT
ATOM      4  N   UNL     1      -3.129   4.383  26.635  0.00  0.00    -0.316 NA
ATOM      7  C   UNL     1      -1.938   4.908  24.508  0.00  0.00    +0.012 C 
ATOM      8  C   UNL     1      -0.883   3.825  24.841  0.00  0.00    +0.004 C 
ATOM      9  C   UNL     1      -1.466   2.757  25.779  0.00  0.00    +0.019 C 
ATOM     10  C   UNL     1      -2.547   5.447  25.815  0.00  0.00    +0.085 C 
ATOM     13  C   UNL     1      -2.121   3.390  27.006  0.00  0.00    +0.081 C 
ATOM     33  H   UNL     1      -3.880   3.926  26.119  0.00  0.00    +0.122 HD
ENDROOT
BRANCH   7  11
ATOM     11  C   UNL     1      -3.039   4.428  23.552  0.00  0.00    +0.064 C 
BRANCH  11  21
ATOM      1  O   UNL     1      -5.347   2.357  25.381  0.00  0.00    -0.359 OA
ATOM      5  N   UNL     1      -4.820   3.592  25.023  0.00  0.00    -0.083 NA
ATOM     21  C   UNL     1      -3.841   3.313  24.158  0.00  0.00    +0.084 A 
ATOM     22  C   UNL     1      -4.674   1.377  24.727  0.00  0.00    +0.138 A 
ATOM     23  C   UNL     1      -3.704   1.932  23.934  0.00  0.00    +0.071 A 
BRANCH  22  19
ATOM     19  C   UNL     1      -5.104  -0.001  24.990  0.00  0.00    +0.080 C 
BRANCH  19  12
ATOM     12  C   UNL     1      -3.941  -0.952  25.268  0.00  0.00    -0.004 C 
ATOM     15  C   UNL     1      -3.885  -2.062  24.210  0.00  0.00    +0.004 C 
ATOM     16  C   UNL     1      -2.613  -0.184  25.323  0.00  0.00    +0.004 C 
ATOM     17  C   UNL     1      -2.698  -2.996  24.434  0.00  0.00    +0.000 C 
ATOM     18  C   UNL     1      -1.428  -1.120  25.546  0.00  0.00    +0.000 C 
ATOM     20  C   UNL     1      -1.382  -2.228  24.497  0.00  0.00    +0.000 C 
ENDBRANCH  19  12
ENDBRANCH  22  19
ENDBRANCH  11  21
ENDBRANCH   7  11
BRANCH   8  14
ATOM     14  C   UNL     1      -0.263   3.180  23.602  0.00  0.00    +0.099 C 
BRANCH  14  24
ATOM      2  O   UNL     1       0.800   1.544  25.032  0.00  0.00    -0.276 OA
ATOM      6  N   UNL     1       0.476   1.055  22.782  0.00  0.00    -0.311 N 
ATOM     24  C   UNL     1       0.395   1.853  23.915  0.00  0.00    +0.214 C 
ATOM     34  H   UNL     1       0.119   1.403  21.898  0.00  0.00    +0.149 HD
BRANCH   6  25
ATOM     25  C   UNL     1       1.061  -0.266  22.789  0.00  0.00    +0.139 C 
BRANCH  25  26
ATOM     26  C   UNL     1       2.539  -0.225  23.052  0.00  0.00    -0.030 A 
ATOM     27  C   UNL     1       3.284   0.893  22.676  0.00  0.00    +0.009 A 
ATOM     28  C   UNL     1       3.166  -1.305  23.673  0.00  0.00    +0.009 A 
ATOM     29  C   UNL     1       4.656   0.931  22.921  0.00  0.00    +0.046 A 
ATOM     30  C   UNL     1       4.539  -1.267  23.918  0.00  0.00    +0.046 A 
ATOM     31  C   UNL     1       5.284  -0.150  23.542  0.00  0.00    +0.120 A 
BRANCH  31   3
ATOM      3  O   UNL     1       6.623  -0.112  23.781  0.00  0.00    -0.495 OA
ATOM     32  C   UNL     1       7.481  -0.596  22.749  0.00  0.00    +0.277 C 
ENDBRANCH  31   3
ENDBRANCH  25  26
ENDBRANCH   6  25
ENDBRANCH  14  24
ENDBRANCH   8  14
TORSDOF 9
ENDMDL
MODEL 5
REMARK VINA RESULT:       0.3      1.637      4.615
REMARK  Name = 26743252
REMARK  10 active torsions:
REMARK  status: ('A' for Active; 'I' for Inactive)
REMARK    1  A    between atoms: O_3  and  C_31
REMARK    2  A    between atoms: O_3  and  C_32
REMARK    3  A    between atoms: N_6  and  C_25
REMARK    4  A    between atoms: C_7  and  C_11
REMARK    5  A    between atoms: C_8  and  C_14
REMARK    6  A    between atoms: C_11  and  C_21
REMARK    7  A    between atoms: C_12  and  C_19
REMARK    8  A    between atoms: C_14  and  C_24
REMARK    9  A    between atoms: C_19  and  C_22
REMARK   10  A    between atoms: C_25  and  C_26
REMARK                            x       y       z     vdW  Elec       q    Type
REMARK                         _______ _______ _______ _____ _____    ______ ____
ROOT
ATOM      4  N   UNL     1      -1.137  -2.477  25.052  0.00  0.00    -0.316 NA
ATOM      7  C   UNL     1      -2.574  -1.060  23.586  0.00  0.00    +0.012 C 
ATOM      8  C   UNL     1      -3.824  -1.826  24.084  0.00  0.00    +0.004 C 
ATOM      9  C   UNL     1      -3.579  -2.435  25.473  0.00  0.00    +0.019 C 
ATOM     10  C   UNL     1      -1.339  -1.973  23.692  0.00  0.00    +0.085 C 
ATOM     13  C   UNL     1      -2.290  -3.256  25.503  0.00  0.00    +0.081 C 
ATOM     33  H   UNL     1      -0.988  -1.693  25.687  0.00  0.00    +0.122 HD
ENDROOT
BRANCH   7  11
ATOM     11  C   UNL     1      -2.331   0.270  24.312  0.00  0.00    +0.064 C 
BRANCH  11  21
ATOM      1  O   UNL     1       0.931   1.764  24.603  0.00  0.00    -0.359 OA
ATOM      5  N   UNL     1      -0.360   1.532  25.060  0.00  0.00    -0.083 NA
ATOM     21  C   UNL     1      -0.914   0.735  24.142  0.00  0.00    +0.084 A 
ATOM     22  C   UNL     1       1.116   1.106  23.430  0.00  0.00    +0.138 A 
ATOM     23  C   UNL     1      -0.029   0.433  23.092  0.00  0.00    +0.071 A 
BRANCH  22  19
ATOM     19  C   UNL     1       2.436   1.243  22.804  0.00  0.00    +0.080 C 
BRANCH  19  12
ATOM     12  C   UNL     1       3.539   0.499  23.555  0.00  0.00    -0.004 C 
ATOM     15  C   UNL     1       3.474  -1.006  23.260  0.00  0.00    +0.004 C 
ATOM     16  C   UNL     1       4.919   1.067  23.195  0.00  0.00    +0.004 C 
ATOM     17  C   UNL     1       4.600  -1.766  23.957  0.00  0.00    +0.000 C 
ATOM     18  C   UNL     1       6.042   0.304  23.892  0.00  0.00    +0.000 C 
ATOM     20  C   UNL     1       5.969  -1.192  23.604  0.00  0.00    +0.000 C 
ENDBRANCH  19  12
ENDBRANCH  22  19
ENDBRANCH  11  21
ENDBRANCH   7  11
BRANCH   8  14
ATOM     14  C   UNL     1      -5.097  -0.980  24.078  0.00  0.00    +0.099 C 
BRANCH  14  24
ATOM      2  O   UNL     1      -4.391   0.143  26.101  0.00  0.00    -0.276 OA
ATOM      6  N   UNL     1      -5.742   1.270  24.581  0.00  0.00    -0.311 N 
ATOM     24  C   UNL     1      -5.018   0.181  25.045  0.00  0.00    +0.214 C 
ATOM     34  H   UNL     1      -6.236   1.202  23.697  0.00  0.00    +0.149 HD
BRANCH   6  25
ATOM     25  C   UNL     1      -5.843   2.516  25.306  0.00  0.00    +0.139 C 
BRANCH  25  26
ATOM     26  C   UNL     1      -4.555   3.287  25.281  0.00  0.00    -0.030 A 
ATOM     27  C   UNL     1      -3.892   3.500  24.071  0.00  0.00    +0.009 A 
ATOM     28  C   UNL     1      -4.021   3.789  26.467  0.00  0.00    +0.009 A 
ATOM     29  C   UNL     1      -2.695   4.216  24.049  0.00  0.00    +0.046 A 
ATOM     30  C   UNL     1      -2.824   4.506  26.444  0.00  0.00    +0.046 A 
ATOM     31  C   UNL     1      -2.161   4.719  25.236  0.00  0.00    +0.120 A 
BRANCH  31   3
ATOM      3  O   UNL     1      -0.994   5.418  25.214  0.00  0.00    -0.495 OA
ATOM     32  C   UNL     1      -0.072   5.110  24.169  0.00  0.00    +0.277 C 
ENDBRANCH  31   3
ENDBRANCH  25  26
ENDBRANCH   6  25
ENDBRANCH  14  24
ENDBRANCH   8  14
TORSDOF 9
ENDMDL
