MODEL 1
REMARK VINA RESULT:       0.3      0.000      0.000
REMARK  Name = 40780407
REMARK  9 active torsions:
REMARK  status: ('A' for Active; 'I' for Inactive)
REMARK    1  A    between atoms: O_2  and  C_25
REMARK    2  A    between atoms: O_2  and  C_29
REMARK    3  A    between atoms: N_3  and  C_8
REMARK    4  A    between atoms: N_3  and  C_14
REMARK    5  A    between atoms: N_4  and  C_17
REMARK    6  A    between atoms: C_6  and  C_9
REMARK    7  A    between atoms: C_12  and  C_15
REMARK    8  A    between atoms: C_13  and  C_16
REMARK    9  A    between atoms: C_14  and  C_18
REMARK                            x       y       z     vdW  Elec       q    Type
REMARK                         _______ _______ _______ _____ _____    ______ ____
ROOT
ATOM      6  C   UNL     1      -2.607   0.445  24.801  0.00  0.00    +0.047 C 
ATOM      7  C   UNL     1      -3.665   0.421  23.681  0.00  0.00    +0.035 C 
ATOM      8  C   UNL     1      -5.024   0.245  24.379  0.00  0.00    +0.078 C 
ATOM     10  C   UNL     1      -3.318  -0.254  25.924  0.00  0.00    -0.021 C 
ATOM     11  C   UNL     1      -4.631  -0.353  25.694  0.00  0.00    -0.012 C 
ENDROOT
BRANCH   6   9
ATOM      4  N   UNL     1       0.790  -0.539  23.845  0.00  0.00    -0.236 N 
ATOM      5  N   UNL     1       0.244  -1.767  23.807  0.00  0.00    -0.171 NA
ATOM      9  C   UNL     1      -1.294  -0.185  24.396  0.00  0.00    +0.003 A 
ATOM     12  C   UNL     1      -0.090   0.443  24.193  0.00  0.00    +0.046 A 
ATOM     13  C   UNL     1      -1.028  -1.544  24.145  0.00  0.00    +0.064 A 
ATOM     15  C   UNL     1       0.287   1.868  24.300  0.00  0.00    +0.066 C 
ATOM     16  C   UNL     1      -1.968  -2.677  24.217  0.00  0.00    +0.068 C 
BRANCH   4  17
ATOM     17  C   UNL     1       2.141  -0.372  23.542  0.00  0.00    +0.066 A 
ATOM     19  C   UNL     1       3.063  -1.354  23.903  0.00  0.00    +0.031 A 
ATOM     20  C   UNL     1       2.571   0.777  22.878  0.00  0.00    +0.031 A 
ATOM     23  C   UNL     1       4.415  -1.188  23.600  0.00  0.00    +0.048 A 
ATOM     24  C   UNL     1       3.922   0.944  22.575  0.00  0.00    +0.048 A 
ATOM     25  C   UNL     1       4.844  -0.038  22.936  0.00  0.00    +0.120 A 
BRANCH  25   2
ATOM      2  O   UNL     1       6.162   0.124  22.641  0.00  0.00    -0.495 OA
ATOM     29  C   UNL     1       7.105  -0.285  23.631  0.00  0.00    +0.277 C 
ENDBRANCH  25   2
ENDBRANCH   4  17
ENDBRANCH   6   9
BRANCH   8   3
ATOM      3  N   UNL     1      -5.716   1.516  24.557  0.00  0.00    -0.306 NA
ATOM     30  H   UNL     1      -5.770   1.735  25.553  0.00  0.00    +0.123 HD
BRANCH   3  14
ATOM     14  C   UNL     1      -5.013   2.595  23.875  0.00  0.00    +0.117 C 
BRANCH  14  18
ATOM      1 CL   UNL     1      -0.575   5.234  24.578  0.00  0.00    -0.084 Cl
ATOM     18  C   UNL     1      -4.089   3.338  24.803  0.00  0.00    -0.032 A 
ATOM     21  C   UNL     1      -2.899   3.880  24.317  0.00  0.00    +0.025 A 
ATOM     22  C   UNL     1      -4.426   3.486  26.149  0.00  0.00    +0.005 A 
ATOM     26  C   UNL     1      -2.044   4.568  25.177  0.00  0.00    +0.041 A 
ATOM     27  C   UNL     1      -3.570   4.174  27.009  0.00  0.00    +0.002 A 
ATOM     28  C   UNL     1      -2.379   4.716  26.523  0.00  0.00    +0.020 A 
ENDBRANCH  14  18
ENDBRANCH   3  14
ENDBRANCH   8   3
TORSDOF 6
ENDMDL
MODEL 2
REMARK VINA RESULT:       0.6      1.991      3.846
REMARK  Name = 40780407
REMARK  9 active torsions:
REMARK  status: ('A' for Active; 'I' for Inactive)
REMARK    1  A    between atoms: O_2  and  C_25
REMARK    2  A    between atoms: O_2  and  C_29
REMARK    3  A    between atoms: N_3  and  C_8
REMARK    4  A    between atoms: N_3  and  C_14
REMARK    5  A    between atoms: N_4  and  C_17
REMARK    6  A    between atoms: C_6  and  C_9
REMARK    7  A    between atoms: C_12  and  C_15
REMARK    8  A    between atoms: C_13  and  C_16
REMARK    9  A    between atoms: C_14  and  C_18
REMARK                            x       y       z     vdW  Elec       q    Type
REMARK                         _______ _______ _______ _____ _____    ______ ____
ROOT
ATOM      6  C   UNL     1      -2.380   1.592  23.751  0.00  0.00    +0.047 C 
ATOM      7  C   UNL     1      -3.088   2.179  24.987  0.00  0.00    +0.035 C 
ATOM      8  C   UNL     1      -4.414   2.773  24.479  0.00  0.00    +0.078 C 
ATOM     10  C   UNL     1      -3.022   2.351  22.627  0.00  0.00    -0.021 C 
ATOM     11  C   UNL     1      -4.130   2.984  23.025  0.00  0.00    -0.012 C 
ENDROOT
BRANCH   6   9
ATOM      4  N   UNL     1       1.274   1.330  23.700  0.00  0.00    -0.236 N 
ATOM      5  N   UNL     1       1.204   2.591  24.161  0.00  0.00    -0.171 NA
ATOM      9  C   UNL     1      -0.874   1.709  23.814  0.00  0.00    +0.003 A 
ATOM     12  C   UNL     1       0.057   0.758  23.476  0.00  0.00    +0.046 A 
ATOM     13  C   UNL     1      -0.110   2.817  24.228  0.00  0.00    +0.064 A 
ATOM     15  C   UNL     1      -0.111  -0.619  22.967  0.00  0.00    +0.066 C 
ATOM     16  C   UNL     1      -0.597   4.125  24.701  0.00  0.00    +0.068 C 
BRANCH   4  17
ATOM     17  C   UNL     1       2.520   0.735  23.497  0.00  0.00    +0.066 A 
ATOM     19  C   UNL     1       2.688  -0.628  23.737  0.00  0.00    +0.031 A 
ATOM     20  C   UNL     1       3.597   1.504  23.056  0.00  0.00    +0.031 A 
ATOM     23  C   UNL     1       3.934  -1.224  23.535  0.00  0.00    +0.048 A 
ATOM     24  C   UNL     1       4.842   0.909  22.853  0.00  0.00    +0.048 A 
ATOM     25  C   UNL     1       5.010  -0.454  23.093  0.00  0.00    +0.120 A 
BRANCH  25   2
ATOM      2  O   UNL     1       6.225  -1.035  22.896  0.00  0.00    -0.495 OA
ATOM     29  C   UNL     1       7.378  -0.229  23.135  0.00  0.00    +0.277 C 
ENDBRANCH  25   2
ENDBRANCH   4  17
ENDBRANCH   6   9
BRANCH   8   3
ATOM      3  N   UNL     1      -5.533   1.860  24.678  0.00  0.00    -0.306 NA
ATOM     30  H   UNL     1      -5.718   1.359  23.808  0.00  0.00    +0.123 HD
BRANCH   3  14
ATOM     14  C   UNL     1      -5.240   0.892  25.727  0.00  0.00    +0.117 C 
BRANCH  14  18
ATOM      1 CL   UNL     1      -0.896  -1.976  25.968  0.00  0.00    -0.084 Cl
ATOM     18  C   UNL     1      -4.432  -0.269  25.210  0.00  0.00    -0.032 A 
ATOM     21  C   UNL     1      -3.184  -0.553  25.765  0.00  0.00    +0.025 A 
ATOM     22  C   UNL     1      -4.934  -1.061  24.178  0.00  0.00    +0.005 A 
ATOM     26  C   UNL     1      -2.437  -1.629  25.286  0.00  0.00    +0.041 A 
ATOM     27  C   UNL     1      -4.187  -2.137  23.699  0.00  0.00    +0.002 A 
ATOM     28  C   UNL     1      -2.938  -2.421  24.254  0.00  0.00    +0.020 A 
ENDBRANCH  14  18
ENDBRANCH   3  14
ENDBRANCH   8   3
TORSDOF 6
ENDMDL
MODEL 3
REMARK VINA RESULT:       3.9      1.539      2.384
REMARK  Name = 40780407
REMARK  9 active torsions:
REMARK  status: ('A' for Active; 'I' for Inactive)
REMARK    1  A    between atoms: O_2  and  C_25
REMARK    2  A    between atoms: O_2  and  C_29
REMARK    3  A    between atoms: N_3  and  C_8
REMARK    4  A    between atoms: N_3  and  C_14
REMARK    5  A    between atoms: N_4  and  C_17
REMARK    6  A    between atoms: C_6  and  C_9
REMARK    7  A    between atoms: C_12  and  C_15
REMARK    8  A    between atoms: C_13  and  C_16
REMARK    9  A    between atoms: C_14  and  C_18
REMARK                            x       y       z     vdW  Elec       q    Type
REMARK                         _______ _______ _______ _____ _____    ______ ____
ROOT
ATOM      6  C   UNL     1      -2.285   0.491  24.760  0.00  0.00    +0.047 C 
ATOM      7  C   UNL     1      -3.023  -0.109  23.548  0.00  0.00    +0.035 C 
ATOM      8  C   UNL     1      -3.967  -1.185  24.112  0.00  0.00    +0.078 C 
ATOM     10  C   UNL     1      -2.415  -0.599  25.783  0.00  0.00    -0.021 C 
ATOM     11  C   UNL     1      -3.335  -1.503  25.431  0.00  0.00    -0.012 C 
ENDROOT
BRANCH   6   9
ATOM      4  N   UNL     1       1.254   0.917  23.912  0.00  0.00    -0.236 N 
ATOM      5  N   UNL     1       0.981   2.213  24.145  0.00  0.00    -0.171 NA
ATOM      9  C   UNL     1      -0.863   0.901  24.450  0.00  0.00    +0.003 A 
ATOM     12  C   UNL     1       0.182   0.091  24.081  0.00  0.00    +0.046 A 
ATOM     13  C   UNL     1      -0.313   2.197  24.472  0.00  0.00    +0.064 A 
ATOM     15  C   UNL     1       0.247  -1.371  23.879  0.00  0.00    +0.066 C 
ATOM     16  C   UNL     1      -0.992   3.462  24.804  0.00  0.00    +0.068 C 
BRANCH   4  17
ATOM     17  C   UNL     1       2.542   0.538  23.536  0.00  0.00    +0.066 A 
ATOM     19  C   UNL     1       3.024  -0.726  23.876  0.00  0.00    +0.031 A 
ATOM     20  C   UNL     1       3.351   1.423  22.822  0.00  0.00    +0.031 A 
ATOM     23  C   UNL     1       4.313  -1.107  23.501  0.00  0.00    +0.048 A 
ATOM     24  C   UNL     1       4.639   1.043  22.447  0.00  0.00    +0.048 A 
ATOM     25  C   UNL     1       5.120  -0.221  22.787  0.00  0.00    +0.120 A 
BRANCH  25   2
ATOM      2  O   UNL     1       6.377  -0.592  22.421  0.00  0.00    -0.495 OA
ATOM     29  C   UNL     1       7.440  -0.255  23.312  0.00  0.00    +0.277 C 
ENDBRANCH  25   2
ENDBRANCH   4  17
ENDBRANCH   6   9
BRANCH   8   3
ATOM      3  N   UNL     1      -5.327  -0.686  24.278  0.00  0.00    -0.306 NA
ATOM     30  H   UNL     1      -5.969  -1.476  24.354  0.00  0.00    +0.123 HD
BRANCH   3  14
ATOM     14  C   UNL     1      -5.441   0.132  25.478  0.00  0.00    +0.117 C 
BRANCH  14  18
ATOM      1 CL   UNL     1      -3.748   3.803  22.190  0.00  0.00    -0.084 Cl
ATOM     18  C   UNL     1      -5.199   1.590  25.188  0.00  0.00    -0.032 A 
ATOM     21  C   UNL     1      -4.651   1.977  23.966  0.00  0.00    +0.025 A 
ATOM     22  C   UNL     1      -5.526   2.553  26.144  0.00  0.00    +0.005 A 
ATOM     26  C   UNL     1      -4.427   3.327  23.698  0.00  0.00    +0.041 A 
ATOM     27  C   UNL     1      -5.302   3.904  25.875  0.00  0.00    +0.002 A 
ATOM     28  C   UNL     1      -4.753   4.291  24.652  0.00  0.00    +0.020 A 
ENDBRANCH  14  18
ENDBRANCH   3  14
ENDBRANCH   8   3
TORSDOF 6
ENDMDL
