MODEL 1
REMARK VINA RESULT:       2.9      0.000      0.000
REMARK  Name = 7049286
REMARK  11 active torsions:
REMARK  status: ('A' for Active; 'I' for Inactive)
REMARK    1  A    between atoms: O_3  and  C_13
REMARK    2  A    between atoms: O_4  and  C_14
REMARK    3  A    between atoms: O_8  and  C_30
REMARK    4  A    between atoms: O_8  and  C_36
REMARK    5  A    between atoms: N_9  and  C_15
REMARK    6  A    between atoms: N_10  and  C_20
REMARK    7  A    between atoms: N_11  and  C_27
REMARK    8  A    between atoms: C_17  and  C_19
REMARK    9  A    between atoms: C_20  and  C_22
REMARK   10  A    between atoms: C_20  and  C_24
REMARK   11  A    between atoms: C_22  and  C_23
REMARK                            x       y       z     vdW  Elec       q    Type
REMARK                         _______ _______ _______ _____ _____    ______ ____
ROOT
ATOM     13  C   UNL     1      -1.707  -2.545  25.094  0.00  0.00    +0.167 C 
ATOM     14  C   UNL     1      -3.039  -2.430  25.847  0.00  0.00    +0.149 C 
ATOM     15  C   UNL     1      -1.811  -1.961  23.672  0.00  0.00    +0.129 C 
ATOM     16  C   UNL     1      -3.550  -0.980  25.901  0.00  0.00    +0.074 C 
ATOM     17  C   UNL     1      -3.312  -0.216  24.630  0.00  0.00    +0.015 C 
ATOM     18  C   UNL     1      -2.542  -0.647  23.620  0.00  0.00    +0.006 C 
ENDROOT
BRANCH  15   9
ATOM      6  O   UNL     1       0.389  -0.460  24.729  0.00  0.00    -0.252 OA
ATOM      9  N   UNL     1      -0.510  -1.795  23.069  0.00  0.00    -0.290 N 
ATOM     11  N   UNL     1       1.655  -1.062  22.846  0.00  0.00    -0.267 N 
ATOM     21  C   UNL     1       0.514  -1.043  23.654  0.00  0.00    +0.304 C 
ATOM     37  H   UNL     1      -0.302  -2.316  22.223  0.00  0.00    +0.151 HD
ATOM     41  H   UNL     1       1.593  -1.594  21.981  0.00  0.00    +0.156 HD
BRANCH  11  27
ATOM      1  F   UNL     1       3.707  -2.369  24.182  0.00  0.00    -0.203 F 
ATOM      2  F   UNL     1       6.502   1.425  23.761  0.00  0.00    -0.205 F 
ATOM     27  C   UNL     1       2.897  -0.427  23.082  0.00  0.00    +0.070 A 
ATOM     31  C   UNL     1       3.896  -1.114  23.751  0.00  0.00    +0.147 A 
ATOM     32  C   UNL     1       3.087   0.870  22.635  0.00  0.00    +0.029 A 
ATOM     33  C   UNL     1       5.120  -0.486  23.982  0.00  0.00    +0.078 A 
ATOM     34  C   UNL     1       4.311   1.499  22.866  0.00  0.00    +0.040 A 
ATOM     35  C   UNL     1       5.327   0.821  23.539  0.00  0.00    +0.126 A 
ENDBRANCH  11  27
ENDBRANCH  15   9
BRANCH  17  19
ATOM      5  O   UNL     1      -4.874   1.432  25.235  0.00  0.00    -0.271 OA
ATOM     10  N   UNL     1      -3.492   1.807  23.395  0.00  0.00    -0.300 N 
ATOM     19  C   UNL     1      -3.979   1.080  24.468  0.00  0.00    +0.241 C 
ATOM     40  H   UNL     1      -2.767   1.401  22.810  0.00  0.00    +0.150 HD
BRANCH  10  20
ATOM     20  C   UNL     1      -3.995   3.113  23.034  0.00  0.00    +0.163 C 
BRANCH  20  24
ATOM      7  O   UNL     1      -4.328   4.104  20.841  0.00  0.00    -0.274 OA
ATOM     12  N   UNL     1      -2.696   2.507  21.088  0.00  0.00    -0.328 N 
ATOM     24  C   UNL     1      -3.726   3.301  21.548  0.00  0.00    +0.231 C 
ATOM     42  H   UNL     1      -2.203   1.851  21.685  0.00  0.00    +0.145 HD
ATOM     43  H   UNL     1      -2.404   2.547  20.117  0.00  0.00    +0.145 HD
ENDBRANCH  20  24
BRANCH  20  22
ATOM     22  C   UNL     1      -3.331   4.233  23.843  0.00  0.00    +0.067 C 
BRANCH  22  23
ATOM     23  C   UNL     1      -2.154   3.749  24.654  0.00  0.00    -0.045 A 
ATOM     25  C   UNL     1      -2.256   3.696  26.035  0.00  0.00    +0.007 A 
ATOM     26  C   UNL     1      -0.991   3.367  24.003  0.00  0.00    +0.007 A 
ATOM     28  C   UNL     1      -1.168   3.249  26.785  0.00  0.00    +0.046 A 
ATOM     29  C   UNL     1       0.096   2.920  24.753  0.00  0.00    +0.046 A 
ATOM     30  C   UNL     1       0.008   2.862  26.144  0.00  0.00    +0.120 A 
BRANCH  30   8
ATOM      8  O   UNL     1       1.069   2.425  26.876  0.00  0.00    -0.495 OA
ATOM     36  C   UNL     1       0.980   2.561  28.293  0.00  0.00    +0.277 C 
ENDBRANCH  30   8
ENDBRANCH  22  23
ENDBRANCH  20  22
ENDBRANCH  10  20
ENDBRANCH  17  19
BRANCH  13   3
ATOM      3  O   UNL     1      -0.702  -1.842  25.829  0.00  0.00    -0.387 OA
ATOM     38  H   UNL     1      -0.664  -0.925  25.512  0.00  0.00    +0.210 HD
ENDBRANCH  13   3
BRANCH  14   4
ATOM      4  O   UNL     1      -4.019  -3.271  25.242  0.00  0.00    -0.389 OA
ATOM     39  H   UNL     1      -3.583  -4.107  25.006  0.00  0.00    +0.210 HD
ENDBRANCH  14   4
TORSDOF 10
ENDMDL
MODEL 2
REMARK VINA RESULT:       3.1      1.935      2.678
REMARK  Name = 7049286
REMARK  11 active torsions:
REMARK  status: ('A' for Active; 'I' for Inactive)
REMARK    1  A    between atoms: O_3  and  C_13
REMARK    2  A    between atoms: O_4  and  C_14
REMARK    3  A    between atoms: O_8  and  C_30
REMARK    4  A    between atoms: O_8  and  C_36
REMARK    5  A    between atoms: N_9  and  C_15
REMARK    6  A    between atoms: N_10  and  C_20
REMARK    7  A    between atoms: N_11  and  C_27
REMARK    8  A    between atoms: C_17  and  C_19
REMARK    9  A    between atoms: C_20  and  C_22
REMARK   10  A    between atoms: C_20  and  C_24
REMARK   11  A    between atoms: C_22  and  C_23
REMARK                            x       y       z     vdW  Elec       q    Type
REMARK                         _______ _______ _______ _____ _____    ______ ____
ROOT
ATOM     13  C   UNL     1      -1.766  -2.124  24.475  0.00  0.00    +0.167 C 
ATOM     14  C   UNL     1      -3.073  -2.501  25.183  0.00  0.00    +0.149 C 
ATOM     15  C   UNL     1      -1.984  -0.993  23.452  0.00  0.00    +0.129 C 
ATOM     16  C   UNL     1      -3.735  -1.290  25.861  0.00  0.00    +0.074 C 
ATOM     17  C   UNL     1      -3.628  -0.025  25.058  0.00  0.00    +0.015 C 
ATOM     18  C   UNL     1      -2.854   0.119  23.972  0.00  0.00    +0.006 C 
ENDROOT
BRANCH  15   9
ATOM      6  O   UNL     1       0.624  -1.589  24.474  0.00  0.00    -0.252 OA
ATOM      9  N   UNL     1      -0.732  -0.434  23.001  0.00  0.00    -0.290 N 
ATOM     11  N   UNL     1       1.536  -0.085  22.921  0.00  0.00    -0.267 N 
ATOM     21  C   UNL     1       0.504  -0.782  23.556  0.00  0.00    +0.304 C 
ATOM     37  H   UNL     1      -0.742   0.176  22.191  0.00  0.00    +0.151 HD
ATOM     41  H   UNL     1       1.266   0.553  22.176  0.00  0.00    +0.156 HD
BRANCH  11  27
ATOM      1  F   UNL     1       3.166   2.145  22.640  0.00  0.00    -0.203 F 
ATOM      2  F   UNL     1       6.954  -0.362  23.964  0.00  0.00    -0.205 F 
ATOM     27  C   UNL     1       2.923  -0.153  23.187  0.00  0.00    +0.070 A 
ATOM     31  C   UNL     1       3.703   0.982  23.036  0.00  0.00    +0.147 A 
ATOM     32  C   UNL     1       3.474  -1.357  23.596  0.00  0.00    +0.029 A 
ATOM     33  C   UNL     1       5.071   0.912  23.300  0.00  0.00    +0.078 A 
ATOM     34  C   UNL     1       4.842  -1.428  23.860  0.00  0.00    +0.040 A 
ATOM     35  C   UNL     1       5.640  -0.293  23.711  0.00  0.00    +0.126 A 
ENDBRANCH  11  27
ENDBRANCH  15   9
BRANCH  17  19
ATOM      5  O   UNL     1      -5.665   1.092  25.414  0.00  0.00    -0.271 OA
ATOM     10  N   UNL     1      -3.671   2.194  25.908  0.00  0.00    -0.300 N 
ATOM     19  C   UNL     1      -4.437   1.126  25.472  0.00  0.00    +0.241 C 
ATOM     40  H   UNL     1      -2.658   2.119  25.885  0.00  0.00    +0.150 HD
BRANCH  10  20
ATOM     20  C   UNL     1      -4.243   3.440  26.365  0.00  0.00    +0.163 C 
BRANCH  20  24
ATOM      7  O   UNL     1      -4.783   4.029  24.070  0.00  0.00    -0.274 OA
ATOM     12  N   UNL     1      -6.396   4.300  25.683  0.00  0.00    -0.328 N 
ATOM     24  C   UNL     1      -5.133   3.960  25.245  0.00  0.00    +0.231 C 
ATOM     42  H   UNL     1      -6.673   4.234  26.657  0.00  0.00    +0.145 HD
ATOM     43  H   UNL     1      -7.095   4.647  25.034  0.00  0.00    +0.145 HD
ENDBRANCH  20  24
BRANCH  20  22
ATOM     22  C   UNL     1      -3.169   4.475  26.718  0.00  0.00    +0.067 C 
BRANCH  22  23
ATOM     23  C   UNL     1      -2.056   4.534  25.700  0.00  0.00    -0.045 A 
ATOM     25  C   UNL     1      -1.327   3.388  25.425  0.00  0.00    +0.007 A 
ATOM     26  C   UNL     1      -1.784   5.732  25.060  0.00  0.00    +0.007 A 
ATOM     28  C   UNL     1      -0.298   3.442  24.485  0.00  0.00    +0.046 A 
ATOM     29  C   UNL     1      -0.755   5.786  24.120  0.00  0.00    +0.046 A 
ATOM     30  C   UNL     1      -0.011   4.641  23.833  0.00  0.00    +0.120 A 
BRANCH  30   8
ATOM      8  O   UNL     1       0.992   4.692  22.914  0.00  0.00    -0.495 OA
ATOM     36  C   UNL     1       0.967   5.775  21.986  0.00  0.00    +0.277 C 
ENDBRANCH  30   8
ENDBRANCH  22  23
ENDBRANCH  20  22
ENDBRANCH  10  20
ENDBRANCH  17  19
BRANCH  13   3
ATOM      3  O   UNL     1      -0.815  -1.705  25.458  0.00  0.00    -0.387 OA
ATOM     38  H   UNL     1      -0.045  -1.323  25.007  0.00  0.00    +0.210 HD
ENDBRANCH  13   3
BRANCH  14   4
ATOM      4  O   UNL     1      -3.979  -3.098  24.257  0.00  0.00    -0.389 OA
ATOM     39  H   UNL     1      -4.356  -3.887  24.681  0.00  0.00    +0.210 HD
ENDBRANCH  14   4
TORSDOF 10
ENDMDL
MODEL 3
REMARK VINA RESULT:       3.8      1.491      1.755
REMARK  Name = 7049286
REMARK  11 active torsions:
REMARK  status: ('A' for Active; 'I' for Inactive)
REMARK    1  A    between atoms: O_3  and  C_13
REMARK    2  A    between atoms: O_4  and  C_14
REMARK    3  A    between atoms: O_8  and  C_30
REMARK    4  A    between atoms: O_8  and  C_36
REMARK    5  A    between atoms: N_9  and  C_15
REMARK    6  A    between atoms: N_10  and  C_20
REMARK    7  A    between atoms: N_11  and  C_27
REMARK    8  A    between atoms: C_17  and  C_19
REMARK    9  A    between atoms: C_20  and  C_22
REMARK   10  A    between atoms: C_20  and  C_24
REMARK   11  A    between atoms: C_22  and  C_23
REMARK                            x       y       z     vdW  Elec       q    Type
REMARK                         _______ _______ _______ _____ _____    ______ ____
ROOT
ATOM     13  C   UNL     1      -2.603  -2.384  24.408  0.00  0.00    +0.167 C 
ATOM     14  C   UNL     1      -4.114  -2.370  24.140  0.00  0.00    +0.149 C 
ATOM     15  C   UNL     1      -1.925  -1.108  23.875  0.00  0.00    +0.129 C 
ATOM     16  C   UNL     1      -4.794  -1.121  24.723  0.00  0.00    +0.074 C 
ATOM     17  C   UNL     1      -3.973   0.128  24.578  0.00  0.00    +0.015 C 
ATOM     18  C   UNL     1      -2.689   0.150  24.191  0.00  0.00    +0.006 C 
ENDROOT
BRANCH  15   9
ATOM      6  O   UNL     1       0.454  -0.760  22.318  0.00  0.00    -0.252 OA
ATOM      9  N   UNL     1      -0.577  -0.974  24.375  0.00  0.00    -0.290 N 
ATOM     11  N   UNL     1       1.702  -0.703  24.305  0.00  0.00    -0.267 N 
ATOM     21  C   UNL     1       0.535  -0.805  23.543  0.00  0.00    +0.304 C 
ATOM     37  H   UNL     1      -0.441  -0.916  25.380  0.00  0.00    +0.151 HD
ATOM     41  H   UNL     1       1.595  -0.763  25.315  0.00  0.00    +0.156 HD
BRANCH  11  27
ATOM      1  F   UNL     1       2.501   1.662  23.093  0.00  0.00    -0.203 F 
ATOM      2  F   UNL     1       6.881  -0.026  22.508  0.00  0.00    -0.205 F 
ATOM     27  C   UNL     1       3.027  -0.528  23.844  0.00  0.00    +0.070 A 
ATOM     31  C   UNL     1       3.387   0.668  23.245  0.00  0.00    +0.147 A 
ATOM     32  C   UNL     1       3.940  -1.558  24.003  0.00  0.00    +0.029 A 
ATOM     33  C   UNL     1       4.695   0.839  22.792  0.00  0.00    +0.078 A 
ATOM     34  C   UNL     1       5.248  -1.388  23.550  0.00  0.00    +0.040 A 
ATOM     35  C   UNL     1       5.625  -0.189  22.944  0.00  0.00    +0.126 A 
ENDBRANCH  11  27
ENDBRANCH  15   9
BRANCH  17  19
ATOM      5  O   UNL     1      -5.571   1.492  25.632  0.00  0.00    -0.271 OA
ATOM     10  N   UNL     1      -4.039   2.469  24.170  0.00  0.00    -0.300 N 
ATOM     19  C   UNL     1      -4.617   1.415  24.858  0.00  0.00    +0.241 C 
ATOM     40  H   UNL     1      -3.270   2.282  23.533  0.00  0.00    +0.150 HD
BRANCH  10  20
ATOM     20  C   UNL     1      -4.503   3.833  24.282  0.00  0.00    +0.163 C 
BRANCH  20  24
ATOM      7  O   UNL     1      -4.067   5.739  22.840  0.00  0.00    -0.274 OA
ATOM     12  N   UNL     1      -3.994   3.632  21.928  0.00  0.00    -0.328 N 
ATOM     24  C   UNL     1      -4.185   4.523  22.963  0.00  0.00    +0.231 C 
ATOM     42  H   UNL     1      -4.091   2.629  22.045  0.00  0.00    +0.145 HD
ATOM     43  H   UNL     1      -3.761   3.960  20.997  0.00  0.00    +0.145 HD
ENDBRANCH  20  24
BRANCH  20  22
ATOM     22  C   UNL     1      -3.841   4.576  25.447  0.00  0.00    +0.067 C 
BRANCH  22  23
ATOM     23  C   UNL     1      -2.480   4.023  25.796  0.00  0.00    -0.045 A 
ATOM     25  C   UNL     1      -2.351   3.176  26.885  0.00  0.00    +0.007 A 
ATOM     26  C   UNL     1      -1.386   4.373  25.021  0.00  0.00    +0.007 A 
ATOM     28  C   UNL     1      -1.095   2.664  27.208  0.00  0.00    +0.046 A 
ATOM     29  C   UNL     1      -0.129   3.861  25.344  0.00  0.00    +0.046 A 
ATOM     30  C   UNL     1       0.017   3.008  26.438  0.00  0.00    +0.120 A 
BRANCH  30   8
ATOM      8  O   UNL     1       1.243   2.508  26.753  0.00  0.00    -0.495 OA
ATOM     36  C   UNL     1       1.672   2.645  28.107  0.00  0.00    +0.277 C 
ENDBRANCH  30   8
ENDBRANCH  22  23
ENDBRANCH  20  22
ENDBRANCH  10  20
ENDBRANCH  17  19
BRANCH  13   3
ATOM      3  O   UNL     1      -2.388  -2.489  25.818  0.00  0.00    -0.387 OA
ATOM     38  H   UNL     1      -2.450  -3.424  26.076  0.00  0.00    +0.210 HD
ENDBRANCH  13   3
BRANCH  14   4
ATOM      4  O   UNL     1      -4.364  -2.454  22.738  0.00  0.00    -0.389 OA
ATOM     39  H   UNL     1      -5.320  -2.341  22.603  0.00  0.00    +0.210 HD
ENDBRANCH  14   4
TORSDOF 10
ENDMDL
MODEL 4
REMARK VINA RESULT:       3.9      2.020      2.532
REMARK  Name = 7049286
REMARK  11 active torsions:
REMARK  status: ('A' for Active; 'I' for Inactive)
REMARK    1  A    between atoms: O_3  and  C_13
REMARK    2  A    between atoms: O_4  and  C_14
REMARK    3  A    between atoms: O_8  and  C_30
REMARK    4  A    between atoms: O_8  and  C_36
REMARK    5  A    between atoms: N_9  and  C_15
REMARK    6  A    between atoms: N_10  and  C_20
REMARK    7  A    between atoms: N_11  and  C_27
REMARK    8  A    between atoms: C_17  and  C_19
REMARK    9  A    between atoms: C_20  and  C_22
REMARK   10  A    between atoms: C_20  and  C_24
REMARK   11  A    between atoms: C_22  and  C_23
REMARK                            x       y       z     vdW  Elec       q    Type
REMARK                         _______ _______ _______ _____ _____    ______ ____
ROOT
ATOM     13  C   UNL     1      -2.570  -2.385  24.235  0.00  0.00    +0.167 C 
ATOM     14  C   UNL     1      -4.086  -2.422  24.001  0.00  0.00    +0.149 C 
ATOM     15  C   UNL     1      -1.972  -1.020  23.843  0.00  0.00    +0.129 C 
ATOM     16  C   UNL     1      -4.814  -1.288  24.741  0.00  0.00    +0.074 C 
ATOM     17  C   UNL     1      -4.062   0.012  24.729  0.00  0.00    +0.015 C 
ATOM     18  C   UNL     1      -2.791   0.148  24.322  0.00  0.00    +0.006 C 
ENDROOT
BRANCH  15   9
ATOM      6  O   UNL     1       0.394  -0.712  22.258  0.00  0.00    -0.252 OA
ATOM      9  N   UNL     1      -0.621  -0.873  24.329  0.00  0.00    -0.290 N 
ATOM     11  N   UNL     1       1.658  -0.604  24.232  0.00  0.00    -0.267 N 
ATOM     21  C   UNL     1       0.484  -0.725  23.483  0.00  0.00    +0.304 C 
ATOM     37  H   UNL     1      -0.476  -0.790  25.330  0.00  0.00    +0.151 HD
ATOM     41  H   UNL     1       1.559  -0.638  25.244  0.00  0.00    +0.156 HD
BRANCH  11  27
ATOM      1  F   UNL     1       3.580  -2.567  24.621  0.00  0.00    -0.203 F 
ATOM      2  F   UNL     1       6.817   0.046  22.368  0.00  0.00    -0.205 F 
ATOM     27  C   UNL     1       2.979  -0.439  23.756  0.00  0.00    +0.070 A 
ATOM     31  C   UNL     1       3.910  -1.443  23.969  0.00  0.00    +0.147 A 
ATOM     32  C   UNL     1       3.315   0.724  23.083  0.00  0.00    +0.029 A 
ATOM     33  C   UNL     1       5.212  -1.279  23.498  0.00  0.00    +0.078 A 
ATOM     34  C   UNL     1       4.618   0.889  22.612  0.00  0.00    +0.040 A 
ATOM     35  C   UNL     1       5.566  -0.113  22.820  0.00  0.00    +0.126 A 
ENDBRANCH  11  27
ENDBRANCH  15   9
BRANCH  17  19
ATOM      5  O   UNL     1      -5.972   1.358  24.981  0.00  0.00    -0.271 OA
ATOM     10  N   UNL     1      -3.929   2.132  25.796  0.00  0.00    -0.300 N 
ATOM     19  C   UNL     1      -4.764   1.221  25.172  0.00  0.00    +0.241 C 
ATOM     40  H   UNL     1      -2.937   1.923  25.873  0.00  0.00    +0.150 HD
BRANCH  10  20
ATOM     20  C   UNL     1      -4.391   3.399  26.316  0.00  0.00    +0.163 C 
BRANCH  20  24
ATOM      7  O   UNL     1      -4.763   4.212  24.057  0.00  0.00    -0.274 OA
ATOM     12  N   UNL     1      -6.432   4.483  25.611  0.00  0.00    -0.328 N 
ATOM     24  C   UNL     1      -5.178   4.078  25.205  0.00  0.00    +0.231 C 
ATOM     42  H   UNL     1      -6.765   4.362  26.561  0.00  0.00    +0.145 HD
ATOM     43  H   UNL     1      -7.067   4.937  24.962  0.00  0.00    +0.145 HD
ENDBRANCH  20  24
BRANCH  20  22
ATOM     22  C   UNL     1      -3.235   4.293  26.776  0.00  0.00    +0.067 C 
BRANCH  22  23
ATOM     23  C   UNL     1      -2.111   4.359  25.770  0.00  0.00    -0.045 A 
ATOM     25  C   UNL     1      -1.785   5.577  25.195  0.00  0.00    +0.007 A 
ATOM     26  C   UNL     1      -1.427   3.200  25.439  0.00  0.00    +0.007 A 
ATOM     28  C   UNL     1      -0.747   5.639  24.266  0.00  0.00    +0.046 A 
ATOM     29  C   UNL     1      -0.389   3.262  24.509  0.00  0.00    +0.046 A 
ATOM     30  C   UNL     1      -0.049   4.481  23.922  0.00  0.00    +0.120 A 
BRANCH  30   8
ATOM      8  O   UNL     1       0.965   4.541  23.016  0.00  0.00    -0.495 OA
ATOM     36  C   UNL     1       0.933   5.615  22.077  0.00  0.00    +0.277 C 
ENDBRANCH  30   8
ENDBRANCH  22  23
ENDBRANCH  20  22
ENDBRANCH  10  20
ENDBRANCH  17  19
BRANCH  13   3
ATOM      3  O   UNL     1      -2.313  -2.642  25.618  0.00  0.00    -0.387 OA
ATOM     38  H   UNL     1      -2.987  -3.256  25.953  0.00  0.00    +0.210 HD
ENDBRANCH  13   3
BRANCH  14   4
ATOM      4  O   UNL     1      -4.368  -2.354  22.604  0.00  0.00    -0.389 OA
ATOM     39  H   UNL     1      -3.723  -2.918  22.146  0.00  0.00    +0.210 HD
ENDBRANCH  14   4
TORSDOF 10
ENDMDL
MODEL 5
REMARK VINA RESULT:       5.9      2.086      3.499
REMARK  Name = 7049286
REMARK  11 active torsions:
REMARK  status: ('A' for Active; 'I' for Inactive)
REMARK    1  A    between atoms: O_3  and  C_13
REMARK    2  A    between atoms: O_4  and  C_14
REMARK    3  A    between atoms: O_8  and  C_30
REMARK    4  A    between atoms: O_8  and  C_36
REMARK    5  A    between atoms: N_9  and  C_15
REMARK    6  A    between atoms: N_10  and  C_20
REMARK    7  A    between atoms: N_11  and  C_27
REMARK    8  A    between atoms: C_17  and  C_19
REMARK    9  A    between atoms: C_20  and  C_22
REMARK   10  A    between atoms: C_20  and  C_24
REMARK   11  A    between atoms: C_22  and  C_23
REMARK                            x       y       z     vdW  Elec       q    Type
REMARK                         _______ _______ _______ _____ _____    ______ ____
ROOT
ATOM     13  C   UNL     1      -1.846  -1.941  25.154  0.00  0.00    +0.167 C 
ATOM     14  C   UNL     1      -3.236  -1.347  25.421  0.00  0.00    +0.149 C 
ATOM     15  C   UNL     1      -1.373  -1.645  23.719  0.00  0.00    +0.129 C 
ATOM     16  C   UNL     1      -3.281   0.165  25.144  0.00  0.00    +0.074 C 
ATOM     17  C   UNL     1      -2.483   0.576  23.940  0.00  0.00    +0.015 C 
ATOM     18  C   UNL     1      -1.631  -0.227  23.287  0.00  0.00    +0.006 C 
ENDROOT
BRANCH  15   9
ATOM      6  O   UNL     1       0.800   0.205  23.961  0.00  0.00    -0.252 OA
ATOM      9  N   UNL     1       0.031  -1.936  23.552  0.00  0.00    -0.290 N 
ATOM     11  N   UNL     1       2.292  -1.540  23.472  0.00  0.00    -0.267 N 
ATOM     21  C   UNL     1       1.034  -0.970  23.689  0.00  0.00    +0.304 C 
ATOM     37  H   UNL     1       0.309  -2.902  23.409  0.00  0.00    +0.151 HD
ATOM     41  H   UNL     1       2.312  -2.533  23.252  0.00  0.00    +0.156 HD
BRANCH  11  27
ATOM      1  F   UNL     1       2.689   0.948  22.306  0.00  0.00    -0.203 F 
ATOM      2  F   UNL     1       7.224   0.942  23.655  0.00  0.00    -0.205 F 
ATOM     27  C   UNL     1       3.554  -0.903  23.518  0.00  0.00    +0.070 A 
ATOM     31  C   UNL     1       3.711   0.339  22.925  0.00  0.00    +0.147 A 
ATOM     32  C   UNL     1       4.607  -1.536  24.157  0.00  0.00    +0.029 A 
ATOM     33  C   UNL     1       4.956   0.966  22.971  0.00  0.00    +0.078 A 
ATOM     34  C   UNL     1       5.853  -0.909  24.204  0.00  0.00    +0.040 A 
ATOM     35  C   UNL     1       6.027   0.341  23.611  0.00  0.00    +0.126 A 
ENDBRANCH  11  27
ENDBRANCH  15   9
BRANCH  17  19
ATOM      5  O   UNL     1      -3.176   2.141  22.330  0.00  0.00    -0.271 OA
ATOM     10  N   UNL     1      -2.185   2.907  24.297  0.00  0.00    -0.300 N 
ATOM     19  C   UNL     1      -2.658   1.939  23.427  0.00  0.00    +0.241 C 
ATOM     40  H   UNL     1      -1.748   2.619  25.168  0.00  0.00    +0.150 HD
BRANCH  10  20
ATOM     20  C   UNL     1      -2.246   4.322  24.010  0.00  0.00    +0.163 C 
BRANCH  20  24
ATOM      7  O   UNL     1      -1.060   6.213  24.970  0.00  0.00    -0.274 OA
ATOM     12  N   UNL     1      -0.366   4.091  25.511  0.00  0.00    -0.328 N 
ATOM     24  C   UNL     1      -1.172   4.995  24.852  0.00  0.00    +0.231 C 
ATOM     42  H   UNL     1      -0.473   3.087  25.408  0.00  0.00    +0.145 HD
ATOM     43  H   UNL     1       0.381   4.408  26.120  0.00  0.00    +0.145 HD
ENDBRANCH  20  24
BRANCH  20  22
ATOM     22  C   UNL     1      -3.622   4.918  24.323  0.00  0.00    +0.067 C 
BRANCH  22  23
ATOM     23  C   UNL     1      -4.558   3.923  24.965  0.00  0.00    -0.045 A 
ATOM     25  C   UNL     1      -5.380   3.148  24.162  0.00  0.00    +0.007 A 
ATOM     26  C   UNL     1      -4.579   3.803  26.346  0.00  0.00    +0.007 A 
ATOM     28  C   UNL     1      -6.245   2.228  24.755  0.00  0.00    +0.046 A 
ATOM     29  C   UNL     1      -5.444   2.882  26.938  0.00  0.00    +0.046 A 
ATOM     30  C   UNL     1      -6.278   2.096  26.143  0.00  0.00    +0.120 A 
BRANCH  30   8
ATOM      8  O   UNL     1      -7.121   1.198  26.721  0.00  0.00    -0.495 OA
ATOM     36  C   UNL     1      -6.967   0.970  28.121  0.00  0.00    +0.277 C 
ENDBRANCH  30   8
ENDBRANCH  22  23
ENDBRANCH  20  22
ENDBRANCH  10  20
ENDBRANCH  17  19
BRANCH  13   3
ATOM      3  O   UNL     1      -0.921  -1.382  26.090  0.00  0.00    -0.387 OA
ATOM     38  H   UNL     1      -0.128  -1.942  26.121  0.00  0.00    +0.210 HD
ENDBRANCH  13   3
BRANCH  14   4
ATOM      4  O   UNL     1      -4.216  -2.018  24.632  0.00  0.00    -0.389 OA
ATOM     39  H   UNL     1      -5.050  -1.526  24.719  0.00  0.00    +0.210 HD
ENDBRANCH  14   4
TORSDOF 10
ENDMDL
MODEL 6
REMARK VINA RESULT:       6.1      2.146      4.881
REMARK  Name = 7049286
REMARK  11 active torsions:
REMARK  status: ('A' for Active; 'I' for Inactive)
REMARK    1  A    between atoms: O_3  and  C_13
REMARK    2  A    between atoms: O_4  and  C_14
REMARK    3  A    between atoms: O_8  and  C_30
REMARK    4  A    between atoms: O_8  and  C_36
REMARK    5  A    between atoms: N_9  and  C_15
REMARK    6  A    between atoms: N_10  and  C_20
REMARK    7  A    between atoms: N_11  and  C_27
REMARK    8  A    between atoms: C_17  and  C_19
REMARK    9  A    between atoms: C_20  and  C_22
REMARK   10  A    between atoms: C_20  and  C_24
REMARK   11  A    between atoms: C_22  and  C_23
REMARK                            x       y       z     vdW  Elec       q    Type
REMARK                         _______ _______ _______ _____ _____    ______ ____
ROOT
ATOM     13  C   UNL     1      -0.461   5.269  24.199  0.00  0.00    +0.167 C 
ATOM     14  C   UNL     1      -1.734   5.922  24.751  0.00  0.00    +0.149 C 
ATOM     15  C   UNL     1      -0.450   3.750  24.455  0.00  0.00    +0.129 C 
ATOM     16  C   UNL     1      -3.009   5.276  24.183  0.00  0.00    +0.074 C 
ATOM     17  C   UNL     1      -2.907   3.785  24.035  0.00  0.00    +0.015 C 
ATOM     18  C   UNL     1      -1.769   3.088  24.162  0.00  0.00    +0.006 C 
ENDROOT
BRANCH  15   9
ATOM      6  O   UNL     1       1.215   1.592  25.337  0.00  0.00    -0.252 OA
ATOM      9  N   UNL     1       0.583   3.089  23.693  0.00  0.00    -0.290 N 
ATOM     11  N   UNL     1       2.270   1.599  23.240  0.00  0.00    -0.267 N 
ATOM     21  C   UNL     1       1.354   2.038  24.200  0.00  0.00    +0.304 C 
ATOM     37  H   UNL     1       0.699   3.345  22.718  0.00  0.00    +0.151 HD
ATOM     41  H   UNL     1       2.257   2.079  22.343  0.00  0.00    +0.156 HD
BRANCH  11  27
ATOM      1  F   UNL     1       1.498  -1.067  23.288  0.00  0.00    -0.203 F 
ATOM      2  F   UNL     1       6.003  -2.446  23.710  0.00  0.00    -0.205 F 
ATOM     27  C   UNL     1       3.224   0.562  23.360  0.00  0.00    +0.070 A 
ATOM     31  C   UNL     1       2.798  -0.757  23.379  0.00  0.00    +0.147 A 
ATOM     32  C   UNL     1       4.567   0.887  23.456  0.00  0.00    +0.029 A 
ATOM     33  C   UNL     1       3.741  -1.777  23.498  0.00  0.00    +0.078 A 
ATOM     34  C   UNL     1       5.510  -0.133  23.574  0.00  0.00    +0.040 A 
ATOM     35  C   UNL     1       5.097  -1.465  23.595  0.00  0.00    +0.126 A 
ENDBRANCH  11  27
ENDBRANCH  15   9
BRANCH  17  19
ATOM      5  O   UNL     1      -4.600   2.987  22.614  0.00  0.00    -0.271 OA
ATOM     10  N   UNL     1      -4.665   2.424  24.876  0.00  0.00    -0.300 N 
ATOM     19  C   UNL     1      -4.134   3.034  23.752  0.00  0.00    +0.241 C 
ATOM     40  H   UNL     1      -4.207   2.556  25.773  0.00  0.00    +0.150 HD
BRANCH  10  20
ATOM     20  C   UNL     1      -5.872   1.631  24.847  0.00  0.00    +0.163 C 
BRANCH  20  24
ATOM      7  O   UNL     1      -7.147   0.827  26.753  0.00  0.00    -0.274 OA
ATOM     12  N   UNL     1      -6.248   2.939  26.844  0.00  0.00    -0.328 N 
ATOM     24  C   UNL     1      -6.508   1.734  26.225  0.00  0.00    +0.231 C 
ATOM     42  H   UNL     1      -5.715   3.678  26.398  0.00  0.00    +0.145 HD
ATOM     43  H   UNL     1      -6.601   3.131  27.775  0.00  0.00    +0.145 HD
ENDBRANCH  20  24
BRANCH  20  22
ATOM     22  C   UNL     1      -5.594   0.165  24.495  0.00  0.00    +0.067 C 
BRANCH  22  23
ATOM     23  C   UNL     1      -4.163  -0.237  24.756  0.00  0.00    -0.045 A 
ATOM     25  C   UNL     1      -3.227  -0.110  23.743  0.00  0.00    +0.007 A 
ATOM     26  C   UNL     1      -3.812  -0.727  26.004  0.00  0.00    +0.007 A 
ATOM     28  C   UNL     1      -1.904  -0.482  23.983  0.00  0.00    +0.046 A 
ATOM     29  C   UNL     1      -2.489  -1.099  26.245  0.00  0.00    +0.046 A 
ATOM     30  C   UNL     1      -1.535  -0.977  25.234  0.00  0.00    +0.120 A 
BRANCH  30   8
ATOM      8  O   UNL     1      -0.244  -1.339  25.469  0.00  0.00    -0.495 OA
ATOM     36  C   UNL     1       0.038  -2.736  25.526  0.00  0.00    +0.277 C 
ENDBRANCH  30   8
ENDBRANCH  22  23
ENDBRANCH  20  22
ENDBRANCH  10  20
ENDBRANCH  17  19
BRANCH  13   3
ATOM      3  O   UNL     1      -0.388   5.519  22.794  0.00  0.00    -0.387 OA
ATOM     38  H   UNL     1       0.490   5.254  22.472  0.00  0.00    +0.210 HD
ENDBRANCH  13   3
BRANCH  14   4
ATOM      4  O   UNL     1      -1.744   5.852  26.176  0.00  0.00    -0.389 OA
ATOM     39  H   UNL     1      -2.628   6.122  26.477  0.00  0.00    +0.210 HD
ENDBRANCH  14   4
TORSDOF 10
ENDMDL
