MODEL 1
REMARK VINA RESULT:       1.3      0.000      0.000
REMARK  Name = 71694323
REMARK  8 active torsions:
REMARK  status: ('A' for Active; 'I' for Inactive)
REMARK    1  A    between atoms: O_6  and  C_27
REMARK    2  A    between atoms: O_6  and  C_28
REMARK    3  A    between atoms: C_10  and  C_16
REMARK    4  A    between atoms: C_11  and  C_14
REMARK    5  A    between atoms: C_11  and  C_17
REMARK    6  A    between atoms: C_11  and  C_18
REMARK    7  A    between atoms: C_11  and  C_19
REMARK    8  A    between atoms: C_20  and  C_22
REMARK                            x       y       z     vdW  Elec       q    Type
REMARK                         _______ _______ _______ _____ _____    ______ ____
ROOT
ATOM      8  N   UNL     1      -0.747   0.426  24.710  0.00  0.00    -0.340 N 
ATOM      9  N   UNL     1      -2.225  -1.148  24.189  0.00  0.00    -0.238 NA
ATOM     16  C   UNL     1      -2.034  -0.020  24.836  0.00  0.00    +0.130 A 
ATOM     20  C   UNL     1      -0.075  -0.476  23.935  0.00  0.00    +0.066 A 
ATOM     21  C   UNL     1      -1.008  -1.438  23.625  0.00  0.00    +0.139 A 
ATOM     29  H   UNL     1      -0.371   1.273  25.116  0.00  0.00    +0.167 HD
ENDROOT
BRANCH  16  10
ATOM      4  O   UNL     1      -5.236   0.305  24.562  0.00  0.00    -0.376 OA
ATOM      5  O   UNL     1      -1.571   2.932  26.674  0.00  0.00    -0.275 OA
ATOM      7  N   UNL     1      -3.181   2.155  25.185  0.00  0.00    -0.287 N 
ATOM     10  C   UNL     1      -3.067   0.756  25.646  0.00  0.00    +0.167 C 
ATOM     12  C   UNL     1      -4.110   2.387  24.072  0.00  0.00    +0.136 C 
ATOM     13  C   UNL     1      -4.451   0.088  25.735  0.00  0.00    +0.190 C 
ATOM     14  C   UNL     1      -2.350   3.134  25.738  0.00  0.00    +0.222 C 
ATOM     15  C   UNL     1      -5.439   1.697  24.327  0.00  0.00    +0.179 C 
BRANCH  14  11
ATOM     11  C   UNL     1      -2.436   4.513  25.136  0.00  0.00    +0.039 C 
ATOM     17  C   UNL     1      -3.232   5.397  26.097  0.00  0.00    +0.020 C 
ATOM     18  C   UNL     1      -1.018   5.061  24.954  0.00  0.00    +0.020 C 
ATOM     19  C   UNL     1      -3.145   4.417  23.784  0.00  0.00    +0.020 C 
ENDBRANCH  14  11
ENDBRANCH  16  10
BRANCH  20  22
ATOM     22  C   UNL     1       1.313  -0.339  23.581  0.00  0.00    +0.000 A 
ATOM     23  C   UNL     1       1.786   0.867  23.065  0.00  0.00    +0.013 A 
ATOM     24  C   UNL     1       2.186  -1.412  23.757  0.00  0.00    +0.013 A 
ATOM     25  C   UNL     1       3.132   0.999  22.722  0.00  0.00    +0.046 A 
ATOM     26  C   UNL     1       3.532  -1.281  23.415  0.00  0.00    +0.046 A 
ATOM     27  C   UNL     1       4.005  -0.075  22.898  0.00  0.00    +0.130 A 
BRANCH  27   6
ATOM      6  O   UNL     1       5.319   0.055  22.567  0.00  0.00    -0.406 OA
BRANCH   6  28
ATOM      1  F   UNL     1       7.532  -0.035  23.139  0.00  0.00    -0.133 F 
ATOM      2  F   UNL     1       6.194   1.304  24.231  0.00  0.00    -0.133 F 
ATOM      3  F   UNL     1       6.032  -0.853  24.542  0.00  0.00    -0.133 F 
ATOM     28  C   UNL     1       6.276   0.101  23.619  0.00  0.00    +0.575 C 
ENDBRANCH   6  28
ENDBRANCH  27   6
ENDBRANCH  20  22
TORSDOF 5
ENDMDL
MODEL 2
REMARK VINA RESULT:       1.7      1.795      3.770
REMARK  Name = 71694323
REMARK  8 active torsions:
REMARK  status: ('A' for Active; 'I' for Inactive)
REMARK    1  A    between atoms: O_6  and  C_27
REMARK    2  A    between atoms: O_6  and  C_28
REMARK    3  A    between atoms: C_10  and  C_16
REMARK    4  A    between atoms: C_11  and  C_14
REMARK    5  A    between atoms: C_11  and  C_17
REMARK    6  A    between atoms: C_11  and  C_18
REMARK    7  A    between atoms: C_11  and  C_19
REMARK    8  A    between atoms: C_20  and  C_22
REMARK                            x       y       z     vdW  Elec       q    Type
REMARK                         _______ _______ _______ _____ _____    ______ ____
ROOT
ATOM      8  N   UNL     1      -1.247   1.381  23.453  0.00  0.00    -0.340 N 
ATOM      9  N   UNL     1      -1.837   3.290  24.424  0.00  0.00    -0.238 NA
ATOM     16  C   UNL     1      -2.275   2.172  23.890  0.00  0.00    +0.130 A 
ATOM     20  C   UNL     1      -0.081   2.039  23.726  0.00  0.00    +0.066 A 
ATOM     21  C   UNL     1      -0.471   3.214  24.325  0.00  0.00    +0.139 A 
ATOM     29  H   UNL     1      -1.341   0.475  23.015  0.00  0.00    +0.167 HD
ENDROOT
BRANCH  16  10
ATOM      4  O   UNL     1      -4.922   2.742  25.650  0.00  0.00    -0.376 OA
ATOM      5  O   UNL     1      -3.519  -0.740  22.379  0.00  0.00    -0.275 OA
ATOM      7  N   UNL     1      -3.966   0.412  24.351  0.00  0.00    -0.287 N 
ATOM     10  C   UNL     1      -3.728   1.737  23.741  0.00  0.00    +0.167 C 
ATOM     12  C   UNL     1      -4.278   0.416  25.786  0.00  0.00    +0.136 C 
ATOM     13  C   UNL     1      -4.763   2.766  24.231  0.00  0.00    +0.190 C 
ATOM     14  C   UNL     1      -3.781  -0.743  23.585  0.00  0.00    +0.222 C 
ATOM     15  C   UNL     1      -5.340   1.456  26.102  0.00  0.00    +0.179 C 
BRANCH  14  11
ATOM     11  C   UNL     1      -3.923  -2.061  24.305  0.00  0.00    +0.039 C 
ATOM     17  C   UNL     1      -2.739  -2.942  23.906  0.00  0.00    +0.020 C 
ATOM     18  C   UNL     1      -3.913  -1.801  25.813  0.00  0.00    +0.020 C 
ATOM     19  C   UNL     1      -5.241  -2.712  23.886  0.00  0.00    +0.020 C 
ENDBRANCH  14  11
ENDBRANCH  16  10
BRANCH  20  22
ATOM     22  C   UNL     1       1.219   1.511  23.409  0.00  0.00    +0.000 A 
ATOM     23  C   UNL     1       2.299   2.375  23.229  0.00  0.00    +0.013 A 
ATOM     24  C   UNL     1       1.400   0.133  23.282  0.00  0.00    +0.013 A 
ATOM     25  C   UNL     1       3.559   1.862  22.921  0.00  0.00    +0.046 A 
ATOM     26  C   UNL     1       2.660  -0.380  22.975  0.00  0.00    +0.046 A 
ATOM     27  C   UNL     1       3.740   0.485  22.794  0.00  0.00    +0.130 A 
BRANCH  27   6
ATOM      6  O   UNL     1       4.970  -0.016  22.498  0.00  0.00    -0.406 OA
BRANCH   6  28
ATOM      1  F   UNL     1       7.125  -0.378  23.177  0.00  0.00    -0.133 F 
ATOM      2  F   UNL     1       5.712   0.569  24.548  0.00  0.00    -0.133 F 
ATOM      3  F   UNL     1       5.501  -1.560  24.100  0.00  0.00    -0.133 F 
ATOM     28  C   UNL     1       5.834  -0.362  23.575  0.00  0.00    +0.575 C 
ENDBRANCH   6  28
ENDBRANCH  27   6
ENDBRANCH  20  22
TORSDOF 5
ENDMDL
