MODEL 1
REMARK VINA RESULT:      -1.4      0.000      0.000
REMARK  Name = 11879582
REMARK  9 active torsions:
REMARK  status: ('A' for Active; 'I' for Inactive)
REMARK    1  A    between atoms: S_1  and  N_8
REMARK    2  A    between atoms: S_1  and  C_21
REMARK    3  A    between atoms: O_5  and  C_20
REMARK    4  A    between atoms: O_5  and  C_23
REMARK    5  A    between atoms: N_8  and  C_16
REMARK    6  A    between atoms: N_9  and  C_17
REMARK    7  A    between atoms: N_13  and  C_28
REMARK    8  A    between atoms: N_13  and  C_31
REMARK    9  A    between atoms: N_13  and  C_32
REMARK                            x       y       z     vdW  Elec       q    Type
REMARK                         _______ _______ _______ _____ _____    ______ ____
ROOT
ATOM      3  O   UNL     1      -0.759   4.091  23.666  0.00  0.00    -0.370 OA
ATOM      4  O   UNL     1      -0.959   2.092  26.102  0.00  0.00    -0.370 OA
ATOM     14  C   UNL     1      -0.992   1.946  24.674  0.00  0.00    +0.170 C 
ATOM     15  C   UNL     1      -1.742   3.137  24.106  0.00  0.00    +0.175 C 
ATOM     16  C   UNL     1       0.401   2.075  24.105  0.00  0.00    +0.133 C 
ATOM     17  C   UNL     1      -2.518   3.701  25.281  0.00  0.00    +0.171 C 
ATOM     18  C   UNL     1       0.553   3.570  23.918  0.00  0.00    +0.183 C 
ATOM     19  C   UNL     1      -1.683   3.270  26.482  0.00  0.00    +0.190 C 
ENDROOT
BRANCH  17   9
ATOM      9  N   UNL     1      -3.912   3.253  25.302  0.00  0.00    -0.187 N 
ATOM     10  N   UNL     1      -4.818   3.865  26.070  0.00  0.00    -0.041 NA
ATOM     11  N   UNL     1      -5.758   2.189  24.939  0.00  0.00    -0.071 NA
ATOM     12  N   UNL     1      -5.950   3.209  25.843  0.00  0.00    -0.020 NA
ATOM     20  C   UNL     1      -4.486   2.236  24.617  0.00  0.00    +0.342 A 
BRANCH  20   5
ATOM      5  O   UNL     1      -3.854   1.439  23.774  0.00  0.00    -0.423 OA
BRANCH   5  23
ATOM     23  C   UNL     1      -3.619   0.099  24.048  0.00  0.00    +0.134 A 
ATOM     26  C   UNL     1      -2.500  -0.249  24.780  0.00  0.00    +0.069 A 
ATOM     27  C   UNL     1      -4.509  -0.848  23.580  0.00  0.00    +0.046 A 
ATOM     28  C   UNL     1      -2.262  -1.596  25.055  0.00  0.00    +0.033 A 
ATOM     29  C   UNL     1      -4.272  -2.195  23.855  0.00  0.00    +0.005 A 
ATOM     30  C   UNL     1      -3.149  -2.569  24.592  0.00  0.00    +0.023 A 
BRANCH  28  13
ATOM     13  N   UNL     1      -1.126  -1.974  25.799  0.00  0.00    -0.336 N 
ATOM     31  C   UNL     1      -0.361  -3.148  25.427  0.00  0.00    +0.129 C 
ATOM     32  C   UNL     1      -0.699  -1.185  26.938  0.00  0.00    +0.129 C 
ENDBRANCH  28  13
ENDBRANCH   5  23
ENDBRANCH  20   5
ENDBRANCH  17   9
BRANCH  16   8
ATOM      8  N   UNL     1       0.472   1.397  22.789  0.00  0.00    -0.182 NA
ATOM     33  H   UNL     1      -0.226   1.689  22.094  0.00  0.00    +0.149 HD
BRANCH   8   1
ATOM      1  S   UNL     1       1.125  -0.166  22.679  0.00  0.00    +0.065 S 
ATOM      6  O   UNL     1       0.978  -0.658  21.323  0.00  0.00    -0.153 OA
ATOM      7  O   UNL     1       0.640  -0.954  23.796  0.00  0.00    -0.153 OA
BRANCH   1  21
ATOM      2  S   UNL     1       3.689  -1.187  23.646  0.00  0.00    -0.077 S 
ATOM     21  C   UNL     1       2.843   0.134  22.967  0.00  0.00    +0.142 A 
ATOM     22  C   UNL     1       3.648   1.222  22.756  0.00  0.00    +0.036 A 
ATOM     24  C   UNL     1       4.992   0.972  23.159  0.00  0.00    +0.010 A 
ATOM     25  C   UNL     1       5.153  -0.300  23.662  0.00  0.00    +0.047 A 
ENDBRANCH   1  21
ENDBRANCH   8   1
ENDBRANCH  16   8
TORSDOF 7
ENDMDL
MODEL 2
REMARK VINA RESULT:      -1.3      1.747      3.952
REMARK  Name = 11879582
REMARK  9 active torsions:
REMARK  status: ('A' for Active; 'I' for Inactive)
REMARK    1  A    between atoms: S_1  and  N_8
REMARK    2  A    between atoms: S_1  and  C_21
REMARK    3  A    between atoms: O_5  and  C_20
REMARK    4  A    between atoms: O_5  and  C_23
REMARK    5  A    between atoms: N_8  and  C_16
REMARK    6  A    between atoms: N_9  and  C_17
REMARK    7  A    between atoms: N_13  and  C_28
REMARK    8  A    between atoms: N_13  and  C_31
REMARK    9  A    between atoms: N_13  and  C_32
REMARK                            x       y       z     vdW  Elec       q    Type
REMARK                         _______ _______ _______ _____ _____    ______ ____
ROOT
ATOM      3  O   UNL     1      -1.303   2.244  23.545  0.00  0.00    -0.370 OA
ATOM      4  O   UNL     1      -0.427   0.427  25.976  0.00  0.00    -0.370 OA
ATOM     14  C   UNL     1      -0.071   0.492  24.586  0.00  0.00    +0.170 C 
ATOM     15  C   UNL     1      -1.326   0.828  23.803  0.00  0.00    +0.175 C 
ATOM     16  C   UNL     1       0.851   1.662  24.339  0.00  0.00    +0.133 C 
ATOM     17  C   UNL     1      -2.469   0.494  24.743  0.00  0.00    +0.171 C 
ATOM     18  C   UNL     1      -0.112   2.809  24.112  0.00  0.00    +0.183 C 
ATOM     19  C   UNL     1      -1.836   0.650  26.122  0.00  0.00    +0.190 C 
ENDROOT
BRANCH  17   9
ATOM      9  N   UNL     1      -3.052  -0.822  24.473  0.00  0.00    -0.187 N 
ATOM     10  N   UNL     1      -2.303  -1.927  24.524  0.00  0.00    -0.041 NA
ATOM     11  N   UNL     1      -4.409  -2.435  23.996  0.00  0.00    -0.071 NA
ATOM     12  N   UNL     1      -3.140  -2.916  24.231  0.00  0.00    -0.020 NA
ATOM     20  C   UNL     1      -4.329  -1.134  24.153  0.00  0.00    +0.342 A 
BRANCH  20   5
ATOM      5  O   UNL     1      -5.313  -0.262  24.023  0.00  0.00    -0.423 OA
BRANCH   5  23
ATOM     23  C   UNL     1      -5.347   0.935  24.726  0.00  0.00    +0.134 A 
ATOM     26  C   UNL     1      -4.486   1.952  24.360  0.00  0.00    +0.069 A 
ATOM     27  C   UNL     1      -6.239   1.073  25.771  0.00  0.00    +0.046 A 
ATOM     28  C   UNL     1      -4.519   3.155  25.066  0.00  0.00    +0.033 A 
ATOM     29  C   UNL     1      -6.273   2.276  26.478  0.00  0.00    +0.005 A 
ATOM     30  C   UNL     1      -5.413   3.316  26.126  0.00  0.00    +0.023 A 
BRANCH  28  13
ATOM     13  N   UNL     1      -3.650   4.205  24.711  0.00  0.00    -0.336 N 
ATOM     31  C   UNL     1      -3.754   4.838  23.411  0.00  0.00    +0.129 C 
ATOM     32  C   UNL     1      -2.648   4.677  25.647  0.00  0.00    +0.129 C 
ENDBRANCH  28  13
ENDBRANCH   5  23
ENDBRANCH  20   5
ENDBRANCH  17   9
BRANCH  16   8
ATOM      8  N   UNL     1       1.645   1.428  23.109  0.00  0.00    -0.182 NA
ATOM     33  H   UNL     1       1.618   2.177  22.407  0.00  0.00    +0.149 HD
BRANCH   8   1
ATOM      1  S   UNL     1       1.952  -0.161  22.594  0.00  0.00    +0.065 S 
ATOM      6  O   UNL     1       1.997  -0.199  21.145  0.00  0.00    -0.153 OA
ATOM      7  O   UNL     1       1.080  -1.064  23.320  0.00  0.00    -0.153 OA
BRANCH   1  21
ATOM      2  S   UNL     1       4.669   0.869  22.927  0.00  0.00    -0.077 S 
ATOM     21  C   UNL     1       3.591  -0.430  23.198  0.00  0.00    +0.142 A 
ATOM     22  C   UNL     1       4.186  -1.481  23.847  0.00  0.00    +0.036 A 
ATOM     24  C   UNL     1       5.557  -1.220  24.131  0.00  0.00    +0.010 A 
ATOM     25  C   UNL     1       5.950   0.023  23.685  0.00  0.00    +0.047 A 
ENDBRANCH   1  21
ENDBRANCH   8   1
ENDBRANCH  16   8
TORSDOF 7
ENDMDL
MODEL 3
REMARK VINA RESULT:      -1.1      2.181      3.498
REMARK  Name = 11879582
REMARK  9 active torsions:
REMARK  status: ('A' for Active; 'I' for Inactive)
REMARK    1  A    between atoms: S_1  and  N_8
REMARK    2  A    between atoms: S_1  and  C_21
REMARK    3  A    between atoms: O_5  and  C_20
REMARK    4  A    between atoms: O_5  and  C_23
REMARK    5  A    between atoms: N_8  and  C_16
REMARK    6  A    between atoms: N_9  and  C_17
REMARK    7  A    between atoms: N_13  and  C_28
REMARK    8  A    between atoms: N_13  and  C_31
REMARK    9  A    between atoms: N_13  and  C_32
REMARK                            x       y       z     vdW  Elec       q    Type
REMARK                         _______ _______ _______ _____ _____    ______ ____
ROOT
ATOM      3  O   UNL     1      -0.648  -0.062  25.210  0.00  0.00    -0.370 OA
ATOM      4  O   UNL     1      -1.264   1.255  22.407  0.00  0.00    -0.370 OA
ATOM     14  C   UNL     1      -0.074   1.050  23.184  0.00  0.00    +0.170 C 
ATOM     15  C   UNL     1      -0.438   1.245  24.644  0.00  0.00    +0.175 C 
ATOM     16  C   UNL     1       0.363  -0.393  23.095  0.00  0.00    +0.133 C 
ATOM     17  C   UNL     1      -1.746   2.011  24.617  0.00  0.00    +0.171 C 
ATOM     18  C   UNL     1      -0.434  -1.057  24.199  0.00  0.00    +0.183 C 
ATOM     19  C   UNL     1      -2.348   1.617  23.273  0.00  0.00    +0.190 C 
ENDROOT
BRANCH  17   9
ATOM      9  N   UNL     1      -1.558   3.450  24.815  0.00  0.00    -0.187 N 
ATOM     10  N   UNL     1      -0.522   4.089  24.263  0.00  0.00    -0.041 NA
ATOM     11  N   UNL     1      -1.782   5.509  25.432  0.00  0.00    -0.071 NA
ATOM     12  N   UNL     1      -0.664   5.353  24.644  0.00  0.00    -0.020 NA
ATOM     20  C   UNL     1      -2.321   4.315  25.524  0.00  0.00    +0.342 A 
BRANCH  20   5
ATOM      5  O   UNL     1      -3.415   3.992  26.188  0.00  0.00    -0.423 OA
BRANCH   5  23
ATOM     23  C   UNL     1      -4.272   2.984  25.770  0.00  0.00    +0.134 A 
ATOM     26  C   UNL     1      -3.792   1.692  25.679  0.00  0.00    +0.069 A 
ATOM     27  C   UNL     1      -5.579   3.302  25.456  0.00  0.00    +0.046 A 
ATOM     28  C   UNL     1      -4.653   0.677  25.258  0.00  0.00    +0.033 A 
ATOM     29  C   UNL     1      -6.440   2.288  25.036  0.00  0.00    +0.005 A 
ATOM     30  C   UNL     1      -5.977   0.976  24.936  0.00  0.00    +0.023 A 
BRANCH  28  13
ATOM     13  N   UNL     1      -4.185  -0.648  25.156  0.00  0.00    -0.336 N 
ATOM     31  C   UNL     1      -4.341  -1.391  23.921  0.00  0.00    +0.129 C 
ATOM     32  C   UNL     1      -3.527  -1.282  26.282  0.00  0.00    +0.129 C 
ENDBRANCH  28  13
ENDBRANCH   5  23
ENDBRANCH  20   5
ENDBRANCH  17   9
BRANCH  16   8
ATOM      8  N   UNL     1       1.812  -0.500  23.393  0.00  0.00    -0.182 NA
ATOM     33  H   UNL     1       2.054  -0.861  24.324  0.00  0.00    +0.149 HD
BRANCH   8   1
ATOM      1  S   UNL     1       2.912   0.526  22.606  0.00  0.00    +0.065 S 
ATOM      6  O   UNL     1       2.684   1.895  23.028  0.00  0.00    -0.153 OA
ATOM      7  O   UNL     1       2.935   0.192  21.195  0.00  0.00    -0.153 OA
BRANCH   1  21
ATOM      2  S   UNL     1       4.461  -1.612  23.864  0.00  0.00    -0.077 S 
ATOM     21  C   UNL     1       4.456  -0.004  23.286  0.00  0.00    +0.142 A 
ATOM     22  C   UNL     1       5.667   0.618  23.448  0.00  0.00    +0.036 A 
ATOM     24  C   UNL     1       6.625  -0.242  24.060  0.00  0.00    +0.010 A 
ATOM     25  C   UNL     1       6.101  -1.484  24.339  0.00  0.00    +0.047 A 
ENDBRANCH   1  21
ENDBRANCH   8   1
ENDBRANCH  16   8
TORSDOF 7
ENDMDL
MODEL 4
REMARK VINA RESULT:      -0.4      2.528      5.019
REMARK  Name = 11879582
REMARK  9 active torsions:
REMARK  status: ('A' for Active; 'I' for Inactive)
REMARK    1  A    between atoms: S_1  and  N_8
REMARK    2  A    between atoms: S_1  and  C_21
REMARK    3  A    between atoms: O_5  and  C_20
REMARK    4  A    between atoms: O_5  and  C_23
REMARK    5  A    between atoms: N_8  and  C_16
REMARK    6  A    between atoms: N_9  and  C_17
REMARK    7  A    between atoms: N_13  and  C_28
REMARK    8  A    between atoms: N_13  and  C_31
REMARK    9  A    between atoms: N_13  and  C_32
REMARK                            x       y       z     vdW  Elec       q    Type
REMARK                         _______ _______ _______ _____ _____    ______ ____
ROOT
ATOM      3  O   UNL     1      -4.785   2.520  26.359  0.00  0.00    -0.370 OA
ATOM      4  O   UNL     1      -4.283   2.869  23.261  0.00  0.00    -0.370 OA
ATOM     14  C   UNL     1      -3.904   1.889  24.239  0.00  0.00    +0.170 C 
ATOM     15  C   UNL     1      -3.610   2.620  25.535  0.00  0.00    +0.175 C 
ATOM     16  C   UNL     1      -5.079   1.000  24.568  0.00  0.00    +0.133 C 
ATOM     17  C   UNL     1      -3.390   4.063  25.123  0.00  0.00    +0.171 C 
ATOM     18  C   UNL     1      -5.790   1.770  25.662  0.00  0.00    +0.183 C 
ATOM     19  C   UNL     1      -4.200   4.180  23.836  0.00  0.00    +0.190 C 
ENDROOT
BRANCH  17   9
ATOM      9  N   UNL     1      -1.971   4.402  24.996  0.00  0.00    -0.187 N 
ATOM     10  N   UNL     1      -1.573   5.676  24.932  0.00  0.00    -0.041 NA
ATOM     11  N   UNL     1       0.180   4.304  24.814  0.00  0.00    -0.071 NA
ATOM     12  N   UNL     1      -0.251   5.611  24.822  0.00  0.00    -0.020 NA
ATOM     20  C   UNL     1      -0.905   3.572  24.924  0.00  0.00    +0.342 A 
BRANCH  20   5
ATOM      5  O   UNL     1      -0.967   2.253  24.959  0.00  0.00    -0.423 OA
BRANCH   5  23
ATOM     23  C   UNL     1      -0.351   1.451  24.008  0.00  0.00    +0.134 A 
ATOM     26  C   UNL     1       1.013   1.251  24.083  0.00  0.00    +0.069 A 
ATOM     27  C   UNL     1      -1.121   0.879  23.013  0.00  0.00    +0.046 A 
ATOM     28  C   UNL     1       1.633   0.445  23.127  0.00  0.00    +0.033 A 
ATOM     29  C   UNL     1      -0.502   0.073  22.058  0.00  0.00    +0.005 A 
ATOM     30  C   UNL     1       0.875  -0.143  22.114  0.00  0.00    +0.023 A 
BRANCH  28  13
ATOM     13  N   UNL     1       3.025   0.227  23.183  0.00  0.00    -0.336 N 
ATOM     31  C   UNL     1       3.551  -1.053  23.615  0.00  0.00    +0.129 C 
ATOM     32  C   UNL     1       3.948   1.276  22.797  0.00  0.00    +0.129 C 
ENDBRANCH  28  13
ENDBRANCH   5  23
ENDBRANCH  20   5
ENDBRANCH  17   9
BRANCH  16   8
ATOM      8  N   UNL     1      -4.597  -0.296  25.103  0.00  0.00    -0.182 NA
ATOM     33  H   UNL     1      -4.247  -0.281  26.069  0.00  0.00    +0.149 HD
BRANCH   8   1
ATOM      1  S   UNL     1      -4.003  -1.479  24.039  0.00  0.00    +0.065 S 
ATOM      6  O   UNL     1      -3.884  -0.916  22.708  0.00  0.00    -0.153 OA
ATOM      7  O   UNL     1      -4.743  -2.708  24.248  0.00  0.00    -0.153 OA
BRANCH   1  21
ATOM      2  S   UNL     1      -2.002  -0.865  26.082  0.00  0.00    -0.077 S 
ATOM     21  C   UNL     1      -2.372  -1.747  24.665  0.00  0.00    +0.142 A 
ATOM     22  C   UNL     1      -1.327  -2.527  24.243  0.00  0.00    +0.036 A 
ATOM     24  C   UNL     1      -0.194  -2.401  25.099  0.00  0.00    +0.010 A 
ATOM     25  C   UNL     1      -0.425  -1.529  26.138  0.00  0.00    +0.047 A 
ENDBRANCH   1  21
ENDBRANCH   8   1
ENDBRANCH  16   8
TORSDOF 7
ENDMDL
MODEL 5
REMARK VINA RESULT:       0.0      1.068      1.672
REMARK  Name = 11879582
REMARK  9 active torsions:
REMARK  status: ('A' for Active; 'I' for Inactive)
REMARK    1  A    between atoms: S_1  and  N_8
REMARK    2  A    between atoms: S_1  and  C_21
REMARK    3  A    between atoms: O_5  and  C_20
REMARK    4  A    between atoms: O_5  and  C_23
REMARK    5  A    between atoms: N_8  and  C_16
REMARK    6  A    between atoms: N_9  and  C_17
REMARK    7  A    between atoms: N_13  and  C_28
REMARK    8  A    between atoms: N_13  and  C_31
REMARK    9  A    between atoms: N_13  and  C_32
REMARK                            x       y       z     vdW  Elec       q    Type
REMARK                         _______ _______ _______ _____ _____    ______ ____
ROOT
ATOM      3  O   UNL     1      -0.753   4.083  23.717  0.00  0.00    -0.370 OA
ATOM      4  O   UNL     1      -1.086   2.132  26.178  0.00  0.00    -0.370 OA
ATOM     14  C   UNL     1      -1.109   1.968  24.752  0.00  0.00    +0.170 C 
ATOM     15  C   UNL     1      -1.789   3.187  24.158  0.00  0.00    +0.175 C 
ATOM     16  C   UNL     1       0.296   2.016  24.200  0.00  0.00    +0.133 C 
ATOM     17  C   UNL     1      -2.549   3.808  25.315  0.00  0.00    +0.171 C 
ATOM     18  C   UNL     1       0.528   3.498  23.993  0.00  0.00    +0.183 C 
ATOM     19  C   UNL     1      -1.753   3.351  26.533  0.00  0.00    +0.190 C 
ENDROOT
BRANCH  17   9
ATOM      9  N   UNL     1      -3.965   3.432  25.323  0.00  0.00    -0.187 N 
ATOM     10  N   UNL     1      -4.875   4.201  25.929  0.00  0.00    -0.041 NA
ATOM     11  N   UNL     1      -5.845   2.408  25.025  0.00  0.00    -0.071 NA
ATOM     12  N   UNL     1      -6.028   3.569  25.743  0.00  0.00    -0.020 NA
ATOM     20  C   UNL     1      -4.557   2.345  24.776  0.00  0.00    +0.342 A 
BRANCH  20   5
ATOM      5  O   UNL     1      -3.928   1.394  24.110  0.00  0.00    -0.423 OA
BRANCH   5  23
ATOM     23  C   UNL     1      -3.723   0.126  24.634  0.00  0.00    +0.134 A 
ATOM     26  C   UNL     1      -3.735  -0.961  23.782  0.00  0.00    +0.069 A 
ATOM     27  C   UNL     1      -3.516  -0.013  25.993  0.00  0.00    +0.046 A 
ATOM     28  C   UNL     1      -3.530  -2.238  24.308  0.00  0.00    +0.033 A 
ATOM     29  C   UNL     1      -3.311  -1.289  26.520  0.00  0.00    +0.005 A 
ATOM     30  C   UNL     1      -3.319  -2.400  25.678  0.00  0.00    +0.023 A 
BRANCH  28  13
ATOM     13  N   UNL     1      -3.539  -3.361  23.457  0.00  0.00    -0.336 N 
ATOM     31  C   UNL     1      -4.775  -3.815  22.852  0.00  0.00    +0.129 C 
ATOM     32  C   UNL     1      -2.308  -4.069  23.165  0.00  0.00    +0.129 C 
ENDBRANCH  28  13
ENDBRANCH   5  23
ENDBRANCH  20   5
ENDBRANCH  17   9
BRANCH  16   8
ATOM      8  N   UNL     1       0.348   1.316  22.894  0.00  0.00    -0.182 NA
ATOM     33  H   UNL     1      -0.356   1.601  22.203  0.00  0.00    +0.149 HD
BRANCH   8   1
ATOM      1  S   UNL     1       0.988  -0.254  22.804  0.00  0.00    +0.065 S 
ATOM      6  O   UNL     1       0.794  -0.779  21.466  0.00  0.00    -0.153 OA
ATOM      7  O   UNL     1       0.537  -1.009  23.957  0.00  0.00    -0.153 OA
BRANCH   1  21
ATOM      2  S   UNL     1       3.587  -1.282  23.665  0.00  0.00    -0.077 S 
ATOM     21  C   UNL     1       2.717   0.043  23.026  0.00  0.00    +0.142 A 
ATOM     22  C   UNL     1       3.515   1.132  22.789  0.00  0.00    +0.036 A 
ATOM     24  C   UNL     1       4.873   0.879  23.139  0.00  0.00    +0.010 A 
ATOM     25  C   UNL     1       5.051  -0.395  23.628  0.00  0.00    +0.047 A 
ENDBRANCH   1  21
ENDBRANCH   8   1
ENDBRANCH  16   8
TORSDOF 7
ENDMDL
MODEL 6
REMARK VINA RESULT:       0.0      3.003      6.674
REMARK  Name = 11879582
REMARK  9 active torsions:
REMARK  status: ('A' for Active; 'I' for Inactive)
REMARK    1  A    between atoms: S_1  and  N_8
REMARK    2  A    between atoms: S_1  and  C_21
REMARK    3  A    between atoms: O_5  and  C_20
REMARK    4  A    between atoms: O_5  and  C_23
REMARK    5  A    between atoms: N_8  and  C_16
REMARK    6  A    between atoms: N_9  and  C_17
REMARK    7  A    between atoms: N_13  and  C_28
REMARK    8  A    between atoms: N_13  and  C_31
REMARK    9  A    between atoms: N_13  and  C_32
REMARK                            x       y       z     vdW  Elec       q    Type
REMARK                         _______ _______ _______ _____ _____    ______ ____
ROOT
ATOM      3  O   UNL     1      -2.365  -2.608  23.935  0.00  0.00    -0.370 OA
ATOM      4  O   UNL     1      -1.448  -0.815  26.368  0.00  0.00    -0.370 OA
ATOM     14  C   UNL     1      -2.338  -0.628  25.257  0.00  0.00    +0.170 C 
ATOM     15  C   UNL     1      -1.728  -1.323  24.054  0.00  0.00    +0.175 C 
ATOM     16  C   UNL     1      -3.634  -1.364  25.499  0.00  0.00    +0.133 C 
ATOM     17  C   UNL     1      -0.266  -1.504  24.413  0.00  0.00    +0.171 C 
ATOM     18  C   UNL     1      -3.335  -2.756  24.982  0.00  0.00    +0.183 C 
ATOM     19  C   UNL     1      -0.288  -1.541  25.937  0.00  0.00    +0.190 C 
ENDROOT
BRANCH  17   9
ATOM      9  N   UNL     1       0.588  -0.467  23.830  0.00  0.00    -0.187 N 
ATOM     10  N   UNL     1       1.331  -0.718  22.747  0.00  0.00    -0.041 NA
ATOM     11  N   UNL     1       1.624   1.386  23.424  0.00  0.00    -0.071 NA
ATOM     12  N   UNL     1       1.964   0.423  22.501  0.00  0.00    -0.020 NA
ATOM     20  C   UNL     1       0.769   0.811  24.237  0.00  0.00    +0.342 A 
BRANCH  20   5
ATOM      5  O   UNL     1       0.176   1.364  25.280  0.00  0.00    -0.423 OA
BRANCH   5  23
ATOM     23  C   UNL     1      -0.444   2.604  25.216  0.00  0.00    +0.134 A 
ATOM     26  C   UNL     1      -1.599   2.814  25.943  0.00  0.00    +0.069 A 
ATOM     27  C   UNL     1       0.112   3.592  24.425  0.00  0.00    +0.046 A 
ATOM     28  C   UNL     1      -2.224   4.060  25.878  0.00  0.00    +0.033 A 
ATOM     29  C   UNL     1      -0.512   4.838  24.360  0.00  0.00    +0.005 A 
ATOM     30  C   UNL     1      -1.679   5.072  25.086  0.00  0.00    +0.023 A 
BRANCH  28  13
ATOM     13  N   UNL     1      -3.404   4.297  26.611  0.00  0.00    -0.336 N 
ATOM     31  C   UNL     1      -4.647   4.593  25.927  0.00  0.00    +0.129 C 
ATOM     32  C   UNL     1      -3.394   4.232  28.060  0.00  0.00    +0.129 C 
ENDBRANCH  28  13
ENDBRANCH   5  23
ENDBRANCH  20   5
ENDBRANCH  17   9
BRANCH  16   8
ATOM      8  N   UNL     1      -4.718  -0.754  24.691  0.00  0.00    -0.182 NA
ATOM     33  H   UNL     1      -4.924  -1.214  23.795  0.00  0.00    +0.149 HD
BRANCH   8   1
ATOM      1  S   UNL     1      -5.066   0.899  24.856  0.00  0.00    +0.065 S 
ATOM      6  O   UNL     1      -4.616   1.360  26.155  0.00  0.00    -0.153 OA
ATOM      7  O   UNL     1      -6.433   1.133  24.432  0.00  0.00    -0.153 OA
BRANCH   1  21
ATOM      2  S   UNL     1      -4.402   3.232  23.223  0.00  0.00    -0.077 S 
ATOM     21  C   UNL     1      -4.015   1.618  23.629  0.00  0.00    +0.142 A 
ATOM     22  C   UNL     1      -2.940   1.141  22.926  0.00  0.00    +0.036 A 
ATOM     24  C   UNL     1      -2.417   2.119  22.031  0.00  0.00    +0.010 A 
ATOM     25  C   UNL     1      -3.119   3.302  22.091  0.00  0.00    +0.047 A 
ENDBRANCH   1  21
ENDBRANCH   8   1
ENDBRANCH  16   8
TORSDOF 7
ENDMDL
MODEL 7
REMARK VINA RESULT:       0.9      2.338      5.910
REMARK  Name = 11879582
REMARK  9 active torsions:
REMARK  status: ('A' for Active; 'I' for Inactive)
REMARK    1  A    between atoms: S_1  and  N_8
REMARK    2  A    between atoms: S_1  and  C_21
REMARK    3  A    between atoms: O_5  and  C_20
REMARK    4  A    between atoms: O_5  and  C_23
REMARK    5  A    between atoms: N_8  and  C_16
REMARK    6  A    between atoms: N_9  and  C_17
REMARK    7  A    between atoms: N_13  and  C_28
REMARK    8  A    between atoms: N_13  and  C_31
REMARK    9  A    between atoms: N_13  and  C_32
REMARK                            x       y       z     vdW  Elec       q    Type
REMARK                         _______ _______ _______ _____ _____    ______ ____
ROOT
ATOM      3  O   UNL     1      -3.403   1.928  23.499  0.00  0.00    -0.370 OA
ATOM      4  O   UNL     1      -5.385  -0.075  24.923  0.00  0.00    -0.370 OA
ATOM     14  C   UNL     1      -4.439   0.903  25.382  0.00  0.00    +0.170 C 
ATOM     15  C   UNL     1      -3.243   0.860  24.449  0.00  0.00    +0.175 C 
ATOM     16  C   UNL     1      -5.001   2.293  25.207  0.00  0.00    +0.133 C 
ATOM     17  C   UNL     1      -3.351  -0.478  23.743  0.00  0.00    +0.171 C 
ATOM     18  C   UNL     1      -4.618   2.637  23.783  0.00  0.00    +0.183 C 
ATOM     19  C   UNL     1      -4.847  -0.772  23.791  0.00  0.00    +0.190 C 
ENDROOT
BRANCH  17   9
ATOM      9  N   UNL     1      -2.498  -1.504  24.348  0.00  0.00    -0.187 N 
ATOM     10  N   UNL     1      -2.992  -2.703  24.672  0.00  0.00    -0.041 NA
ATOM     11  N   UNL     1      -0.826  -2.584  25.187  0.00  0.00    -0.071 NA
ATOM     12  N   UNL     1      -1.961  -3.363  25.186  0.00  0.00    -0.020 NA
ATOM     20  C   UNL     1      -1.183  -1.436  24.662  0.00  0.00    +0.342 A 
BRANCH  20   5
ATOM      5  O   UNL     1      -0.411  -0.382  24.466  0.00  0.00    -0.423 OA
BRANCH   5  23
ATOM     23  C   UNL     1       0.595  -0.361  23.511  0.00  0.00    +0.134 A 
ATOM     26  C   UNL     1       1.913  -0.354  23.925  0.00  0.00    +0.069 A 
ATOM     27  C   UNL     1       0.249  -0.345  22.173  0.00  0.00    +0.046 A 
ATOM     28  C   UNL     1       2.925  -0.332  22.965  0.00  0.00    +0.033 A 
ATOM     29  C   UNL     1       1.261  -0.324  21.213  0.00  0.00    +0.005 A 
ATOM     30  C   UNL     1       2.598  -0.316  21.608  0.00  0.00    +0.023 A 
BRANCH  28  13
ATOM     13  N   UNL     1       4.276  -0.324  23.365  0.00  0.00    -0.336 N 
ATOM     31  C   UNL     1       5.076   0.877  23.227  0.00  0.00    +0.129 C 
ATOM     32  C   UNL     1       4.881  -1.513  23.934  0.00  0.00    +0.129 C 
ENDBRANCH  28  13
ENDBRANCH   5  23
ENDBRANCH  20   5
ENDBRANCH  17   9
BRANCH  16   8
ATOM      8  N   UNL     1      -4.333   3.228  26.143  0.00  0.00    -0.182 NA
ATOM     33  H   UNL     1      -4.808   3.382  27.041  0.00  0.00    +0.149 HD
BRANCH   8   1
ATOM      1  S   UNL     1      -3.324   4.452  25.536  0.00  0.00    +0.065 S 
ATOM      6  O   UNL     1      -3.267   5.547  26.485  0.00  0.00    -0.153 OA
ATOM      7  O   UNL     1      -3.677   4.704  24.152  0.00  0.00    -0.153 OA
BRANCH   1  21
ATOM      2  S   UNL     1      -0.801   3.965  24.139  0.00  0.00    -0.077 S 
ATOM     21  C   UNL     1      -1.746   3.654  25.529  0.00  0.00    +0.142 A 
ATOM     22  C   UNL     1      -1.115   2.826  26.420  0.00  0.00    +0.036 A 
ATOM     24  C   UNL     1       0.174   2.434  25.956  0.00  0.00    +0.010 A 
ATOM     25  C   UNL     1       0.470   2.982  24.728  0.00  0.00    +0.047 A 
ENDBRANCH   1  21
ENDBRANCH   8   1
ENDBRANCH  16   8
TORSDOF 7
ENDMDL
MODEL 8
REMARK VINA RESULT:       1.7      1.830      4.116
REMARK  Name = 11879582
REMARK  9 active torsions:
REMARK  status: ('A' for Active; 'I' for Inactive)
REMARK    1  A    between atoms: S_1  and  N_8
REMARK    2  A    between atoms: S_1  and  C_21
REMARK    3  A    between atoms: O_5  and  C_20
REMARK    4  A    between atoms: O_5  and  C_23
REMARK    5  A    between atoms: N_8  and  C_16
REMARK    6  A    between atoms: N_9  and  C_17
REMARK    7  A    between atoms: N_13  and  C_28
REMARK    8  A    between atoms: N_13  and  C_31
REMARK    9  A    between atoms: N_13  and  C_32
REMARK                            x       y       z     vdW  Elec       q    Type
REMARK                         _______ _______ _______ _____ _____    ______ ____
ROOT
ATOM      3  O   UNL     1      -0.973   1.686  24.720  0.00  0.00    -0.370 OA
ATOM      4  O   UNL     1       0.115  -1.118  25.681  0.00  0.00    -0.370 OA
ATOM     14  C   UNL     1       0.061  -0.437  24.418  0.00  0.00    +0.170 C 
ATOM     15  C   UNL     1      -1.252   0.322  24.359  0.00  0.00    +0.175 C 
ATOM     16  C   UNL     1       1.119   0.638  24.361  0.00  0.00    +0.133 C 
ATOM     17  C   UNL     1      -2.121  -0.325  25.421  0.00  0.00    +0.171 C 
ATOM     18  C   UNL     1       0.428   1.827  24.995  0.00  0.00    +0.183 C 
ATOM     19  C   UNL     1      -1.099  -0.883  26.407  0.00  0.00    +0.190 C 
ENDROOT
BRANCH  17   9
ATOM      9  N   UNL     1      -3.048  -1.313  24.863  0.00  0.00    -0.187 N 
ATOM     10  N   UNL     1      -3.301  -2.456  25.507  0.00  0.00    -0.041 NA
ATOM     11  N   UNL     1      -4.455  -2.361  23.601  0.00  0.00    -0.071 NA
ATOM     12  N   UNL     1      -4.166  -3.096  24.729  0.00  0.00    -0.020 NA
ATOM     20  C   UNL     1      -3.750  -1.258  23.707  0.00  0.00    +0.342 A 
BRANCH  20   5
ATOM      5  O   UNL     1      -3.716  -0.257  22.846  0.00  0.00    -0.423 OA
BRANCH   5  23
ATOM     23  C   UNL     1      -3.854   1.068  23.236  0.00  0.00    +0.134 A 
ATOM     26  C   UNL     1      -4.716   1.376  24.270  0.00  0.00    +0.069 A 
ATOM     27  C   UNL     1      -3.127   2.040  22.575  0.00  0.00    +0.046 A 
ATOM     28  C   UNL     1      -4.856   2.708  24.661  0.00  0.00    +0.033 A 
ATOM     29  C   UNL     1      -3.266   3.372  22.967  0.00  0.00    +0.005 A 
ATOM     30  C   UNL     1      -4.131   3.706  24.008  0.00  0.00    +0.023 A 
BRANCH  28  13
ATOM     13  N   UNL     1      -5.730   3.046  25.714  0.00  0.00    -0.336 N 
ATOM     31  C   UNL     1      -6.145   4.420  25.913  0.00  0.00    +0.129 C 
ATOM     32  C   UNL     1      -6.238   2.020  26.604  0.00  0.00    +0.129 C 
ENDBRANCH  28  13
ENDBRANCH   5  23
ENDBRANCH  20   5
ENDBRANCH  17   9
BRANCH  16   8
ATOM      8  N   UNL     1       1.448   0.947  22.949  0.00  0.00    -0.182 NA
ATOM     33  H   UNL     1       0.757   1.513  22.440  0.00  0.00    +0.149 HD
BRANCH   8   1
ATOM      1  S   UNL     1       2.449  -0.102  22.067  0.00  0.00    +0.065 S 
ATOM      6  O   UNL     1       2.741   0.483  20.772  0.00  0.00    -0.153 OA
ATOM      7  O   UNL     1       1.911  -1.445  22.155  0.00  0.00    -0.153 OA
BRANCH   1  21
ATOM      2  S   UNL     1       4.299  -1.555  23.805  0.00  0.00    -0.077 S 
ATOM     21  C   UNL     1       3.936  -0.079  23.023  0.00  0.00    +0.142 A 
ATOM     22  C   UNL     1       4.871   0.893  23.272  0.00  0.00    +0.036 A 
ATOM     24  C   UNL     1       5.911   0.420  24.123  0.00  0.00    +0.010 A 
ATOM     25  C   UNL     1       5.724  -0.895  24.487  0.00  0.00    +0.047 A 
ENDBRANCH   1  21
ENDBRANCH   8   1
ENDBRANCH  16   8
TORSDOF 7
ENDMDL
MODEL 9
REMARK VINA RESULT:       2.0      2.239      4.158
REMARK  Name = 11879582
REMARK  9 active torsions:
REMARK  status: ('A' for Active; 'I' for Inactive)
REMARK    1  A    between atoms: S_1  and  N_8
REMARK    2  A    between atoms: S_1  and  C_21
REMARK    3  A    between atoms: O_5  and  C_20
REMARK    4  A    between atoms: O_5  and  C_23
REMARK    5  A    between atoms: N_8  and  C_16
REMARK    6  A    between atoms: N_9  and  C_17
REMARK    7  A    between atoms: N_13  and  C_28
REMARK    8  A    between atoms: N_13  and  C_31
REMARK    9  A    between atoms: N_13  and  C_32
REMARK                            x       y       z     vdW  Elec       q    Type
REMARK                         _______ _______ _______ _____ _____    ______ ____
ROOT
ATOM      3  O   UNL     1      -1.847  -0.763  26.248  0.00  0.00    -0.370 OA
ATOM      4  O   UNL     1      -3.019  -0.808  23.316  0.00  0.00    -0.370 OA
ATOM     14  C   UNL     1      -1.817  -0.297  23.912  0.00  0.00    +0.170 C 
ATOM     15  C   UNL     1      -2.179   0.250  25.281  0.00  0.00    +0.175 C 
ATOM     16  C   UNL     1      -0.858  -1.427  24.201  0.00  0.00    +0.133 C 
ATOM     17  C   UNL     1      -3.682   0.445  25.235  0.00  0.00    +0.171 C 
ATOM     18  C   UNL     1      -1.298  -1.902  25.571  0.00  0.00    +0.183 C 
ATOM     19  C   UNL     1      -4.129  -0.576  24.194  0.00  0.00    +0.190 C 
ENDROOT
BRANCH  17   9
ATOM      9  N   UNL     1      -4.060   1.831  24.947  0.00  0.00    -0.187 N 
ATOM     10  N   UNL     1      -4.881   2.121  23.933  0.00  0.00    -0.041 NA
ATOM     11  N   UNL     1      -4.260   3.982  24.992  0.00  0.00    -0.071 NA
ATOM     12  N   UNL     1      -5.002   3.443  23.965  0.00  0.00    -0.020 NA
ATOM     20  C   UNL     1      -3.685   2.963  25.587  0.00  0.00    +0.342 A 
BRANCH  20   5
ATOM      5  O   UNL     1      -2.877   3.010  26.631  0.00  0.00    -0.423 OA
BRANCH   5  23
ATOM     23  C   UNL     1      -1.495   2.995  26.506  0.00  0.00    +0.134 A 
ATOM     26  C   UNL     1      -0.722   2.830  27.638  0.00  0.00    +0.069 A 
ATOM     27  C   UNL     1      -0.933   3.147  25.252  0.00  0.00    +0.046 A 
ATOM     28  C   UNL     1       0.668   2.815  27.513  0.00  0.00    +0.033 A 
ATOM     29  C   UNL     1       0.456   3.131  25.127  0.00  0.00    +0.005 A 
ATOM     30  C   UNL     1       1.257   2.967  26.257  0.00  0.00    +0.023 A 
BRANCH  28  13
ATOM     13  N   UNL     1       1.477   2.649  28.655  0.00  0.00    -0.336 N 
ATOM     31  C   UNL     1       2.916   2.795  28.564  0.00  0.00    +0.129 C 
ATOM     32  C   UNL     1       0.879   2.343  29.940  0.00  0.00    +0.129 C 
ENDBRANCH  28  13
ENDBRANCH   5  23
ENDBRANCH  20   5
ENDBRANCH  17   9
BRANCH  16   8
ATOM      8  N   UNL     1       0.528  -0.905  24.276  0.00  0.00    -0.182 NA
ATOM     33  H   UNL     1       0.871  -0.674  25.216  0.00  0.00    +0.149 HD
BRANCH   8   1
ATOM      1  S   UNL     1       1.196  -0.094  22.943  0.00  0.00    +0.065 S 
ATOM      6  O   UNL     1       0.894   1.321  23.036  0.00  0.00    -0.153 OA
ATOM      7  O   UNL     1       0.871  -0.831  21.737  0.00  0.00    -0.153 OA
BRANCH   1  21
ATOM      2  S   UNL     1       3.891   1.021  22.719  0.00  0.00    -0.077 S 
ATOM     21  C   UNL     1       2.930  -0.301  23.221  0.00  0.00    +0.142 A 
ATOM     22  C   UNL     1       3.673  -1.316  23.764  0.00  0.00    +0.036 A 
ATOM     24  C   UNL     1       5.065  -1.008  23.770  0.00  0.00    +0.010 A 
ATOM     25  C   UNL     1       5.322   0.232  23.230  0.00  0.00    +0.047 A 
ENDBRANCH   1  21
ENDBRANCH   8   1
ENDBRANCH  16   8
TORSDOF 7
ENDMDL
