MODEL 1
REMARK VINA RESULT:      -2.6      0.000      0.000
REMARK  Name = 51137606
REMARK  7 active torsions:
REMARK  status: ('A' for Active; 'I' for Inactive)
REMARK    1  A    between atoms: O_6  and  C_23
REMARK    2  A    between atoms: O_6  and  C_25
REMARK    3  A    between atoms: N_7  and  C_14
REMARK    4  A    between atoms: C_10  and  C_15
REMARK    5  A    between atoms: C_14  and  C_16
REMARK    6  A    between atoms: C_19  and  C_23
REMARK    7  A    between atoms: C_22  and  C_24
REMARK                            x       y       z     vdW  Elec       q    Type
REMARK                         _______ _______ _______ _____ _____    ______ ____
ROOT
ATOM      7  N   UNL     1       0.174   1.817  23.610  0.00  0.00    -0.297 NA
ATOM     10  C   UNL     1      -1.488   3.326  24.290  0.00  0.00    +0.092 C 
ATOM     11  C   UNL     1      -0.482   3.116  25.436  0.00  0.00    +0.029 C 
ATOM     12  C   UNL     1      -1.217   2.167  23.320  0.00  0.00    +0.097 C 
ATOM     13  C   UNL     1       0.275   1.846  25.069  0.00  0.00    +0.085 C 
ENDROOT
BRANCH  10  15
ATOM      5  O   UNL     1      -3.684   2.282  24.576  0.00  0.00    -0.421 OA
ATOM      8  N   UNL     1      -3.599   4.420  25.227  0.00  0.00    -0.112 NA
ATOM      9  N   UNL     1      -4.884   3.959  25.442  0.00  0.00    -0.109 NA
ATOM     15  C   UNL     1      -2.934   3.409  24.721  0.00  0.00    +0.222 A 
ATOM     19  C   UNL     1      -4.887   2.707  25.047  0.00  0.00    +0.254 A 
BRANCH  19  23
ATOM     23  C   UNL     1      -5.982   1.727  25.049  0.00  0.00    +0.326 C 
BRANCH  23   6
ATOM      6  O   UNL     1      -5.632   0.595  25.848  0.00  0.00    -0.483 OA
BRANCH   6  25
ATOM      4  F   UNL     1      -1.611  -2.616  23.916  0.00  0.00    -0.205 F 
ATOM     25  C   UNL     1      -4.632  -0.204  25.368  0.00  0.00    +0.121 A 
ATOM     26  C   UNL     1      -3.428  -0.307  26.063  0.00  0.00    +0.048 A 
ATOM     27  C   UNL     1      -4.816  -0.915  24.183  0.00  0.00    +0.048 A 
ATOM     28  C   UNL     1      -2.407  -1.122  25.572  0.00  0.00    +0.042 A 
ATOM     29  C   UNL     1      -3.796  -1.730  23.692  0.00  0.00    +0.042 A 
ATOM     30  C   UNL     1      -2.591  -1.833  24.387  0.00  0.00    +0.124 A 
ENDBRANCH   6  25
ENDBRANCH  23   6
ENDBRANCH  19  23
ENDBRANCH  10  15
BRANCH   7  14
ATOM     14  C   UNL     1       0.549   0.525  23.054  0.00  0.00    +0.119 C 
BRANCH  14  16
ATOM     16  C   UNL     1       2.033   0.283  23.149  0.00  0.00    -0.033 A 
ATOM     17  C   UNL     1       2.927   1.302  22.820  0.00  0.00    +0.005 A 
ATOM     18  C   UNL     1       2.512  -0.960  23.564  0.00  0.00    +0.005 A 
ATOM     20  C   UNL     1       4.301   1.079  22.908  0.00  0.00    +0.012 A 
ATOM     21  C   UNL     1       3.886  -1.183  23.652  0.00  0.00    +0.012 A 
ATOM     22  C   UNL     1       4.780  -0.163  23.324  0.00  0.00    +0.055 A 
BRANCH  22  24
ATOM      1  F   UNL     1       6.841  -0.665  22.218  0.00  0.00    -0.166 F 
ATOM      2  F   UNL     1       6.557  -1.463  24.221  0.00  0.00    -0.166 F 
ATOM      3  F   UNL     1       6.943   0.657  23.934  0.00  0.00    -0.166 F 
ATOM     24  C   UNL     1       6.250  -0.401  23.421  0.00  0.00    +0.417 C 
ENDBRANCH  22  24
ENDBRANCH  14  16
ENDBRANCH   7  14
TORSDOF 7
ENDMDL
MODEL 2
REMARK VINA RESULT:      -2.3      3.448      7.777
REMARK  Name = 51137606
REMARK  7 active torsions:
REMARK  status: ('A' for Active; 'I' for Inactive)
REMARK    1  A    between atoms: O_6  and  C_23
REMARK    2  A    between atoms: O_6  and  C_25
REMARK    3  A    between atoms: N_7  and  C_14
REMARK    4  A    between atoms: C_10  and  C_15
REMARK    5  A    between atoms: C_14  and  C_16
REMARK    6  A    between atoms: C_19  and  C_23
REMARK    7  A    between atoms: C_22  and  C_24
REMARK                            x       y       z     vdW  Elec       q    Type
REMARK                         _______ _______ _______ _____ _____    ______ ____
ROOT
ATOM      7  N   UNL     1      -5.279   0.389  25.063  0.00  0.00    -0.297 NA
ATOM     10  C   UNL     1      -3.590  -1.172  24.603  0.00  0.00    +0.092 C 
ATOM     11  C   UNL     1      -4.000  -1.278  26.082  0.00  0.00    +0.029 C 
ATOM     12  C   UNL     1      -4.167   0.171  24.135  0.00  0.00    +0.097 C 
ATOM     13  C   UNL     1      -4.755   0.012  26.375  0.00  0.00    +0.085 C 
ENDROOT
BRANCH  10  15
ATOM      5  O   UNL     1      -1.453  -0.170  23.953  0.00  0.00    -0.421 OA
ATOM      8  N   UNL     1      -1.326  -2.349  24.441  0.00  0.00    -0.112 NA
ATOM      9  N   UNL     1      -0.061  -1.915  24.094  0.00  0.00    -0.109 NA
ATOM     15  C   UNL     1      -2.106  -1.298  24.345  0.00  0.00    +0.222 A 
ATOM     19  C   UNL     1      -0.182  -0.638  23.817  0.00  0.00    +0.254 A 
BRANCH  19  23
ATOM     23  C   UNL     1       0.839   0.330  23.395  0.00  0.00    +0.326 C 
BRANCH  23   6
ATOM      6  O   UNL     1       1.793  -0.299  22.536  0.00  0.00    -0.483 OA
BRANCH   6  25
ATOM      4  F   UNL     1       7.040  -0.128  24.160  0.00  0.00    -0.205 F 
ATOM     25  C   UNL     1       3.098  -0.257  22.940  0.00  0.00    +0.121 A 
ATOM     26  C   UNL     1       3.857   0.893  22.726  0.00  0.00    +0.048 A 
ATOM     27  C   UNL     1       3.670  -1.363  23.567  0.00  0.00    +0.048 A 
ATOM     28  C   UNL     1       5.189   0.937  23.137  0.00  0.00    +0.042 A 
ATOM     29  C   UNL     1       5.002  -1.320  23.980  0.00  0.00    +0.042 A 
ATOM     30  C   UNL     1       5.761  -0.170  23.764  0.00  0.00    +0.124 A 
ENDBRANCH   6  25
ENDBRANCH  23   6
ENDBRANCH  19  23
ENDBRANCH  10  15
BRANCH   7  14
ATOM     14  C   UNL     1      -5.767   1.760  25.033  0.00  0.00    +0.119 C 
BRANCH  14  16
ATOM     16  C   UNL     1      -4.639   2.756  24.987  0.00  0.00    -0.033 A 
ATOM     17  C   UNL     1      -4.193   3.358  26.164  0.00  0.00    +0.005 A 
ATOM     18  C   UNL     1      -4.040   3.078  23.768  0.00  0.00    +0.005 A 
ATOM     20  C   UNL     1      -3.148   4.280  26.123  0.00  0.00    +0.012 A 
ATOM     21  C   UNL     1      -2.996   4.000  23.727  0.00  0.00    +0.012 A 
ATOM     22  C   UNL     1      -2.549   4.601  24.905  0.00  0.00    +0.055 A 
BRANCH  22  24
ATOM      1  F   UNL     1      -1.710   6.761  25.499  0.00  0.00    -0.166 F 
ATOM      2  F   UNL     1      -1.088   5.935  23.586  0.00  0.00    -0.166 F 
ATOM      3  F   UNL     1      -0.279   5.133  25.438  0.00  0.00    -0.166 F 
ATOM     24  C   UNL     1      -1.430   5.587  24.861  0.00  0.00    +0.417 C 
ENDBRANCH  22  24
ENDBRANCH  14  16
ENDBRANCH   7  14
TORSDOF 7
ENDMDL
MODEL 3
REMARK VINA RESULT:      -2.0      4.917      7.533
REMARK  Name = 51137606
REMARK  7 active torsions:
REMARK  status: ('A' for Active; 'I' for Inactive)
REMARK    1  A    between atoms: O_6  and  C_23
REMARK    2  A    between atoms: O_6  and  C_25
REMARK    3  A    between atoms: N_7  and  C_14
REMARK    4  A    between atoms: C_10  and  C_15
REMARK    5  A    between atoms: C_14  and  C_16
REMARK    6  A    between atoms: C_19  and  C_23
REMARK    7  A    between atoms: C_22  and  C_24
REMARK                            x       y       z     vdW  Elec       q    Type
REMARK                         _______ _______ _______ _____ _____    ______ ____
ROOT
ATOM      7  N   UNL     1      -1.658  -2.805  24.236  0.00  0.00    -0.297 NA
ATOM     10  C   UNL     1       0.141  -1.337  23.901  0.00  0.00    +0.092 C 
ATOM     11  C   UNL     1       0.432  -2.241  25.111  0.00  0.00    +0.029 C 
ATOM     12  C   UNL     1      -1.366  -1.493  23.653  0.00  0.00    +0.097 C 
ATOM     13  C   UNL     1      -0.919  -2.831  25.497  0.00  0.00    +0.085 C 
ENDROOT
BRANCH  10  15
ATOM      5  O   UNL     1      -0.009   0.799  25.086  0.00  0.00    -0.421 OA
ATOM      8  N   UNL     1       1.422   0.810  23.367  0.00  0.00    -0.112 NA
ATOM      9  N   UNL     1       1.436   2.066  23.942  0.00  0.00    -0.109 NA
ATOM     15  C   UNL     1       0.565   0.104  24.067  0.00  0.00    +0.222 A 
ATOM     19  C   UNL     1       0.586   2.014  24.941  0.00  0.00    +0.254 A 
BRANCH  19  23
ATOM     23  C   UNL     1       0.203   3.059  25.899  0.00  0.00    +0.326 C 
BRANCH  23   6
ATOM      6  O   UNL     1      -1.195   2.979  26.187  0.00  0.00    -0.483 OA
BRANCH   6  25
ATOM      4  F   UNL     1      -4.610   3.612  21.928  0.00  0.00    -0.205 F 
ATOM     25  C   UNL     1      -2.044   3.136  25.128  0.00  0.00    +0.121 A 
ATOM     26  C   UNL     1      -2.178   2.119  24.184  0.00  0.00    +0.048 A 
ATOM     27  C   UNL     1      -2.777   4.315  24.991  0.00  0.00    +0.048 A 
ATOM     28  C   UNL     1      -3.045   2.279  23.103  0.00  0.00    +0.042 A 
ATOM     29  C   UNL     1      -3.644   4.476  23.910  0.00  0.00    +0.042 A 
ATOM     30  C   UNL     1      -3.778   3.458  22.966  0.00  0.00    +0.124 A 
ENDBRANCH   6  25
ENDBRANCH  23   6
ENDBRANCH  19  23
ENDBRANCH  10  15
BRANCH   7  14
ATOM     14  C   UNL     1      -3.085  -3.024  24.424  0.00  0.00    +0.119 C 
BRANCH  14  16
ATOM     16  C   UNL     1      -3.806  -1.750  24.779  0.00  0.00    -0.033 A 
ATOM     17  C   UNL     1      -4.687  -1.171  23.866  0.00  0.00    +0.005 A 
ATOM     18  C   UNL     1      -3.591  -1.150  26.020  0.00  0.00    +0.005 A 
ATOM     20  C   UNL     1      -5.355   0.008  24.195  0.00  0.00    +0.012 A 
ATOM     21  C   UNL     1      -4.259   0.030  26.348  0.00  0.00    +0.012 A 
ATOM     22  C   UNL     1      -5.142   0.608  25.435  0.00  0.00    +0.055 A 
BRANCH  22  24
ATOM      1  F   UNL     1      -6.837   1.697  26.724  0.00  0.00    -0.166 F 
ATOM      2  F   UNL     1      -6.476   2.438  24.713  0.00  0.00    -0.166 F 
ATOM      3  F   UNL     1      -5.043   2.837  26.298  0.00  0.00    -0.166 F 
ATOM     24  C   UNL     1      -5.858   1.868  25.788  0.00  0.00    +0.417 C 
ENDBRANCH  22  24
ENDBRANCH  14  16
ENDBRANCH   7  14
TORSDOF 7
ENDMDL
MODEL 4
REMARK VINA RESULT:      -1.9      2.098      3.510
REMARK  Name = 51137606
REMARK  7 active torsions:
REMARK  status: ('A' for Active; 'I' for Inactive)
REMARK    1  A    between atoms: O_6  and  C_23
REMARK    2  A    between atoms: O_6  and  C_25
REMARK    3  A    between atoms: N_7  and  C_14
REMARK    4  A    between atoms: C_10  and  C_15
REMARK    5  A    between atoms: C_14  and  C_16
REMARK    6  A    between atoms: C_19  and  C_23
REMARK    7  A    between atoms: C_22  and  C_24
REMARK                            x       y       z     vdW  Elec       q    Type
REMARK                         _______ _______ _______ _____ _____    ______ ____
ROOT
ATOM      7  N   UNL     1      -0.218  -0.590  23.822  0.00  0.00    -0.297 NA
ATOM     10  C   UNL     1      -2.164  -0.296  25.098  0.00  0.00    +0.092 C 
ATOM     11  C   UNL     1      -1.886  -1.799  24.920  0.00  0.00    +0.029 C 
ATOM     12  C   UNL     1      -1.285   0.388  24.041  0.00  0.00    +0.097 C 
ATOM     13  C   UNL     1      -0.897  -1.883  23.765  0.00  0.00    +0.085 C 
ENDROOT
BRANCH  10  15
ATOM      5  O   UNL     1      -4.020   1.166  25.740  0.00  0.00    -0.421 OA
ATOM      8  N   UNL     1      -4.585  -0.441  24.290  0.00  0.00    -0.112 NA
ATOM      9  N   UNL     1      -5.716   0.305  24.565  0.00  0.00    -0.109 NA
ATOM     15  C   UNL     1      -3.620   0.097  24.998  0.00  0.00    +0.222 A 
ATOM     19  C   UNL     1      -5.339   1.230  25.415  0.00  0.00    +0.254 A 
BRANCH  19  23
ATOM     23  C   UNL     1      -6.125   2.300  26.044  0.00  0.00    +0.326 C 
BRANCH  23   6
ATOM      6  O   UNL     1      -5.752   3.571  25.506  0.00  0.00    -0.483 OA
BRANCH   6  25
ATOM      4  F   UNL     1      -0.383   4.398  24.676  0.00  0.00    -0.205 F 
ATOM     25  C   UNL     1      -4.417   3.776  25.299  0.00  0.00    +0.121 A 
ATOM     26  C   UNL     1      -3.589   4.108  26.371  0.00  0.00    +0.048 A 
ATOM     27  C   UNL     1      -3.883   3.654  24.017  0.00  0.00    +0.048 A 
ATOM     28  C   UNL     1      -2.226   4.318  26.160  0.00  0.00    +0.042 A 
ATOM     29  C   UNL     1      -2.520   3.864  23.806  0.00  0.00    +0.042 A 
ATOM     30  C   UNL     1      -1.691   4.196  24.878  0.00  0.00    +0.124 A 
ENDBRANCH   6  25
ENDBRANCH  23   6
ENDBRANCH  19  23
ENDBRANCH  10  15
BRANCH   7  14
ATOM     14  C   UNL     1       0.550  -0.312  22.617  0.00  0.00    +0.119 C 
BRANCH  14  16
ATOM     16  C   UNL     1       2.029  -0.246  22.897  0.00  0.00    -0.033 A 
ATOM     17  C   UNL     1       2.680  -1.342  23.464  0.00  0.00    +0.005 A 
ATOM     18  C   UNL     1       2.746   0.911  22.591  0.00  0.00    +0.005 A 
ATOM     20  C   UNL     1       4.048  -1.281  23.723  0.00  0.00    +0.012 A 
ATOM     21  C   UNL     1       4.114   0.972  22.851  0.00  0.00    +0.012 A 
ATOM     22  C   UNL     1       4.766  -0.125  23.417  0.00  0.00    +0.055 A 
BRANCH  22  24
ATOM      1  F   UNL     1       7.004  -0.378  22.613  0.00  0.00    -0.166 F 
ATOM      2  F   UNL     1       6.616  -0.917  24.683  0.00  0.00    -0.166 F 
ATOM      3  F   UNL     1       6.660   1.173  24.088  0.00  0.00    -0.166 F 
ATOM     24  C   UNL     1       6.231  -0.061  23.692  0.00  0.00    +0.417 C 
ENDBRANCH  22  24
ENDBRANCH  14  16
ENDBRANCH   7  14
TORSDOF 7
ENDMDL
MODEL 5
REMARK VINA RESULT:      -1.7     14.359     15.941
REMARK  Name = 51137606
REMARK  7 active torsions:
REMARK  status: ('A' for Active; 'I' for Inactive)
REMARK    1  A    between atoms: O_6  and  C_23
REMARK    2  A    between atoms: O_6  and  C_25
REMARK    3  A    between atoms: N_7  and  C_14
REMARK    4  A    between atoms: C_10  and  C_15
REMARK    5  A    between atoms: C_14  and  C_16
REMARK    6  A    between atoms: C_19  and  C_23
REMARK    7  A    between atoms: C_22  and  C_24
REMARK                            x       y       z     vdW  Elec       q    Type
REMARK                         _______ _______ _______ _____ _____    ______ ____
ROOT
ATOM      7  N   UNL     1      -3.367  -9.776  12.297  0.00  0.00    -0.297 NA
ATOM     10  C   UNL     1      -5.673  -9.445  12.569  0.00  0.00    +0.092 C 
ATOM     11  C   UNL     1      -5.128 -10.269  13.748  0.00  0.00    +0.029 C 
ATOM     12  C   UNL     1      -4.570  -9.516  11.504  0.00  0.00    +0.097 C 
ATOM     13  C   UNL     1      -3.772 -10.781  13.279  0.00  0.00    +0.085 C 
ENDROOT
BRANCH  10  15
ATOM      5  O   UNL     1      -8.072  -9.790  12.910  0.00  0.00    -0.421 OA
ATOM      8  N   UNL     1      -7.349 -10.370  10.874  0.00  0.00    -0.112 NA
ATOM      9  N   UNL     1      -8.708 -10.614  10.930  0.00  0.00    -0.109 NA
ATOM     15  C   UNL     1      -7.021  -9.891  12.051  0.00  0.00    +0.222 A 
ATOM     19  C   UNL     1      -9.087 -10.261  12.136  0.00  0.00    +0.254 A 
BRANCH  19  23
ATOM     23  C   UNL     1     -10.423 -10.300  12.746  0.00  0.00    +0.326 C 
BRANCH  23   6
ATOM      6  O   UNL     1     -10.691  -9.074  13.431  0.00  0.00    -0.483 OA
BRANCH   6  25
ATOM      4  F   UNL     1     -10.540  -9.255  18.922  0.00  0.00    -0.205 F 
ATOM     25  C   UNL     1     -10.653  -9.119  14.797  0.00  0.00    +0.121 A 
ATOM     26  C   UNL     1     -10.549  -7.938  15.531  0.00  0.00    +0.048 A 
ATOM     27  C   UNL     1     -10.720 -10.346  15.456  0.00  0.00    +0.048 A 
ATOM     28  C   UNL     1     -10.510  -7.984  16.925  0.00  0.00    +0.042 A 
ATOM     29  C   UNL     1     -10.681 -10.392  16.850  0.00  0.00    +0.042 A 
ATOM     30  C   UNL     1     -10.577  -9.211  17.584  0.00  0.00    +0.124 A 
ENDBRANCH   6  25
ENDBRANCH  23   6
ENDBRANCH  19  23
ENDBRANCH  10  15
BRANCH   7  14
ATOM     14  C   UNL     1      -2.247 -10.219  11.479  0.00  0.00    +0.119 C 
BRANCH  14  16
ATOM     16  C   UNL     1      -1.044  -9.328  11.645  0.00  0.00    -0.033 A 
ATOM     17  C   UNL     1      -0.903  -8.556  12.798  0.00  0.00    +0.005 A 
ATOM     18  C   UNL     1      -0.073  -9.274  10.645  0.00  0.00    +0.005 A 
ATOM     20  C   UNL     1       0.210  -7.730  12.952  0.00  0.00    +0.012 A 
ATOM     21  C   UNL     1       1.040  -8.448  10.799  0.00  0.00    +0.012 A 
ATOM     22  C   UNL     1       1.182  -7.677  11.953  0.00  0.00    +0.055 A 
BRANCH  22  24
ATOM      1  F   UNL     1       2.975  -6.913  13.339  0.00  0.00    -0.166 F 
ATOM      2  F   UNL     1       2.070  -5.472  11.986  0.00  0.00    -0.166 F 
ATOM      3  F   UNL     1       3.363  -7.036  11.209  0.00  0.00    -0.166 F 
ATOM     24  C   UNL     1       2.374  -6.795  12.118  0.00  0.00    +0.417 C 
ENDBRANCH  22  24
ENDBRANCH  14  16
ENDBRANCH   7  14
TORSDOF 7
ENDMDL
MODEL 6
REMARK VINA RESULT:      -1.2      2.692      3.994
REMARK  Name = 51137606
REMARK  7 active torsions:
REMARK  status: ('A' for Active; 'I' for Inactive)
REMARK    1  A    between atoms: O_6  and  C_23
REMARK    2  A    between atoms: O_6  and  C_25
REMARK    3  A    between atoms: N_7  and  C_14
REMARK    4  A    between atoms: C_10  and  C_15
REMARK    5  A    between atoms: C_14  and  C_16
REMARK    6  A    between atoms: C_19  and  C_23
REMARK    7  A    between atoms: C_22  and  C_24
REMARK                            x       y       z     vdW  Elec       q    Type
REMARK                         _______ _______ _______ _____ _____    ______ ____
ROOT
ATOM      7  N   UNL     1      -2.317   4.886  25.415  0.00  0.00    -0.297 NA
ATOM     10  C   UNL     1      -4.451   3.915  25.403  0.00  0.00    +0.092 C 
ATOM     11  C   UNL     1      -3.948   4.036  26.852  0.00  0.00    +0.029 C 
ATOM     12  C   UNL     1      -3.197   4.111  24.539  0.00  0.00    +0.097 C 
ATOM     13  C   UNL     1      -2.447   4.263  26.731  0.00  0.00    +0.085 C 
ENDROOT
BRANCH  10  15
ATOM      5  O   UNL     1      -4.454   1.616  24.562  0.00  0.00    -0.421 OA
ATOM      8  N   UNL     1      -6.456   2.335  25.254  0.00  0.00    -0.112 NA
ATOM      9  N   UNL     1      -6.599   1.034  24.809  0.00  0.00    -0.109 NA
ATOM     15  C   UNL     1      -5.188   2.633  25.091  0.00  0.00    +0.222 A 
ATOM     19  C   UNL     1      -5.406   0.656  24.414  0.00  0.00    +0.254 A 
BRANCH  19  23
ATOM     23  C   UNL     1      -4.970  -0.630  23.854  0.00  0.00    +0.326 C 
BRANCH  23   6
ATOM      6  O   UNL     1      -4.612  -1.532  24.904  0.00  0.00    -0.483 OA
BRANCH   6  25
ATOM      4  F   UNL     1       0.764  -2.215  25.820  0.00  0.00    -0.205 F 
ATOM     25  C   UNL     1      -3.275  -1.702  25.132  0.00  0.00    +0.121 A 
ATOM     26  C   UNL     1      -2.612  -2.807  24.600  0.00  0.00    +0.048 A 
ATOM     27  C   UNL     1      -2.574  -0.769  25.896  0.00  0.00    +0.048 A 
ATOM     28  C   UNL     1      -1.247  -2.981  24.832  0.00  0.00    +0.042 A 
ATOM     29  C   UNL     1      -1.209  -0.942  26.128  0.00  0.00    +0.042 A 
ATOM     30  C   UNL     1      -0.546  -2.048  25.596  0.00  0.00    +0.124 A 
ENDBRANCH   6  25
ENDBRANCH  23   6
ENDBRANCH  19  23
ENDBRANCH  10  15
BRANCH   7  14
ATOM     14  C   UNL     1      -0.940   4.904  24.942  0.00  0.00    +0.119 C 
BRANCH  14  16
ATOM     16  C   UNL     1      -0.511   3.561  24.413  0.00  0.00    -0.033 A 
ATOM     17  C   UNL     1      -1.215   2.969  23.365  0.00  0.00    +0.005 A 
ATOM     18  C   UNL     1       0.590   2.910  24.971  0.00  0.00    +0.005 A 
ATOM     20  C   UNL     1      -0.819   1.726  22.873  0.00  0.00    +0.012 A 
ATOM     21  C   UNL     1       0.986   1.667  24.479  0.00  0.00    +0.012 A 
ATOM     22  C   UNL     1       0.282   1.074  23.430  0.00  0.00    +0.055 A 
BRANCH  22  24
ATOM      1  F   UNL     1       1.719  -0.828  23.620  0.00  0.00    -0.166 F 
ATOM      2  F   UNL     1       1.162  -0.188  21.618  0.00  0.00    -0.166 F 
ATOM      3  F   UNL     1      -0.292  -1.184  22.891  0.00  0.00    -0.166 F 
ATOM     24  C   UNL     1       0.707  -0.255  22.903  0.00  0.00    +0.417 C 
ENDBRANCH  22  24
ENDBRANCH  14  16
ENDBRANCH   7  14
TORSDOF 7
ENDMDL
MODEL 7
REMARK VINA RESULT:      -0.6     15.147     16.644
REMARK  Name = 51137606
REMARK  7 active torsions:
REMARK  status: ('A' for Active; 'I' for Inactive)
REMARK    1  A    between atoms: O_6  and  C_23
REMARK    2  A    between atoms: O_6  and  C_25
REMARK    3  A    between atoms: N_7  and  C_14
REMARK    4  A    between atoms: C_10  and  C_15
REMARK    5  A    between atoms: C_14  and  C_16
REMARK    6  A    between atoms: C_19  and  C_23
REMARK    7  A    between atoms: C_22  and  C_24
REMARK                            x       y       z     vdW  Elec       q    Type
REMARK                         _______ _______ _______ _____ _____    ______ ____
ROOT
ATOM      7  N   UNL     1      -2.854  -9.259  11.340  0.00  0.00    -0.297 NA
ATOM     10  C   UNL     1      -5.091  -8.689  10.925  0.00  0.00    +0.092 C 
ATOM     11  C   UNL     1      -4.994  -9.464  12.250  0.00  0.00    +0.029 C 
ATOM     12  C   UNL     1      -3.751  -8.951  10.224  0.00  0.00    +0.097 C 
ATOM     13  C   UNL     1      -3.629 -10.138  12.214  0.00  0.00    +0.085 C 
ENDROOT
BRANCH  10  15
ATOM      5  O   UNL     1      -7.348  -9.609  10.699  0.00  0.00    -0.421 OA
ATOM      8  N   UNL     1      -6.461  -8.889   8.776  0.00  0.00    -0.112 NA
ATOM      9  N   UNL     1      -7.725  -9.379   8.506  0.00  0.00    -0.109 NA
ATOM     15  C   UNL     1      -6.283  -9.044  10.067  0.00  0.00    +0.222 A 
ATOM     19  C   UNL     1      -8.205  -9.788   9.657  0.00  0.00    +0.254 A 
BRANCH  19  23
ATOM     23  C   UNL     1      -9.508 -10.393   9.966  0.00  0.00    +0.326 C 
BRANCH  23   6
ATOM      6  O   UNL     1     -10.290  -9.503  10.766  0.00  0.00    -0.483 OA
BRANCH   6  25
ATOM      4  F   UNL     1      -9.685  -9.935  16.212  0.00  0.00    -0.205 F 
ATOM     25  C   UNL     1     -10.139  -9.611  12.121  0.00  0.00    +0.121 A 
ATOM     26  C   UNL     1     -10.719  -8.664  12.964  0.00  0.00    +0.048 A 
ATOM     27  C   UNL     1      -9.406 -10.668  12.659  0.00  0.00    +0.048 A 
ATOM     28  C   UNL     1     -10.565  -8.773  14.346  0.00  0.00    +0.042 A 
ATOM     29  C   UNL     1      -9.252 -10.778  14.041  0.00  0.00    +0.042 A 
ATOM     30  C   UNL     1      -9.832  -9.830  14.885  0.00  0.00    +0.124 A 
ENDBRANCH   6  25
ENDBRANCH  23   6
ENDBRANCH  19  23
ENDBRANCH  10  15
BRANCH   7  14
ATOM     14  C   UNL     1      -1.609  -9.871  10.899  0.00  0.00    +0.119 C 
BRANCH  14  16
ATOM     16  C   UNL     1      -0.414  -9.018  11.237  0.00  0.00    -0.033 A 
ATOM     17  C   UNL     1       0.747  -9.113  10.470  0.00  0.00    +0.005 A 
ATOM     18  C   UNL     1      -0.470  -8.135  12.315  0.00  0.00    +0.005 A 
ATOM     20  C   UNL     1       1.854  -8.323  10.782  0.00  0.00    +0.012 A 
ATOM     21  C   UNL     1       0.636  -7.346  12.627  0.00  0.00    +0.012 A 
ATOM     22  C   UNL     1       1.798  -7.439  11.860  0.00  0.00    +0.055 A 
BRANCH  22  24
ATOM      1  F   UNL     1       4.028  -6.754  11.330  0.00  0.00    -0.166 F 
ATOM      2  F   UNL     1       3.484  -6.859  13.432  0.00  0.00    -0.166 F 
ATOM      3  F   UNL     1       2.715  -5.254  12.184  0.00  0.00    -0.166 F 
ATOM     24  C   UNL     1       2.981  -6.593  12.192  0.00  0.00    +0.417 C 
ENDBRANCH  22  24
ENDBRANCH  14  16
ENDBRANCH   7  14
TORSDOF 7
ENDMDL
MODEL 8
REMARK VINA RESULT:      -0.4      1.633      2.488
REMARK  Name = 51137606
REMARK  7 active torsions:
REMARK  status: ('A' for Active; 'I' for Inactive)
REMARK    1  A    between atoms: O_6  and  C_23
REMARK    2  A    between atoms: O_6  and  C_25
REMARK    3  A    between atoms: N_7  and  C_14
REMARK    4  A    between atoms: C_10  and  C_15
REMARK    5  A    between atoms: C_14  and  C_16
REMARK    6  A    between atoms: C_19  and  C_23
REMARK    7  A    between atoms: C_22  and  C_24
REMARK                            x       y       z     vdW  Elec       q    Type
REMARK                         _______ _______ _______ _____ _____    ______ ____
ROOT
ATOM      7  N   UNL     1       0.439   0.141  24.281  0.00  0.00    -0.297 NA
ATOM     10  C   UNL     1      -0.586   1.738  25.659  0.00  0.00    +0.092 C 
ATOM     11  C   UNL     1      -1.491   0.499  25.545  0.00  0.00    +0.029 C 
ATOM     12  C   UNL     1       0.425   1.587  24.515  0.00  0.00    +0.097 C 
ATOM     13  C   UNL     1      -0.965  -0.264  24.336  0.00  0.00    +0.085 C 
ENDROOT
BRANCH  10  15
ATOM      5  O   UNL     1      -2.613   3.058  26.041  0.00  0.00    -0.421 OA
ATOM      8  N   UNL     1      -0.884   4.246  25.264  0.00  0.00    -0.112 NA
ATOM      9  N   UNL     1      -1.952   5.107  25.434  0.00  0.00    -0.109 NA
ATOM     15  C   UNL     1      -1.315   3.062  25.631  0.00  0.00    +0.222 A 
ATOM     19  C   UNL     1      -2.939   4.370  25.888  0.00  0.00    +0.254 A 
BRANCH  19  23
ATOM     23  C   UNL     1      -4.309   4.759  26.248  0.00  0.00    +0.326 C 
BRANCH  23   6
ATOM      6  O   UNL     1      -5.243   4.191  25.327  0.00  0.00    -0.483 OA
BRANCH   6  25
ATOM      4  F   UNL     1      -4.295  -0.990  23.760  0.00  0.00    -0.205 F 
ATOM     25  C   UNL     1      -5.008   2.903  24.937  0.00  0.00    +0.121 A 
ATOM     26  C   UNL     1      -5.516   1.843  25.687  0.00  0.00    +0.048 A 
ATOM     27  C   UNL     1      -4.258   2.647  23.789  0.00  0.00    +0.048 A 
ATOM     28  C   UNL     1      -5.275   0.528  25.290  0.00  0.00    +0.042 A 
ATOM     29  C   UNL     1      -4.018   1.332  23.390  0.00  0.00    +0.042 A 
ATOM     30  C   UNL     1      -4.526   0.273  24.142  0.00  0.00    +0.124 A 
ENDBRANCH   6  25
ENDBRANCH  23   6
ENDBRANCH  19  23
ENDBRANCH  10  15
BRANCH   7  14
ATOM     14  C   UNL     1       1.069  -0.211  23.017  0.00  0.00    +0.119 C 
BRANCH  14  16
ATOM     16  C   UNL     1       2.571  -0.230  23.125  0.00  0.00    -0.033 A 
ATOM     17  C   UNL     1       3.217  -1.347  23.653  0.00  0.00    +0.005 A 
ATOM     18  C   UNL     1       3.315   0.870  22.698  0.00  0.00    +0.005 A 
ATOM     20  C   UNL     1       4.608  -1.366  23.753  0.00  0.00    +0.012 A 
ATOM     21  C   UNL     1       4.706   0.852  22.799  0.00  0.00    +0.012 A 
ATOM     22  C   UNL     1       5.353  -0.266  23.326  0.00  0.00    +0.055 A 
BRANCH  22  24
ATOM      1  F   UNL     1       7.457  -0.841  22.346  0.00  0.00    -0.166 F 
ATOM      2  F   UNL     1       7.281  -1.001  24.507  0.00  0.00    -0.166 F 
ATOM      3  F   UNL     1       7.397   0.953  23.562  0.00  0.00    -0.166 F 
ATOM     24  C   UNL     1       6.841  -0.287  23.431  0.00  0.00    +0.417 C 
ENDBRANCH  22  24
ENDBRANCH  14  16
ENDBRANCH   7  14
TORSDOF 7
ENDMDL
MODEL 9
REMARK VINA RESULT:      -0.1      3.649      5.118
REMARK  Name = 51137606
REMARK  7 active torsions:
REMARK  status: ('A' for Active; 'I' for Inactive)
REMARK    1  A    between atoms: O_6  and  C_23
REMARK    2  A    between atoms: O_6  and  C_25
REMARK    3  A    between atoms: N_7  and  C_14
REMARK    4  A    between atoms: C_10  and  C_15
REMARK    5  A    between atoms: C_14  and  C_16
REMARK    6  A    between atoms: C_19  and  C_23
REMARK    7  A    between atoms: C_22  and  C_24
REMARK                            x       y       z     vdW  Elec       q    Type
REMARK                         _______ _______ _______ _____ _____    ______ ____
ROOT
ATOM      7  N   UNL     1       0.712   2.248  24.845  0.00  0.00    -0.297 NA
ATOM     10  C   UNL     1      -0.780   3.918  25.542  0.00  0.00    +0.092 C 
ATOM     11  C   UNL     1      -0.039   3.346  26.763  0.00  0.00    +0.029 C 
ATOM     12  C   UNL     1      -0.532   2.895  24.425  0.00  0.00    +0.097 C 
ATOM     13  C   UNL     1       0.557   2.030  26.282  0.00  0.00    +0.085 C 
ENDROOT
BRANCH  10  15
ATOM      5  O   UNL     1      -3.063   3.127  25.937  0.00  0.00    -0.421 OA
ATOM      8  N   UNL     1      -2.877   5.353  25.824  0.00  0.00    -0.112 NA
ATOM      9  N   UNL     1      -4.206   5.046  26.048  0.00  0.00    -0.109 NA
ATOM     15  C   UNL     1      -2.248   4.203  25.766  0.00  0.00    +0.222 A 
ATOM     19  C   UNL     1      -4.268   3.737  26.106  0.00  0.00    +0.254 A 
BRANCH  19  23
ATOM     23  C   UNL     1      -5.428   2.863  26.328  0.00  0.00    +0.326 C 
BRANCH  23   6
ATOM      6  O   UNL     1      -5.839   2.265  25.096  0.00  0.00    -0.483 OA
BRANCH   6  25
ATOM      4  F   UNL     1      -2.019   1.883  21.164  0.00  0.00    -0.205 F 
ATOM     25  C   UNL     1      -4.889   2.170  24.118  0.00  0.00    +0.121 A 
ATOM     26  C   UNL     1      -4.260   0.950  23.874  0.00  0.00    +0.048 A 
ATOM     27  C   UNL     1      -4.551   3.293  23.364  0.00  0.00    +0.048 A 
ATOM     28  C   UNL     1      -3.289   0.853  22.876  0.00  0.00    +0.042 A 
ATOM     29  C   UNL     1      -3.581   3.196  22.365  0.00  0.00    +0.042 A 
ATOM     30  C   UNL     1      -2.950   1.976  22.122  0.00  0.00    +0.124 A 
ENDBRANCH   6  25
ENDBRANCH  23   6
ENDBRANCH  19  23
ENDBRANCH  10  15
BRANCH   7  14
ATOM     14  C   UNL     1       0.968   1.012  24.119  0.00  0.00    +0.119 C 
BRANCH  14  16
ATOM     16  C   UNL     1      -0.142   0.012  24.307  0.00  0.00    -0.033 A 
ATOM     17  C   UNL     1      -0.991   0.112  25.409  0.00  0.00    +0.005 A 
ATOM     18  C   UNL     1      -0.322  -1.014  23.378  0.00  0.00    +0.005 A 
ATOM     20  C   UNL     1      -2.019  -0.813  25.584  0.00  0.00    +0.012 A 
ATOM     21  C   UNL     1      -1.350  -1.939  23.553  0.00  0.00    +0.012 A 
ATOM     22  C   UNL     1      -2.199  -1.839  24.656  0.00  0.00    +0.055 A 
BRANCH  22  24
ATOM      1  F   UNL     1      -3.466  -3.226  26.136  0.00  0.00    -0.166 F 
ATOM      2  F   UNL     1      -3.101  -3.974  24.128  0.00  0.00    -0.166 F 
ATOM      3  F   UNL     1      -4.524  -2.363  24.452  0.00  0.00    -0.166 F 
ATOM     24  C   UNL     1      -3.301  -2.828  24.840  0.00  0.00    +0.417 C 
ENDBRANCH  22  24
ENDBRANCH  14  16
ENDBRANCH   7  14
TORSDOF 7
ENDMDL
MODEL 10
REMARK VINA RESULT:       0.1      4.528      8.029
REMARK  Name = 51137606
REMARK  7 active torsions:
REMARK  status: ('A' for Active; 'I' for Inactive)
REMARK    1  A    between atoms: O_6  and  C_23
REMARK    2  A    between atoms: O_6  and  C_25
REMARK    3  A    between atoms: N_7  and  C_14
REMARK    4  A    between atoms: C_10  and  C_15
REMARK    5  A    between atoms: C_14  and  C_16
REMARK    6  A    between atoms: C_19  and  C_23
REMARK    7  A    between atoms: C_22  and  C_24
REMARK                            x       y       z     vdW  Elec       q    Type
REMARK                         _______ _______ _______ _____ _____    ______ ____
ROOT
ATOM      7  N   UNL     1      -4.004  -1.814  24.886  0.00  0.00    -0.297 NA
ATOM     10  C   UNL     1      -1.701  -2.247  24.976  0.00  0.00    +0.092 C 
ATOM     11  C   UNL     1      -2.193  -1.787  26.359  0.00  0.00    +0.029 C 
ATOM     12  C   UNL     1      -2.829  -1.856  24.012  0.00  0.00    +0.097 C 
ATOM     13  C   UNL     1      -3.547  -1.140  26.100  0.00  0.00    +0.085 C 
ENDROOT
BRANCH  10  15
ATOM      5  O   UNL     1      -0.362  -0.577  23.788  0.00  0.00    -0.421 OA
ATOM      8  N   UNL     1       0.850  -2.133  24.843  0.00  0.00    -0.112 NA
ATOM      9  N   UNL     1       1.723  -1.261  24.220  0.00  0.00    -0.109 NA
ATOM     15  C   UNL     1      -0.356  -1.695  24.563  0.00  0.00    +0.222 A 
ATOM     19  C   UNL     1       0.971  -0.370  23.616  0.00  0.00    +0.254 A 
BRANCH  19  23
ATOM     23  C   UNL     1       1.364   0.791  22.806  0.00  0.00    +0.326 C 
BRANCH  23   6
ATOM      6  O   UNL     1       1.694   1.896  23.652  0.00  0.00    -0.483 OA
BRANCH   6  25
ATOM      4  F   UNL     1      -2.392   3.952  26.698  0.00  0.00    -0.205 F 
ATOM     25  C   UNL     1       0.678   2.407  24.409  0.00  0.00    +0.121 A 
ATOM     26  C   UNL     1       0.450   1.915  25.694  0.00  0.00    +0.048 A 
ATOM     27  C   UNL     1      -0.131   3.422  23.898  0.00  0.00    +0.048 A 
ATOM     28  C   UNL     1      -0.588   2.436  26.467  0.00  0.00    +0.042 A 
ATOM     29  C   UNL     1      -1.168   3.944  24.671  0.00  0.00    +0.042 A 
ATOM     30  C   UNL     1      -1.396   3.451  25.955  0.00  0.00    +0.124 A 
ENDBRANCH   6  25
ENDBRANCH  23   6
ENDBRANCH  19  23
ENDBRANCH  10  15
BRANCH   7  14
ATOM     14  C   UNL     1      -5.133  -1.136  24.266  0.00  0.00    +0.119 C 
BRANCH  14  16
ATOM     16  C   UNL     1      -5.106   0.348  24.521  0.00  0.00    -0.033 A 
ATOM     17  C   UNL     1      -4.193   1.154  23.840  0.00  0.00    +0.005 A 
ATOM     18  C   UNL     1      -5.991   0.915  25.437  0.00  0.00    +0.005 A 
ATOM     20  C   UNL     1      -4.167   2.528  24.075  0.00  0.00    +0.012 A 
ATOM     21  C   UNL     1      -5.965   2.289  25.672  0.00  0.00    +0.012 A 
ATOM     22  C   UNL     1      -5.053   3.096  24.991  0.00  0.00    +0.055 A 
BRANCH  22  24
ATOM      1  F   UNL     1      -4.331   4.918  26.362  0.00  0.00    -0.166 F 
ATOM      2  F   UNL     1      -6.275   5.093  25.404  0.00  0.00    -0.166 F 
ATOM      3  F   UNL     1      -4.456   5.284  24.229  0.00  0.00    -0.166 F 
ATOM     24  C   UNL     1      -5.027   4.567  25.241  0.00  0.00    +0.417 C 
ENDBRANCH  22  24
ENDBRANCH  14  16
ENDBRANCH   7  14
TORSDOF 7
ENDMDL
