MODEL 1
REMARK VINA RESULT:      -2.1      0.000      0.000
REMARK  Name = 25389390
REMARK  8 active torsions:
REMARK  status: ('A' for Active; 'I' for Inactive)
REMARK    1  A    between atoms: S_1  and  N_6
REMARK    2  A    between atoms: S_1  and  C_23
REMARK    3  A    between atoms: N_5  and  C_14
REMARK    4  A    between atoms: N_6  and  C_15
REMARK    5  A    between atoms: C_8  and  C_14
REMARK    6  A    between atoms: C_9  and  C_15
REMARK    7  A    between atoms: C_18  and  C_21
REMARK    8  A    between atoms: C_21  and  C_22
REMARK                            x       y       z     vdW  Elec       q    Type
REMARK                         _______ _______ _______ _____ _____    ______ ____
ROOT
ATOM      4  N   UNL     1      -3.637   4.375  24.252  0.00  0.00    -0.298 NA
ATOM      7  C   UNL     1      -1.735   4.374  26.026  0.00  0.00    -0.003 C 
ATOM      8  C   UNL     1      -1.557   3.209  25.026  0.00  0.00    +0.020 C 
ATOM      9  C   UNL     1      -4.218   4.416  25.620  0.00  0.00    +0.072 C 
ATOM     10  C   UNL     1      -3.118   4.266  26.695  0.00  0.00    +0.024 C 
ATOM     11  C   UNL     1      -2.785   3.172  24.089  0.00  0.00    +0.089 C 
ATOM     12  C   UNL     1      -1.728   5.676  25.202  0.00  0.00    +0.019 C 
ATOM     13  C   UNL     1      -2.780   5.574  24.083  0.00  0.00    +0.085 C 
ENDROOT
BRANCH   8  14
ATOM     14  C   UNL     1      -1.327   1.862  25.707  0.00  0.00    +0.089 C 
BRANCH  14   5
ATOM      5  N   UNL     1      -0.266   1.141  25.004  0.00  0.00    -0.302 NA
ATOM     16  C   UNL     1       0.528   2.063  24.182  0.00  0.00    +0.084 C 
ATOM     17  C   UNL     1      -0.833   0.058  24.190  0.00  0.00    +0.084 C 
ATOM     18  C   UNL     1       1.160   0.165  22.635  0.00  0.00    -0.004 C 
ATOM     19  C   UNL     1       1.676   1.333  23.483  0.00  0.00    +0.019 C 
ATOM     20  C   UNL     1       0.269  -0.742  23.491  0.00  0.00    +0.019 C 
BRANCH  18  21
ATOM     21  C   UNL     1       2.315  -0.620  22.022  0.00  0.00    +0.038 C 
BRANCH  21  22
ATOM     22  C   UNL     1       3.587  -0.438  22.805  0.00  0.00    -0.047 A 
ATOM     24  C   UNL     1       4.284   0.768  22.733  0.00  0.00    +0.003 A 
ATOM     25  C   UNL     1       4.070  -1.477  23.602  0.00  0.00    +0.003 A 
ATOM     28  C   UNL     1       5.463   0.936  23.459  0.00  0.00    +0.000 A 
ATOM     29  C   UNL     1       5.249  -1.308  24.328  0.00  0.00    +0.000 A 
ATOM     30  C   UNL     1       5.945  -0.101  24.256  0.00  0.00    +0.000 A 
ENDBRANCH  21  22
ENDBRANCH  18  21
ENDBRANCH  14   5
ENDBRANCH   8  14
BRANCH   9  15
ATOM     15  C   UNL     1      -5.340   3.392  25.809  0.00  0.00    +0.124 C 
BRANCH  15   6
ATOM      6  N   UNL     1      -4.781   2.035  25.695  0.00  0.00    -0.188 NA
ATOM     34  H   UNL     1      -3.875   1.879  26.154  0.00  0.00    +0.148 HD
BRANCH   6   1
ATOM      1  S   UNL     1      -5.153   1.066  24.345  0.00  0.00    +0.058 S 
ATOM      2  O   UNL     1      -4.493   1.604  23.171  0.00  0.00    -0.153 OA
ATOM      3  O   UNL     1      -6.580   0.805  24.325  0.00  0.00    -0.153 OA
BRANCH   1  23
ATOM     23  C   UNL     1      -4.357  -0.456  24.766  0.00  0.00    +0.105 A 
ATOM     26  C   UNL     1      -4.329  -1.506  23.848  0.00  0.00    +0.028 A 
ATOM     27  C   UNL     1      -3.759  -0.608  26.016  0.00  0.00    +0.028 A 
ATOM     31  C   UNL     1      -3.704  -2.708  24.180  0.00  0.00    +0.002 A 
ATOM     32  C   UNL     1      -3.134  -1.810  26.350  0.00  0.00    +0.002 A 
ATOM     33  C   UNL     1      -3.107  -2.860  25.431  0.00  0.00    +0.000 A 
ENDBRANCH   1  23
ENDBRANCH   6   1
ENDBRANCH  15   6
ENDBRANCH   9  15
TORSDOF 8
ENDMDL
MODEL 2
REMARK VINA RESULT:      -0.9      2.559      7.300
REMARK  Name = 25389390
REMARK  8 active torsions:
REMARK  status: ('A' for Active; 'I' for Inactive)
REMARK    1  A    between atoms: S_1  and  N_6
REMARK    2  A    between atoms: S_1  and  C_23
REMARK    3  A    between atoms: N_5  and  C_14
REMARK    4  A    between atoms: N_6  and  C_15
REMARK    5  A    between atoms: C_8  and  C_14
REMARK    6  A    between atoms: C_9  and  C_15
REMARK    7  A    between atoms: C_18  and  C_21
REMARK    8  A    between atoms: C_21  and  C_22
REMARK                            x       y       z     vdW  Elec       q    Type
REMARK                         _______ _______ _______ _____ _____    ______ ____
ROOT
ATOM      4  N   UNL     1      -1.299  -2.578  24.609  0.00  0.00    -0.298 NA
ATOM      7  C   UNL     1      -3.541  -2.024  25.805  0.00  0.00    -0.003 C 
ATOM      8  C   UNL     1      -3.774  -2.317  24.306  0.00  0.00    +0.020 C 
ATOM      9  C   UNL     1      -1.176  -1.295  25.352  0.00  0.00    +0.072 C 
ATOM     10  C   UNL     1      -2.535  -0.867  25.948  0.00  0.00    +0.024 C 
ATOM     11  C   UNL     1      -2.401  -2.497  23.619  0.00  0.00    +0.089 C 
ATOM     12  C   UNL     1      -2.882  -3.278  26.410  0.00  0.00    +0.019 C 
ATOM     13  C   UNL     1      -1.633  -3.642  25.587  0.00  0.00    +0.085 C 
ENDROOT
BRANCH   8  14
ATOM     14  C   UNL     1      -4.617  -1.254  23.608  0.00  0.00    +0.089 C 
BRANCH  14   5
ATOM      5  N   UNL     1      -4.281   0.063  24.150  0.00  0.00    -0.302 NA
ATOM     16  C   UNL     1      -5.446   0.659  24.816  0.00  0.00    +0.084 C 
ATOM     17  C   UNL     1      -3.769   0.940  23.089  0.00  0.00    +0.084 C 
ATOM     18  C   UNL     1      -4.524   2.975  24.388  0.00  0.00    -0.004 C 
ATOM     19  C   UNL     1      -5.095   2.013  25.436  0.00  0.00    +0.019 C 
ATOM     20  C   UNL     1      -3.360   2.304  23.650  0.00  0.00    +0.019 C 
BRANCH  18  21
ATOM     21  C   UNL     1      -4.083   4.286  25.030  0.00  0.00    +0.038 C 
BRANCH  21  22
ATOM     22  C   UNL     1      -2.586   4.366  25.159  0.00  0.00    -0.047 A 
ATOM     24  C   UNL     1      -1.883   3.332  25.779  0.00  0.00    +0.003 A 
ATOM     25  C   UNL     1      -1.901   5.474  24.659  0.00  0.00    +0.003 A 
ATOM     28  C   UNL     1      -0.495   3.407  25.898  0.00  0.00    +0.000 A 
ATOM     29  C   UNL     1      -0.514   5.548  24.778  0.00  0.00    +0.000 A 
ATOM     30  C   UNL     1       0.189   4.514  25.398  0.00  0.00    +0.000 A 
ENDBRANCH  21  22
ENDBRANCH  18  21
ENDBRANCH  14   5
ENDBRANCH   8  14
BRANCH   9  15
ATOM     15  C   UNL     1      -0.553  -0.185  24.501  0.00  0.00    +0.124 C 
BRANCH  15   6
ATOM      6  N   UNL     1       0.689  -0.684  23.888  0.00  0.00    -0.188 NA
ATOM     34  H   UNL     1       1.231  -1.356  24.446  0.00  0.00    +0.148 HD
BRANCH   6   1
ATOM      1  S   UNL     1       1.543   0.281  22.775  0.00  0.00    +0.058 S 
ATOM      2  O   UNL     1       1.300   1.680  23.068  0.00  0.00    -0.153 OA
ATOM      3  O   UNL     1       1.327  -0.232  21.436  0.00  0.00    -0.153 OA
BRANCH   1  23
ATOM     23  C   UNL     1       3.221  -0.080  23.202  0.00  0.00    +0.105 A 
ATOM     26  C   UNL     1       3.567  -1.354  23.650  0.00  0.00    +0.028 A 
ATOM     27  C   UNL     1       4.197   0.910  23.092  0.00  0.00    +0.028 A 
ATOM     31  C   UNL     1       4.890  -1.639  23.990  0.00  0.00    +0.002 A 
ATOM     32  C   UNL     1       5.519   0.626  23.433  0.00  0.00    +0.002 A 
ATOM     33  C   UNL     1       5.866  -0.648  23.881  0.00  0.00    +0.000 A 
ENDBRANCH   1  23
ENDBRANCH   6   1
ENDBRANCH  15   6
ENDBRANCH   9  15
TORSDOF 8
ENDMDL
MODEL 3
REMARK VINA RESULT:      -0.1      1.795      2.738
REMARK  Name = 25389390
REMARK  8 active torsions:
REMARK  status: ('A' for Active; 'I' for Inactive)
REMARK    1  A    between atoms: S_1  and  N_6
REMARK    2  A    between atoms: S_1  and  C_23
REMARK    3  A    between atoms: N_5  and  C_14
REMARK    4  A    between atoms: N_6  and  C_15
REMARK    5  A    between atoms: C_8  and  C_14
REMARK    6  A    between atoms: C_9  and  C_15
REMARK    7  A    between atoms: C_18  and  C_21
REMARK    8  A    between atoms: C_21  and  C_22
REMARK                            x       y       z     vdW  Elec       q    Type
REMARK                         _______ _______ _______ _____ _____    ______ ____
ROOT
ATOM      4  N   UNL     1      -4.762   3.186  24.009  0.00  0.00    -0.298 NA
ATOM      7  C   UNL     1      -3.664   3.371  26.360  0.00  0.00    -0.003 C 
ATOM      8  C   UNL     1      -3.108   4.452  25.404  0.00  0.00    +0.020 C 
ATOM      9  C   UNL     1      -4.218   1.864  24.422  0.00  0.00    +0.072 C 
ATOM     10  C   UNL     1      -3.430   1.979  25.747  0.00  0.00    +0.024 C 
ATOM     11  C   UNL     1      -3.684   4.204  23.992  0.00  0.00    +0.089 C 
ATOM     12  C   UNL     1      -5.188   3.584  26.438  0.00  0.00    +0.019 C 
ATOM     13  C   UNL     1      -5.772   3.598  25.014  0.00  0.00    +0.085 C 
ENDROOT
BRANCH   8  14
ATOM     14  C   UNL     1      -1.583   4.513  25.387  0.00  0.00    +0.089 C 
BRANCH  14   5
ATOM      5  N   UNL     1      -1.054   3.241  24.894  0.00  0.00    -0.302 NA
ATOM     16  C   UNL     1       0.192   2.896  25.591  0.00  0.00    +0.084 C 
ATOM     17  C   UNL     1      -0.851   3.297  23.441  0.00  0.00    +0.084 C 
ATOM     18  C   UNL     1       0.938   1.517  23.607  0.00  0.00    -0.004 C 
ATOM     19  C   UNL     1       0.730   1.542  25.125  0.00  0.00    +0.019 C 
ATOM     20  C   UNL     1      -0.349   1.957  22.901  0.00  0.00    +0.019 C 
BRANCH  18  21
ATOM     21  C   UNL     1       1.378   0.135  23.137  0.00  0.00    +0.038 C 
BRANCH  21  22
ATOM     22  C   UNL     1       2.864  -0.055  23.282  0.00  0.00    -0.047 A 
ATOM     24  C   UNL     1       3.371  -1.273  23.736  0.00  0.00    +0.003 A 
ATOM     25  C   UNL     1       3.734   0.987  22.961  0.00  0.00    +0.003 A 
ATOM     28  C   UNL     1       4.748  -1.448  23.869  0.00  0.00    +0.000 A 
ATOM     29  C   UNL     1       5.111   0.811  23.095  0.00  0.00    +0.000 A 
ATOM     30  C   UNL     1       5.618  -0.407  23.549  0.00  0.00    +0.000 A 
ENDBRANCH  21  22
ENDBRANCH  18  21
ENDBRANCH  14   5
ENDBRANCH   8  14
BRANCH   9  15
ATOM     15  C   UNL     1      -3.384   1.205  23.320  0.00  0.00    +0.124 C 
BRANCH  15   6
ATOM      6  N   UNL     1      -3.967  -0.106  22.992  0.00  0.00    -0.188 NA
ATOM     34  H   UNL     1      -4.591  -0.133  22.176  0.00  0.00    +0.148 HD
BRANCH   6   1
ATOM      1  S   UNL     1      -4.232  -1.257  24.218  0.00  0.00    +0.058 S 
ATOM      2  O   UNL     1      -4.713  -2.490  23.624  0.00  0.00    -0.153 OA
ATOM      3  O   UNL     1      -4.967  -0.636  25.304  0.00  0.00    -0.153 OA
BRANCH   1  23
ATOM     23  C   UNL     1      -2.588  -1.542  24.805  0.00  0.00    +0.105 A 
ATOM     26  C   UNL     1      -2.107  -0.828  25.903  0.00  0.00    +0.028 A 
ATOM     27  C   UNL     1      -1.772  -2.476  24.169  0.00  0.00    +0.028 A 
ATOM     31  C   UNL     1      -0.810  -1.050  26.365  0.00  0.00    +0.002 A 
ATOM     32  C   UNL     1      -0.474  -2.697  24.629  0.00  0.00    +0.002 A 
ATOM     33  C   UNL     1       0.007  -1.984  25.727  0.00  0.00    +0.000 A 
ENDBRANCH   1  23
ENDBRANCH   6   1
ENDBRANCH  15   6
ENDBRANCH   9  15
TORSDOF 8
ENDMDL
MODEL 4
REMARK VINA RESULT:       0.8      2.383      6.052
REMARK  Name = 25389390
REMARK  8 active torsions:
REMARK  status: ('A' for Active; 'I' for Inactive)
REMARK    1  A    between atoms: S_1  and  N_6
REMARK    2  A    between atoms: S_1  and  C_23
REMARK    3  A    between atoms: N_5  and  C_14
REMARK    4  A    between atoms: N_6  and  C_15
REMARK    5  A    between atoms: C_8  and  C_14
REMARK    6  A    between atoms: C_9  and  C_15
REMARK    7  A    between atoms: C_18  and  C_21
REMARK    8  A    between atoms: C_21  and  C_22
REMARK                            x       y       z     vdW  Elec       q    Type
REMARK                         _______ _______ _______ _____ _____    ______ ____
ROOT
ATOM      4  N   UNL     1      -0.588   3.709  25.542  0.00  0.00    -0.298 NA
ATOM      7  C   UNL     1      -2.117   5.159  24.018  0.00  0.00    -0.003 C 
ATOM      8  C   UNL     1      -2.948   4.428  25.097  0.00  0.00    +0.020 C 
ATOM      9  C   UNL     1      -0.333   3.388  24.112  0.00  0.00    +0.072 C 
ATOM     10  C   UNL     1      -1.331   4.125  23.191  0.00  0.00    +0.024 C 
ATOM     11  C   UNL     1      -2.014   3.475  25.876  0.00  0.00    +0.089 C 
ATOM     12  C   UNL     1      -1.084   6.029  24.761  0.00  0.00    +0.019 C 
ATOM     13  C   UNL     1      -0.295   5.149  25.746  0.00  0.00    +0.085 C 
ENDROOT
BRANCH   8  14
ATOM     14  C   UNL     1      -4.157   3.690  24.528  0.00  0.00    +0.089 C 
BRANCH  14   5
ATOM      5  N   UNL     1      -3.921   2.248  24.600  0.00  0.00    -0.302 NA
ATOM     16  C   UNL     1      -3.671   1.700  23.260  0.00  0.00    +0.084 C 
ATOM     17  C   UNL     1      -5.053   1.573  25.247  0.00  0.00    +0.084 C 
ATOM     18  C   UNL     1      -4.499  -0.566  24.017  0.00  0.00    -0.004 C 
ATOM     19  C   UNL     1      -3.369   0.202  23.324  0.00  0.00    +0.019 C 
ATOM     20  C   UNL     1      -4.799   0.070  25.379  0.00  0.00    +0.019 C 
BRANCH  18  21
ATOM     21  C   UNL     1      -4.147  -2.043  24.168  0.00  0.00    +0.038 C 
BRANCH  21  22
ATOM     22  C   UNL     1      -2.757  -2.230  24.713  0.00  0.00    -0.047 A 
ATOM     24  C   UNL     1      -1.942  -3.246  24.213  0.00  0.00    +0.003 A 
ATOM     25  C   UNL     1      -2.284  -1.387  25.719  0.00  0.00    +0.003 A 
ATOM     28  C   UNL     1      -0.654  -3.418  24.719  0.00  0.00    +0.000 A 
ATOM     29  C   UNL     1      -0.995  -1.560  26.225  0.00  0.00    +0.000 A 
ATOM     30  C   UNL     1      -0.180  -2.576  25.723  0.00  0.00    +0.000 A 
ENDBRANCH  21  22
ENDBRANCH  18  21
ENDBRANCH  14   5
ENDBRANCH   8  14
BRANCH   9  15
ATOM     15  C   UNL     1      -0.321   1.881  23.845  0.00  0.00    +0.124 C 
BRANCH  15   6
ATOM      6  N   UNL     1       0.865   1.541  23.042  0.00  0.00    -0.188 NA
ATOM     34  H   UNL     1       1.174   2.252  22.368  0.00  0.00    +0.148 HD
BRANCH   6   1
ATOM      1  S   UNL     1       1.219  -0.085  22.681  0.00  0.00    +0.058 S 
ATOM      2  O   UNL     1       1.105  -0.295  21.251  0.00  0.00    -0.153 OA
ATOM      3  O   UNL     1       0.501  -0.944  23.604  0.00  0.00    -0.153 OA
BRANCH   1  23
ATOM     23  C   UNL     1       2.931  -0.184  23.111  0.00  0.00    +0.105 A 
ATOM     26  C   UNL     1       3.766   0.914  22.901  0.00  0.00    +0.028 A 
ATOM     27  C   UNL     1       3.448  -1.358  23.656  0.00  0.00    +0.028 A 
ATOM     31  C   UNL     1       5.118   0.837  23.236  0.00  0.00    +0.002 A 
ATOM     32  C   UNL     1       4.799  -1.437  23.991  0.00  0.00    +0.002 A 
ATOM     33  C   UNL     1       5.635  -0.339  23.781  0.00  0.00    +0.000 A 
ENDBRANCH   1  23
ENDBRANCH   6   1
ENDBRANCH  15   6
ENDBRANCH   9  15
TORSDOF 8
ENDMDL
