MODEL 1
REMARK VINA RESULT:      -4.3      0.000      0.000
REMARK  Name = 75537053
REMARK  3 active torsions:
REMARK  status: ('A' for Active; 'I' for Inactive)
REMARK    1  A    between atoms: N_3  and  C_12
REMARK    2  A    between atoms: N_4  and  C_13
REMARK    3  A    between atoms: C_12  and  C_14
REMARK                            x       y       z     vdW  Elec       q    Type
REMARK                         _______ _______ _______ _____ _____    ______ ____
ROOT
ATOM      1  O   UNL     1      -6.090 -10.399   9.605  0.00  0.00    -0.252 OA
ATOM      2  N   UNL     1      -7.442 -10.446  11.503  0.00  0.00    -0.278 N 
ATOM      3  N   UNL     1      -9.686 -10.000  13.140  0.00  0.00    -0.295 NA
ATOM      4  N   UNL     1      -5.227 -10.102  11.817  0.00  0.00    -0.254 N 
ATOM      6  C   UNL     1      -7.278 -10.460  12.935  0.00  0.00    +0.109 C 
ATOM      7  C   UNL     1      -8.345  -9.597  13.606  0.00  0.00    +0.109 C 
ATOM      8  C   UNL     1      -5.845  -9.981  13.133  0.00  0.00    +0.139 C 
ATOM      9  C   UNL     1      -8.757 -10.683  10.939  0.00  0.00    +0.125 C 
ATOM     10  C   UNL     1      -9.803  -9.843  11.677  0.00  0.00    +0.104 C 
ATOM     11  C   UNL     1      -6.221 -10.330  10.820  0.00  0.00    +0.309 C 
ENDROOT
BRANCH   4  13
ATOM     13  C   UNL     1      -3.828  -9.923  11.611  0.00  0.00    +0.038 A 
ATOM     15  C   UNL     1      -3.375  -9.100  10.580  0.00  0.00    +0.023 A 
ATOM     16  C   UNL     1      -2.913 -10.572  12.440  0.00  0.00    +0.023 A 
ATOM     19  C   UNL     1      -2.006  -8.925  10.379  0.00  0.00    +0.002 A 
ATOM     20  C   UNL     1      -1.543 -10.398  12.238  0.00  0.00    +0.002 A 
ATOM     21  C   UNL     1      -1.090  -9.575  11.208  0.00  0.00    +0.000 A 
ENDBRANCH   4  13
BRANCH   3  12
ATOM     12  C   UNL     1     -10.720  -9.220  13.821  0.00  0.00    +0.121 C 
BRANCH  12  14
ATOM      5  N   UNL     1     -10.243 -10.272  17.426  0.00  0.00    -0.263 NA
ATOM     14  C   UNL     1     -10.473  -9.136  15.304  0.00  0.00    -0.015 A 
ATOM     17  C   UNL     1     -10.256  -7.912  15.927  0.00  0.00    +0.008 A 
ATOM     18  C   UNL     1     -10.457 -10.276  16.092  0.00  0.00    +0.115 A 
ATOM     22  C   UNL     1     -10.033  -7.866  17.298  0.00  0.00    +0.020 A 
ATOM     23  C   UNL     1     -10.036  -9.063  17.997  0.00  0.00    +0.111 A 
ENDBRANCH  12  14
ENDBRANCH   3  12
TORSDOF 3
ENDMDL
MODEL 2
REMARK VINA RESULT:      -0.8     16.269     18.808
REMARK  Name = 75537053
REMARK  3 active torsions:
REMARK  status: ('A' for Active; 'I' for Inactive)
REMARK    1  A    between atoms: N_3  and  C_12
REMARK    2  A    between atoms: N_4  and  C_13
REMARK    3  A    between atoms: C_12  and  C_14
REMARK                            x       y       z     vdW  Elec       q    Type
REMARK                         _______ _______ _______ _____ _____    ______ ____
ROOT
ATOM      1  O   UNL     1      -1.943   4.108  24.964  0.00  0.00    -0.252 OA
ATOM      2  N   UNL     1      -0.646   2.194  24.668  0.00  0.00    -0.278 N 
ATOM      3  N   UNL     1       1.394   0.533  23.670  0.00  0.00    -0.295 NA
ATOM      4  N   UNL     1      -2.880   1.906  24.894  0.00  0.00    -0.254 N 
ATOM      6  C   UNL     1      -0.818   0.764  24.723  0.00  0.00    +0.109 C 
ATOM      7  C   UNL     1      -0.011   0.083  23.618  0.00  0.00    +0.109 C 
ATOM      8  C   UNL     1      -2.328   0.584  24.621  0.00  0.00    +0.139 C 
ATOM      9  C   UNL     1       0.692   2.742  24.565  0.00  0.00    +0.125 C 
ATOM     10  C   UNL     1       1.485   1.996  23.489  0.00  0.00    +0.104 C 
ATOM     11  C   UNL     1      -1.849   2.891  24.864  0.00  0.00    +0.309 C 
ENDROOT
BRANCH   4  13
ATOM     13  C   UNL     1      -4.276   2.129  25.074  0.00  0.00    +0.038 A 
ATOM     15  C   UNL     1      -4.730   3.362  25.540  0.00  0.00    +0.023 A 
ATOM     16  C   UNL     1      -5.187   1.113  24.784  0.00  0.00    +0.023 A 
ATOM     19  C   UNL     1      -6.097   3.580  25.716  0.00  0.00    +0.002 A 
ATOM     20  C   UNL     1      -6.554   1.331  24.960  0.00  0.00    +0.002 A 
ATOM     21  C   UNL     1      -7.009   2.564  25.426  0.00  0.00    +0.000 A 
ENDBRANCH   4  13
BRANCH   3  12
ATOM     12  C   UNL     1       2.189  -0.157  22.654  0.00  0.00    +0.121 C 
BRANCH  12  14
ATOM      5  N   UNL     1       5.268  -1.794  24.125  0.00  0.00    -0.263 NA
ATOM     14  C   UNL     1       3.611  -0.363  23.099  0.00  0.00    -0.015 A 
ATOM     17  C   UNL     1       4.570   0.629  22.920  0.00  0.00    +0.008 A 
ATOM     18  C   UNL     1       4.009  -1.545  23.702  0.00  0.00    +0.115 A 
ATOM     22  C   UNL     1       5.876   0.411  23.342  0.00  0.00    +0.020 A 
ATOM     23  C   UNL     1       6.172  -0.807  23.934  0.00  0.00    +0.111 A 
ENDBRANCH  12  14
ENDBRANCH   3  12
TORSDOF 3
ENDMDL
MODEL 3
REMARK VINA RESULT:      -0.6     15.814     18.228
REMARK  Name = 75537053
REMARK  3 active torsions:
REMARK  status: ('A' for Active; 'I' for Inactive)
REMARK    1  A    between atoms: N_3  and  C_12
REMARK    2  A    between atoms: N_4  and  C_13
REMARK    3  A    between atoms: C_12  and  C_14
REMARK                            x       y       z     vdW  Elec       q    Type
REMARK                         _______ _______ _______ _____ _____    ______ ____
ROOT
ATOM      1  O   UNL     1      -2.117  -0.222  26.285  0.00  0.00    -0.252 OA
ATOM      2  N   UNL     1      -0.988  -0.230  24.246  0.00  0.00    -0.278 N 
ATOM      3  N   UNL     1       1.165  -0.312  22.437  0.00  0.00    -0.295 NA
ATOM      4  N   UNL     1      -2.777   1.146  24.434  0.00  0.00    -0.254 N 
ATOM      6  C   UNL     1      -1.166   0.308  22.920  0.00  0.00    +0.109 C 
ATOM      7  C   UNL     1       0.170   0.775  22.347  0.00  0.00    +0.109 C 
ATOM      8  C   UNL     1      -2.201   1.408  23.120  0.00  0.00    +0.139 C 
ATOM      9  C   UNL     1       0.065  -1.198  24.481  0.00  0.00    +0.125 C 
ATOM     10  C   UNL     1       1.371  -0.719  23.842  0.00  0.00    +0.104 C 
ATOM     11  C   UNL     1      -1.993   0.182  25.136  0.00  0.00    +0.309 C 
ENDROOT
BRANCH   4  13
ATOM     13  C   UNL     1      -3.916   1.846  24.924  0.00  0.00    +0.038 A 
ATOM     15  C   UNL     1      -3.807   3.189  25.283  0.00  0.00    +0.023 A 
ATOM     16  C   UNL     1      -5.141   1.189  25.044  0.00  0.00    +0.023 A 
ATOM     19  C   UNL     1      -4.924   3.876  25.761  0.00  0.00    +0.002 A 
ATOM     20  C   UNL     1      -6.257   1.875  25.522  0.00  0.00    +0.002 A 
ATOM     21  C   UNL     1      -6.149   3.218  25.881  0.00  0.00    +0.000 A 
ENDBRANCH   4  13
BRANCH   3  12
ATOM     12  C   UNL     1       2.433   0.105  21.837  0.00  0.00    +0.121 C 
BRANCH  12  14
ATOM      5  N   UNL     1       4.844  -1.667  24.155  0.00  0.00    -0.263 NA
ATOM     14  C   UNL     1       3.597  -0.136  22.760  0.00  0.00    -0.015 A 
ATOM     17  C   UNL     1       4.482   0.888  23.080  0.00  0.00    +0.008 A 
ATOM     18  C   UNL     1       3.820  -1.383  23.319  0.00  0.00    +0.115 A 
ATOM     22  C   UNL     1       5.548   0.636  23.936  0.00  0.00    +0.020 A 
ATOM     23  C   UNL     1       5.684  -0.647  24.443  0.00  0.00    +0.111 A 
ENDBRANCH  12  14
ENDBRANCH   3  12
TORSDOF 3
ENDMDL
MODEL 4
REMARK VINA RESULT:      -0.5      2.354      3.603
REMARK  Name = 75537053
REMARK  3 active torsions:
REMARK  status: ('A' for Active; 'I' for Inactive)
REMARK    1  A    between atoms: N_3  and  C_12
REMARK    2  A    between atoms: N_4  and  C_13
REMARK    3  A    between atoms: C_12  and  C_14
REMARK                            x       y       z     vdW  Elec       q    Type
REMARK                         _______ _______ _______ _____ _____    ______ ____
ROOT
ATOM      1  O   UNL     1      -3.120  -8.878   9.637  0.00  0.00    -0.252 OA
ATOM      2  N   UNL     1      -4.268 -10.000  11.327  0.00  0.00    -0.278 N 
ATOM      3  N   UNL     1      -6.407 -10.773  12.982  0.00  0.00    -0.295 NA
ATOM      4  N   UNL     1      -2.146  -9.348  11.773  0.00  0.00    -0.254 N 
ATOM      6  C   UNL     1      -3.982 -10.573  12.618  0.00  0.00    +0.109 C 
ATOM      7  C   UNL     1      -5.138 -10.320  13.585  0.00  0.00    +0.109 C 
ATOM      8  C   UNL     1      -2.661  -9.923  13.011  0.00  0.00    +0.139 C 
ATOM      9  C   UNL     1      -5.552 -10.259  10.706  0.00  0.00    +0.125 C 
ATOM     10  C   UNL     1      -6.678 -10.051  11.723  0.00  0.00    +0.104 C 
ATOM     11  C   UNL     1      -3.157  -9.350  10.766  0.00  0.00    +0.309 C 
ENDROOT
BRANCH   4  13
ATOM     13  C   UNL     1      -0.834  -8.802  11.672  0.00  0.00    +0.038 A 
ATOM     15  C   UNL     1      -0.437  -7.778  12.531  0.00  0.00    +0.023 A 
ATOM     16  C   UNL     1       0.053  -9.293  10.713  0.00  0.00    +0.023 A 
ATOM     19  C   UNL     1       0.848  -7.244  12.432  0.00  0.00    +0.002 A 
ATOM     20  C   UNL     1       1.338  -8.759  10.614  0.00  0.00    +0.002 A 
ATOM     21  C   UNL     1       1.735  -7.735  11.473  0.00  0.00    +0.000 A 
ENDBRANCH   4  13
BRANCH   3  12
ATOM     12  C   UNL     1      -7.513 -10.590  13.923  0.00  0.00    +0.121 C 
BRANCH  12  14
ATOM      5  N   UNL     1      -7.452  -9.590  17.573  0.00  0.00    -0.263 NA
ATOM     14  C   UNL     1      -7.023 -10.388  15.332  0.00  0.00    -0.015 A 
ATOM     17  C   UNL     1      -5.743 -10.781  15.709  0.00  0.00    +0.008 A 
ATOM     18  C   UNL     1      -7.830  -9.802  16.293  0.00  0.00    +0.115 A 
ATOM     22  C   UNL     1      -5.318 -10.580  17.017  0.00  0.00    +0.020 A 
ATOM     23  C   UNL     1      -6.202  -9.986  17.904  0.00  0.00    +0.111 A 
ENDBRANCH  12  14
ENDBRANCH   3  12
TORSDOF 3
ENDMDL
