MODEL 1
REMARK VINA RESULT:      11.0      0.000      0.000
REMARK  Name = 11911871
REMARK  9 active torsions:
REMARK  status: ('A' for Active; 'I' for Inactive)
REMARK    1  A    between atoms: O_4  and  C_28
REMARK    2  A    between atoms: N_6  and  C_13
REMARK    3  A    between atoms: N_7  and  C_14
REMARK    4  A    between atoms: N_10  and  C_34
REMARK    5  A    between atoms: N_10  and  C_35
REMARK    6  A    between atoms: N_10  and  C_36
REMARK    7  A    between atoms: C_17  and  C_19
REMARK    8  A    between atoms: C_20  and  C_28
REMARK    9  A    between atoms: C_21  and  C_25
REMARK                            x       y       z     vdW  Elec       q    Type
REMARK                         _______ _______ _______ _____ _____    ______ ____
ROOT
ATOM      1  O   UNL     1      -2.793   3.241  23.881  0.00  0.00    -0.370 OA
ATOM      2  O   UNL     1      -5.216   3.016  25.834  0.00  0.00    -0.370 OA
ATOM     11  C   UNL     1      -3.833   2.637  25.934  0.00  0.00    +0.171 C 
ATOM     12  C   UNL     1      -3.403   2.135  24.569  0.00  0.00    +0.171 C 
ATOM     13  C   UNL     1      -2.970   3.856  26.165  0.00  0.00    +0.130 C 
ATOM     14  C   UNL     1      -4.696   1.748  23.893  0.00  0.00    +0.130 C 
ATOM     15  C   UNL     1      -2.758   4.378  24.755  0.00  0.00    +0.185 C 
ATOM     16  C   UNL     1      -5.698   2.701  24.518  0.00  0.00    +0.185 C 
ENDROOT
BRANCH  14   7
ATOM      7  N   UNL     1      -5.036   0.380  24.221  0.00  0.00    -0.306 N 
ATOM      8  N   UNL     1      -2.804  -0.328  24.063  0.00  0.00    -0.214 NA
ATOM      9  N   UNL     1      -4.559  -1.881  24.625  0.00  0.00    -0.223 NA
ATOM     18  C   UNL     1      -4.105  -0.639  24.306  0.00  0.00    +0.216 A 
ATOM     21  C   UNL     1      -1.924  -1.346  24.155  0.00  0.00    +0.076 A 
ATOM     23  C   UNL     1      -3.625  -2.853  24.699  0.00  0.00    +0.116 A 
ATOM     24  C   UNL     1      -2.280  -2.641  24.473  0.00  0.00    +0.048 A 
ATOM     38  H   UNL     1      -5.995   0.147  24.455  0.00  0.00    +0.149 HD
BRANCH  21  25
ATOM     25  C   UNL     1      -0.549  -0.993  23.896  0.00  0.00    +0.001 A 
ATOM     30  C   UNL     1      -0.247   0.074  23.046  0.00  0.00    +0.012 A 
ATOM     31  C   UNL     1       0.485  -1.717  24.494  0.00  0.00    +0.012 A 
ATOM     32  C   UNL     1       1.082   0.414  22.795  0.00  0.00    +0.024 A 
ATOM     33  C   UNL     1       1.814  -1.376  24.243  0.00  0.00    +0.024 A 
ATOM     34  C   UNL     1       2.113  -0.311  23.394  0.00  0.00    +0.029 A 
BRANCH  34  10
ATOM     10  N   UNL     1       3.457   0.034  23.140  0.00  0.00    -0.336 N 
ATOM     35  C   UNL     1       4.534  -0.796  23.640  0.00  0.00    +0.129 C 
ATOM     36  C   UNL     1       3.778   1.230  22.388  0.00  0.00    +0.129 C 
ENDBRANCH  34  10
ENDBRANCH  21  25
ENDBRANCH  14   7
BRANCH  13   6
ATOM      3  O   UNL     1      -2.468   3.566  28.978  0.00  0.00    -0.270 OA
ATOM      6  N   UNL     1      -1.717   3.499  26.785  0.00  0.00    -0.304 N 
ATOM     17  C   UNL     1      -1.571   3.382  28.160  0.00  0.00    +0.245 C 
ATOM     37  H   UNL     1      -0.922   3.292  26.187  0.00  0.00    +0.149 HD
BRANCH  17  19
ATOM     19  C   UNL     1      -0.210   3.033  28.642  0.00  0.00    +0.051 A 
ATOM     20  C   UNL     1       0.733   2.536  27.766  0.00  0.00    +0.071 A 
ATOM     22  C   UNL     1       0.064   3.226  29.982  0.00  0.00    +0.014 A 
ATOM     26  C   UNL     1       2.002   2.218  28.247  0.00  0.00    +0.016 A 
ATOM     27  C   UNL     1       1.335   2.908  30.464  0.00  0.00    +0.001 A 
ATOM     29  C   UNL     1       2.304   2.404  29.597  0.00  0.00    +0.001 A 
BRANCH  20  28
ATOM      5  O   UNL     1       0.757   3.103  25.442  0.00  0.00    -0.245 OA
ATOM     28  C   UNL     1       0.449   2.330  26.352  0.00  0.00    +0.338 C 
BRANCH  28   4
ATOM      4  O   UNL     1      -0.209   1.162  26.121  0.00  0.00    -0.477 OA
ATOM     39  H   UNL     1       0.369   0.497  25.689  0.00  0.00    +0.295 HD
ENDBRANCH  28   4
ENDBRANCH  20  28
ENDBRANCH  17  19
ENDBRANCH  13   6
TORSDOF 7
ENDMDL
MODEL 2
REMARK VINA RESULT:      11.8      2.048      5.776
REMARK  Name = 11911871
REMARK  9 active torsions:
REMARK  status: ('A' for Active; 'I' for Inactive)
REMARK    1  A    between atoms: O_4  and  C_28
REMARK    2  A    between atoms: N_6  and  C_13
REMARK    3  A    between atoms: N_7  and  C_14
REMARK    4  A    between atoms: N_10  and  C_34
REMARK    5  A    between atoms: N_10  and  C_35
REMARK    6  A    between atoms: N_10  and  C_36
REMARK    7  A    between atoms: C_17  and  C_19
REMARK    8  A    between atoms: C_20  and  C_28
REMARK    9  A    between atoms: C_21  and  C_25
REMARK                            x       y       z     vdW  Elec       q    Type
REMARK                         _______ _______ _______ _____ _____    ______ ____
ROOT
ATOM      1  O   UNL     1      -2.407  -1.529  25.993  0.00  0.00    -0.370 OA
ATOM      2  O   UNL     1      -3.642  -1.571  23.128  0.00  0.00    -0.370 OA
ATOM     11  C   UNL     1      -2.480  -0.939  23.690  0.00  0.00    +0.171 C 
ATOM     12  C   UNL     1      -2.842  -0.495  25.094  0.00  0.00    +0.171 C 
ATOM     13  C   UNL     1      -1.379  -1.953  23.897  0.00  0.00    +0.130 C 
ATOM     14  C   UNL     1      -4.350  -0.414  25.079  0.00  0.00    +0.130 C 
ATOM     15  C   UNL     1      -1.740  -2.554  25.244  0.00  0.00    +0.185 C 
ATOM     16  C   UNL     1      -4.730  -1.473  24.060  0.00  0.00    +0.185 C 
ENDROOT
BRANCH  14   7
ATOM      7  N   UNL     1      -4.771   0.893  24.623  0.00  0.00    -0.306 N 
ATOM      8  N   UNL     1      -2.985   1.966  25.702  0.00  0.00    -0.214 NA
ATOM      9  N   UNL     1      -4.602   3.225  24.433  0.00  0.00    -0.223 NA
ATOM     18  C   UNL     1      -4.099   2.062  24.928  0.00  0.00    +0.216 A 
ATOM     21  C   UNL     1      -2.355   3.127  25.979  0.00  0.00    +0.076 A 
ATOM     23  C   UNL     1      -3.922   4.347  24.750  0.00  0.00    +0.116 A 
ATOM     24  C   UNL     1      -2.781   4.358  25.527  0.00  0.00    +0.048 A 
ATOM     38  H   UNL     1      -5.570   0.970  24.003  0.00  0.00    +0.149 HD
BRANCH  21  25
ATOM     25  C   UNL     1      -1.174   3.002  26.799  0.00  0.00    +0.001 A 
ATOM     30  C   UNL     1       0.075   2.808  26.205  0.00  0.00    +0.012 A 
ATOM     31  C   UNL     1      -1.276   3.074  28.190  0.00  0.00    +0.012 A 
ATOM     32  C   UNL     1       1.216   2.685  26.998  0.00  0.00    +0.024 A 
ATOM     33  C   UNL     1      -0.135   2.952  28.983  0.00  0.00    +0.024 A 
ATOM     34  C   UNL     1       1.111   2.758  28.387  0.00  0.00    +0.029 A 
BRANCH  34  10
ATOM     10  N   UNL     1       2.265   2.635  29.189  0.00  0.00    -0.336 N 
ATOM     35  C   UNL     1       3.493   3.308  28.815  0.00  0.00    +0.129 C 
ATOM     36  C   UNL     1       2.242   1.823  30.389  0.00  0.00    +0.129 C 
ENDBRANCH  34  10
ENDBRANCH  21  25
ENDBRANCH  14   7
BRANCH  13   6
ATOM      3  O   UNL     1       0.135  -0.995  21.653  0.00  0.00    -0.270 OA
ATOM      6  N   UNL     1      -0.084  -1.317  23.940  0.00  0.00    -0.304 N 
ATOM     17  C   UNL     1       0.573  -0.886  22.796  0.00  0.00    +0.245 C 
ATOM     37  H   UNL     1       0.344  -1.150  24.845  0.00  0.00    +0.149 HD
BRANCH  17  19
ATOM     19  C   UNL     1       1.910  -0.275  23.005  0.00  0.00    +0.051 A 
ATOM     20  C   UNL     1       2.022   1.067  23.307  0.00  0.00    +0.071 A 
ATOM     22  C   UNL     1       3.015  -1.094  22.887  0.00  0.00    +0.014 A 
ATOM     26  C   UNL     1       3.291   1.613  23.499  0.00  0.00    +0.016 A 
ATOM     27  C   UNL     1       4.285  -0.549  23.079  0.00  0.00    +0.001 A 
ATOM     29  C   UNL     1       4.423   0.805  23.385  0.00  0.00    +0.001 A 
BRANCH  20  28
ATOM      5  O   UNL     1      -0.307   1.556  23.549  0.00  0.00    -0.245 OA
ATOM     28  C   UNL     1       0.860   1.937  23.431  0.00  0.00    +0.338 C 
BRANCH  28   4
ATOM      4  O   UNL     1       1.196   3.255  23.407  0.00  0.00    -0.477 OA
ATOM     39  H   UNL     1       0.407   3.831  23.313  0.00  0.00    +0.295 HD
ENDBRANCH  28   4
ENDBRANCH  20  28
ENDBRANCH  17  19
ENDBRANCH  13   6
TORSDOF 7
ENDMDL
MODEL 3
REMARK VINA RESULT:      12.7      2.956      5.066
REMARK  Name = 11911871
REMARK  9 active torsions:
REMARK  status: ('A' for Active; 'I' for Inactive)
REMARK    1  A    between atoms: O_4  and  C_28
REMARK    2  A    between atoms: N_6  and  C_13
REMARK    3  A    between atoms: N_7  and  C_14
REMARK    4  A    between atoms: N_10  and  C_34
REMARK    5  A    between atoms: N_10  and  C_35
REMARK    6  A    between atoms: N_10  and  C_36
REMARK    7  A    between atoms: C_17  and  C_19
REMARK    8  A    between atoms: C_20  and  C_28
REMARK    9  A    between atoms: C_21  and  C_25
REMARK                            x       y       z     vdW  Elec       q    Type
REMARK                         _______ _______ _______ _____ _____    ______ ____
ROOT
ATOM      1  O   UNL     1      -1.981   3.635  22.967  0.00  0.00    -0.370 OA
ATOM      2  O   UNL     1      -1.698   5.625  25.353  0.00  0.00    -0.370 OA
ATOM     11  C   UNL     1      -1.713   4.191  25.265  0.00  0.00    +0.171 C 
ATOM     12  C   UNL     1      -2.715   3.815  24.191  0.00  0.00    +0.171 C 
ATOM     13  C   UNL     1      -0.394   3.684  24.729  0.00  0.00    +0.130 C 
ATOM     14  C   UNL     1      -3.616   5.023  24.088  0.00  0.00    +0.130 C 
ATOM     15  C   UNL     1      -0.582   3.810  23.228  0.00  0.00    +0.185 C 
ATOM     16  C   UNL     1      -2.688   6.164  24.464  0.00  0.00    +0.185 C 
ENDROOT
BRANCH  14   7
ATOM      7  N   UNL     1      -4.696   4.919  25.045  0.00  0.00    -0.306 N 
ATOM      8  N   UNL     1      -4.621   2.573  25.039  0.00  0.00    -0.214 NA
ATOM      9  N   UNL     1      -6.206   3.759  26.415  0.00  0.00    -0.223 NA
ATOM     18  C   UNL     1      -5.188   3.715  25.513  0.00  0.00    +0.216 A 
ATOM     21  C   UNL     1      -5.127   1.418  25.517  0.00  0.00    +0.076 A 
ATOM     23  C   UNL     1      -6.664   2.566  26.851  0.00  0.00    +0.116 A 
ATOM     24  C   UNL     1      -6.157   1.352  26.433  0.00  0.00    +0.048 A 
ATOM     38  H   UNL     1      -5.090   5.763  25.445  0.00  0.00    +0.149 HD
BRANCH  21  25
ATOM     25  C   UNL     1      -4.510   0.219  25.002  0.00  0.00    +0.001 A 
ATOM     30  C   UNL     1      -4.142   0.143  23.657  0.00  0.00    +0.012 A 
ATOM     31  C   UNL     1      -4.279  -0.868  25.847  0.00  0.00    +0.012 A 
ATOM     32  C   UNL     1      -3.546  -1.016  23.159  0.00  0.00    +0.024 A 
ATOM     33  C   UNL     1      -3.683  -2.028  25.349  0.00  0.00    +0.024 A 
ATOM     34  C   UNL     1      -3.316  -2.102  24.005  0.00  0.00    +0.029 A 
BRANCH  34  10
ATOM     10  N   UNL     1      -2.713  -3.273  23.502  0.00  0.00    -0.336 N 
ATOM     35  C   UNL     1      -1.303  -3.287  23.169  0.00  0.00    +0.129 C 
ATOM     36  C   UNL     1      -3.500  -4.473  23.297  0.00  0.00    +0.129 C 
ENDBRANCH  34  10
ENDBRANCH  21  25
ENDBRANCH  14   7
BRANCH  13   6
ATOM      3  O   UNL     1      -1.073   1.342  23.213  0.00  0.00    -0.270 OA
ATOM      6  N   UNL     1      -0.166   2.312  25.115  0.00  0.00    -0.304 N 
ATOM     17  C   UNL     1      -0.530   1.241  24.311  0.00  0.00    +0.245 C 
ATOM     37  H   UNL     1       0.312   2.128  25.993  0.00  0.00    +0.149 HD
BRANCH  17  19
ATOM     19  C   UNL     1      -0.252  -0.110  24.862  0.00  0.00    +0.051 A 
ATOM     20  C   UNL     1       0.639  -0.950  24.225  0.00  0.00    +0.071 A 
ATOM     22  C   UNL     1      -0.911  -0.480  26.017  0.00  0.00    +0.014 A 
ATOM     26  C   UNL     1       0.882  -2.212  24.766  0.00  0.00    +0.016 A 
ATOM     27  C   UNL     1      -0.668  -1.743  26.559  0.00  0.00    +0.001 A 
ATOM     29  C   UNL     1       0.228  -2.609  25.933  0.00  0.00    +0.001 A 
BRANCH  20  28
ATOM      5  O   UNL     1       0.874  -0.640  21.865  0.00  0.00    -0.245 OA
ATOM     28  C   UNL     1       1.337  -0.566  23.005  0.00  0.00    +0.338 C 
BRANCH  28   4
ATOM      4  O   UNL     1       2.591  -0.098  23.252  0.00  0.00    -0.477 OA
ATOM     39  H   UNL     1       2.897  -0.332  24.154  0.00  0.00    +0.295 HD
ENDBRANCH  28   4
ENDBRANCH  20  28
ENDBRANCH  17  19
ENDBRANCH  13   6
TORSDOF 7
ENDMDL
MODEL 4
REMARK VINA RESULT:      14.0      2.087      5.650
REMARK  Name = 11911871
REMARK  9 active torsions:
REMARK  status: ('A' for Active; 'I' for Inactive)
REMARK    1  A    between atoms: O_4  and  C_28
REMARK    2  A    between atoms: N_6  and  C_13
REMARK    3  A    between atoms: N_7  and  C_14
REMARK    4  A    between atoms: N_10  and  C_34
REMARK    5  A    between atoms: N_10  and  C_35
REMARK    6  A    between atoms: N_10  and  C_36
REMARK    7  A    between atoms: C_17  and  C_19
REMARK    8  A    between atoms: C_20  and  C_28
REMARK    9  A    between atoms: C_21  and  C_25
REMARK                            x       y       z     vdW  Elec       q    Type
REMARK                         _______ _______ _______ _____ _____    ______ ____
ROOT
ATOM      1  O   UNL     1      -3.686  -0.739  26.243  0.00  0.00    -0.370 OA
ATOM      2  O   UNL     1      -5.242  -0.818  23.540  0.00  0.00    -0.370 OA
ATOM     11  C   UNL     1      -3.870  -0.557  23.878  0.00  0.00    +0.171 C 
ATOM     12  C   UNL     1      -3.866   0.216  25.183  0.00  0.00    +0.171 C 
ATOM     13  C   UNL     1      -3.157  -1.846  24.213  0.00  0.00    +0.130 C 
ATOM     14  C   UNL     1      -5.246   0.825  25.255  0.00  0.00    +0.130 C 
ATOM     15  C   UNL     1      -3.512  -2.045  25.676  0.00  0.00    +0.185 C 
ATOM     16  C   UNL     1      -6.096  -0.183  24.504  0.00  0.00    +0.185 C 
ENDROOT
BRANCH  14   7
ATOM      7  N   UNL     1      -5.261   2.100  24.572  0.00  0.00    -0.306 N 
ATOM      8  N   UNL     1      -3.199   2.742  25.492  0.00  0.00    -0.214 NA
ATOM      9  N   UNL     1      -4.392   4.200  23.987  0.00  0.00    -0.223 NA
ATOM     18  C   UNL     1      -4.254   3.041  24.687  0.00  0.00    +0.216 A 
ATOM     21  C   UNL     1      -2.236   3.683  25.580  0.00  0.00    +0.076 A 
ATOM     23  C   UNL     1      -3.392   5.096  24.123  0.00  0.00    +0.116 A 
ATOM     24  C   UNL     1      -2.279   4.889  24.912  0.00  0.00    +0.048 A 
ATOM     38  H   UNL     1      -6.016   2.312  23.929  0.00  0.00    +0.149 HD
BRANCH  21  25
ATOM     25  C   UNL     1      -1.126   3.344  26.438  0.00  0.00    +0.001 A 
ATOM     30  C   UNL     1       0.128   3.071  25.886  0.00  0.00    +0.012 A 
ATOM     31  C   UNL     1      -1.301   3.287  27.822  0.00  0.00    +0.012 A 
ATOM     32  C   UNL     1       1.201   2.742  26.714  0.00  0.00    +0.024 A 
ATOM     33  C   UNL     1      -0.228   2.958  28.651  0.00  0.00    +0.024 A 
ATOM     34  C   UNL     1       1.023   2.686  28.097  0.00  0.00    +0.029 A 
BRANCH  34  10
ATOM     10  N   UNL     1       2.108   2.354  28.935  0.00  0.00    -0.336 N 
ATOM     35  C   UNL     1       1.873   1.835  30.267  0.00  0.00    +0.129 C 
ATOM     36  C   UNL     1       3.471   2.541  28.479  0.00  0.00    +0.129 C 
ENDBRANCH  34  10
ENDBRANCH  21  25
ENDBRANCH  14   7
BRANCH  13   6
ATOM      3  O   UNL     1      -1.735   0.520  23.423  0.00  0.00    -0.270 OA
ATOM      6  N   UNL     1      -1.731  -1.717  24.035  0.00  0.00    -0.304 N 
ATOM     17  C   UNL     1      -1.132  -0.526  23.649  0.00  0.00    +0.245 C 
ATOM     37  H   UNL     1      -1.142  -2.521  24.234  0.00  0.00    +0.149 HD
BRANCH  17  19
ATOM     19  C   UNL     1       0.344  -0.563  23.484  0.00  0.00    +0.051 A 
ATOM     20  C   UNL     1       1.121  -1.313  24.342  0.00  0.00    +0.071 A 
ATOM     22  C   UNL     1       0.892   0.174  22.452  0.00  0.00    +0.014 A 
ATOM     26  C   UNL     1       2.504  -1.329  24.161  0.00  0.00    +0.016 A 
ATOM     27  C   UNL     1       2.275   0.158  22.271  0.00  0.00    +0.001 A 
ATOM     29  C   UNL     1       3.081  -0.594  23.126  0.00  0.00    +0.001 A 
BRANCH  20  28
ATOM      5  O   UNL     1       0.657  -3.312  25.572  0.00  0.00    -0.245 OA
ATOM     28  C   UNL     1       0.548  -2.091  25.433  0.00  0.00    +0.338 C 
BRANCH  28   4
ATOM      4  O   UNL     1      -0.139  -1.317  26.315  0.00  0.00    -0.477 OA
ATOM     39  H   UNL     1      -0.729  -1.852  26.888  0.00  0.00    +0.295 HD
ENDBRANCH  28   4
ENDBRANCH  20  28
ENDBRANCH  17  19
ENDBRANCH  13   6
TORSDOF 7
ENDMDL
MODEL 5
REMARK VINA RESULT:      14.0      2.510      6.392
REMARK  Name = 11911871
REMARK  9 active torsions:
REMARK  status: ('A' for Active; 'I' for Inactive)
REMARK    1  A    between atoms: O_4  and  C_28
REMARK    2  A    between atoms: N_6  and  C_13
REMARK    3  A    between atoms: N_7  and  C_14
REMARK    4  A    between atoms: N_10  and  C_34
REMARK    5  A    between atoms: N_10  and  C_35
REMARK    6  A    between atoms: N_10  and  C_36
REMARK    7  A    between atoms: C_17  and  C_19
REMARK    8  A    between atoms: C_20  and  C_28
REMARK    9  A    between atoms: C_21  and  C_25
REMARK                            x       y       z     vdW  Elec       q    Type
REMARK                         _______ _______ _______ _____ _____    ______ ____
ROOT
ATOM      1  O   UNL     1      -2.710  -2.121  24.027  0.00  0.00    -0.370 OA
ATOM      2  O   UNL     1      -0.293  -2.011  25.997  0.00  0.00    -0.370 OA
ATOM     11  C   UNL     1      -1.036  -1.002  25.295  0.00  0.00    +0.171 C 
ATOM     12  C   UNL     1      -1.387  -1.565  23.931  0.00  0.00    +0.171 C 
ATOM     13  C   UNL     1      -2.377  -0.782  25.957  0.00  0.00    +0.130 C 
ATOM     14  C   UNL     1      -0.373  -2.663  23.714  0.00  0.00    +0.130 C 
ATOM     15  C   UNL     1      -3.228  -1.879  25.343  0.00  0.00    +0.185 C 
ATOM     16  C   UNL     1      -0.083  -3.134  25.127  0.00  0.00    +0.185 C 
ENDROOT
BRANCH  14   7
ATOM      7  N   UNL     1       0.825  -2.118  23.112  0.00  0.00    -0.306 N 
ATOM      8  N   UNL     1       0.369   0.045  23.900  0.00  0.00    -0.214 NA
ATOM      9  N   UNL     1       2.345  -0.407  22.595  0.00  0.00    -0.223 NA
ATOM     18  C   UNL     1       1.190  -0.788  23.206  0.00  0.00    +0.216 A 
ATOM     21  C   UNL     1       0.756   1.336  23.970  0.00  0.00    +0.076 A 
ATOM     23  C   UNL     1       2.671   0.898  22.705  0.00  0.00    +0.116 A 
ATOM     24  C   UNL     1       1.908   1.823  23.387  0.00  0.00    +0.048 A 
ATOM     38  H   UNL     1       1.471  -2.739  22.638  0.00  0.00    +0.149 HD
BRANCH  21  25
ATOM     25  C   UNL     1      -0.128   2.201  24.713  0.00  0.00    +0.001 A 
ATOM     30  C   UNL     1      -0.476   1.886  26.028  0.00  0.00    +0.012 A 
ATOM     31  C   UNL     1      -0.640   3.357  24.118  0.00  0.00    +0.012 A 
ATOM     32  C   UNL     1      -1.332   2.722  26.746  0.00  0.00    +0.024 A 
ATOM     33  C   UNL     1      -1.496   4.192  24.836  0.00  0.00    +0.024 A 
ATOM     34  C   UNL     1      -1.842   3.875  26.149  0.00  0.00    +0.029 A 
BRANCH  34  10
ATOM     10  N   UNL     1      -2.707   4.721  26.875  0.00  0.00    -0.336 N 
ATOM     35  C   UNL     1      -3.072   6.021  26.350  0.00  0.00    +0.129 C 
ATOM     36  C   UNL     1      -3.230   4.306  28.161  0.00  0.00    +0.129 C 
ENDBRANCH  34  10
ENDBRANCH  21  25
ENDBRANCH  14   7
BRANCH  13   6
ATOM      3  O   UNL     1      -4.963  -0.195  24.855  0.00  0.00    -0.270 OA
ATOM      6  N   UNL     1      -2.905   0.525  25.646  0.00  0.00    -0.304 N 
ATOM     17  C   UNL     1      -4.173   0.709  25.113  0.00  0.00    +0.245 C 
ATOM     37  H   UNL     1      -2.338   1.341  25.859  0.00  0.00    +0.149 HD
BRANCH  17  19
ATOM     19  C   UNL     1      -4.560   2.114  24.824  0.00  0.00    +0.051 A 
ATOM     20  C   UNL     1      -4.133   2.729  23.665  0.00  0.00    +0.071 A 
ATOM     22  C   UNL     1      -5.351   2.765  25.751  0.00  0.00    +0.014 A 
ATOM     26  C   UNL     1      -4.512   4.048  23.420  0.00  0.00    +0.016 A 
ATOM     27  C   UNL     1      -5.731   4.085  25.506  0.00  0.00    +0.001 A 
ATOM     29  C   UNL     1      -5.312   4.727  24.341  0.00  0.00    +0.001 A 
BRANCH  20  28
ATOM      5  O   UNL     1      -2.682   2.596  21.768  0.00  0.00    -0.245 OA
ATOM     28  C   UNL     1      -3.297   2.048  22.685  0.00  0.00    +0.338 C 
BRANCH  28   4
ATOM      4  O   UNL     1      -3.256   0.702  22.885  0.00  0.00    -0.477 OA
ATOM     39  H   UNL     1      -2.768   0.242  22.169  0.00  0.00    +0.295 HD
ENDBRANCH  28   4
ENDBRANCH  20  28
ENDBRANCH  17  19
ENDBRANCH  13   6
TORSDOF 7
ENDMDL
MODEL 6
REMARK VINA RESULT:      14.7      2.412      6.501
REMARK  Name = 11911871
REMARK  9 active torsions:
REMARK  status: ('A' for Active; 'I' for Inactive)
REMARK    1  A    between atoms: O_4  and  C_28
REMARK    2  A    between atoms: N_6  and  C_13
REMARK    3  A    between atoms: N_7  and  C_14
REMARK    4  A    between atoms: N_10  and  C_34
REMARK    5  A    between atoms: N_10  and  C_35
REMARK    6  A    between atoms: N_10  and  C_36
REMARK    7  A    between atoms: C_17  and  C_19
REMARK    8  A    between atoms: C_20  and  C_28
REMARK    9  A    between atoms: C_21  and  C_25
REMARK                            x       y       z     vdW  Elec       q    Type
REMARK                         _______ _______ _______ _____ _____    ______ ____
ROOT
ATOM      1  O   UNL     1      -2.557  -2.114  24.027  0.00  0.00    -0.370 OA
ATOM      2  O   UNL     1      -0.232  -1.894  26.095  0.00  0.00    -0.370 OA
ATOM     11  C   UNL     1      -0.906  -0.932  25.267  0.00  0.00    +0.171 C 
ATOM     12  C   UNL     1      -1.213  -1.610  23.946  0.00  0.00    +0.171 C 
ATOM     13  C   UNL     1      -2.268  -0.611  25.840  0.00  0.00    +0.130 C 
ATOM     14  C   UNL     1      -0.229  -2.754  23.880  0.00  0.00    +0.130 C 
ATOM     15  C   UNL     1      -3.127  -1.734  25.288  0.00  0.00    +0.185 C 
ATOM     16  C   UNL     1      -0.021  -3.100  25.344  0.00  0.00    +0.185 C 
ENDROOT
BRANCH  14   7
ATOM      7  N   UNL     1       1.014  -2.305  23.291  0.00  0.00    -0.306 N 
ATOM      8  N   UNL     1       0.598  -0.064  23.854  0.00  0.00    -0.214 NA
ATOM      9  N   UNL     1       2.615  -0.696  22.695  0.00  0.00    -0.223 NA
ATOM     18  C   UNL     1       1.421  -0.983  23.280  0.00  0.00    +0.216 A 
ATOM     21  C   UNL     1       1.027   1.215  23.825  0.00  0.00    +0.076 A 
ATOM     23  C   UNL     1       2.981   0.603  22.701  0.00  0.00    +0.116 A 
ATOM     24  C   UNL     1       2.220   1.611  23.257  0.00  0.00    +0.048 A 
ATOM     38  H   UNL     1       1.659  -2.987  22.908  0.00  0.00    +0.149 HD
BRANCH  21  25
ATOM     25  C   UNL     1       0.140   2.172  24.441  0.00  0.00    +0.001 A 
ATOM     30  C   UNL     1      -0.348   3.253  23.702  0.00  0.00    +0.012 A 
ATOM     31  C   UNL     1      -0.234   2.021  25.778  0.00  0.00    +0.012 A 
ATOM     32  C   UNL     1      -1.204   4.179  24.298  0.00  0.00    +0.024 A 
ATOM     33  C   UNL     1      -1.090   2.947  26.374  0.00  0.00    +0.024 A 
ATOM     34  C   UNL     1      -1.576   4.026  25.634  0.00  0.00    +0.029 A 
BRANCH  34  10
ATOM     10  N   UNL     1      -2.442   4.962  26.237  0.00  0.00    -0.336 N 
ATOM     35  C   UNL     1      -3.228   4.593  27.397  0.00  0.00    +0.129 C 
ATOM     36  C   UNL     1      -2.568   6.300  25.695  0.00  0.00    +0.129 C 
ENDBRANCH  34  10
ENDBRANCH  21  25
ENDBRANCH  14   7
BRANCH  13   6
ATOM      3  O   UNL     1      -4.710  -0.074  24.428  0.00  0.00    -0.270 OA
ATOM      6  N   UNL     1      -2.735   0.676  25.384  0.00  0.00    -0.304 N 
ATOM     17  C   UNL     1      -3.936   0.837  24.707  0.00  0.00    +0.245 C 
ATOM     37  H   UNL     1      -2.178   1.499  25.600  0.00  0.00    +0.149 HD
BRANCH  17  19
ATOM     19  C   UNL     1      -4.262   2.222  24.282  0.00  0.00    +0.051 A 
ATOM     20  C   UNL     1      -5.218   2.951  24.960  0.00  0.00    +0.071 A 
ATOM     22  C   UNL     1      -3.579   2.739  23.198  0.00  0.00    +0.014 A 
ATOM     26  C   UNL     1      -5.503   4.249  24.538  0.00  0.00    +0.016 A 
ATOM     27  C   UNL     1      -3.863   4.038  22.777  0.00  0.00    +0.001 A 
ATOM     29  C   UNL     1      -4.825   4.793  23.447  0.00  0.00    +0.001 A 
BRANCH  20  28
ATOM      5  O   UNL     1      -5.703   2.665  27.285  0.00  0.00    -0.245 OA
ATOM     28  C   UNL     1      -5.944   2.411  26.102  0.00  0.00    +0.338 C 
BRANCH  28   4
ATOM      4  O   UNL     1      -6.948   1.573  25.728  0.00  0.00    -0.477 OA
ATOM     39  H   UNL     1      -7.615   2.028  25.171  0.00  0.00    +0.295 HD
ENDBRANCH  28   4
ENDBRANCH  20  28
ENDBRANCH  17  19
ENDBRANCH  13   6
TORSDOF 7
ENDMDL
MODEL 7
REMARK VINA RESULT:      14.8      2.568      4.925
REMARK  Name = 11911871
REMARK  9 active torsions:
REMARK  status: ('A' for Active; 'I' for Inactive)
REMARK    1  A    between atoms: O_4  and  C_28
REMARK    2  A    between atoms: N_6  and  C_13
REMARK    3  A    between atoms: N_7  and  C_14
REMARK    4  A    between atoms: N_10  and  C_34
REMARK    5  A    between atoms: N_10  and  C_35
REMARK    6  A    between atoms: N_10  and  C_36
REMARK    7  A    between atoms: C_17  and  C_19
REMARK    8  A    between atoms: C_20  and  C_28
REMARK    9  A    between atoms: C_21  and  C_25
REMARK                            x       y       z     vdW  Elec       q    Type
REMARK                         _______ _______ _______ _____ _____    ______ ____
ROOT
ATOM      1  O   UNL     1      -1.514   4.950  24.390  0.00  0.00    -0.370 OA
ATOM      2  O   UNL     1      -2.575   3.470  26.923  0.00  0.00    -0.370 OA
ATOM     11  C   UNL     1      -2.250   3.034  25.593  0.00  0.00    +0.171 C 
ATOM     12  C   UNL     1      -2.673   4.136  24.641  0.00  0.00    +0.171 C 
ATOM     13  C   UNL     1      -0.751   2.953  25.419  0.00  0.00    +0.130 C 
ATOM     14  C   UNL     1      -3.704   4.920  25.417  0.00  0.00    +0.130 C 
ATOM     15  C   UNL     1      -0.385   4.385  25.072  0.00  0.00    +0.185 C 
ATOM     16  C   UNL     1      -3.251   4.735  26.854  0.00  0.00    +0.185 C 
ENDROOT
BRANCH  14   7
ATOM      7  N   UNL     1      -5.015   4.338  25.227  0.00  0.00    -0.306 N 
ATOM      8  N   UNL     1      -4.155   2.155  25.153  0.00  0.00    -0.214 NA
ATOM      9  N   UNL     1      -6.520   2.563  24.927  0.00  0.00    -0.223 NA
ATOM     18  C   UNL     1      -5.236   2.978  25.099  0.00  0.00    +0.216 A 
ATOM     21  C   UNL     1      -4.408   0.836  25.024  0.00  0.00    +0.076 A 
ATOM     23  C   UNL     1      -6.700   1.231  24.804  0.00  0.00    +0.116 A 
ATOM     24  C   UNL     1      -5.672   0.312  24.846  0.00  0.00    +0.048 A 
ATOM     38  H   UNL     1      -5.832   4.937  25.239  0.00  0.00    +0.149 HD
BRANCH  21  25
ATOM     25  C   UNL     1      -3.247  -0.019  25.086  0.00  0.00    +0.001 A 
ATOM     30  C   UNL     1      -3.080  -1.044  24.151  0.00  0.00    +0.012 A 
ATOM     31  C   UNL     1      -2.287   0.174  26.081  0.00  0.00    +0.012 A 
ATOM     32  C   UNL     1      -1.959  -1.871  24.212  0.00  0.00    +0.024 A 
ATOM     33  C   UNL     1      -1.166  -0.653  26.142  0.00  0.00    +0.024 A 
ATOM     34  C   UNL     1      -1.001  -1.676  25.208  0.00  0.00    +0.029 A 
BRANCH  34  10
ATOM     10  N   UNL     1       0.133  -2.512  25.269  0.00  0.00    -0.336 N 
ATOM     35  C   UNL     1       1.440  -2.002  24.909  0.00  0.00    +0.129 C 
ATOM     36  C   UNL     1       0.003  -3.896  25.678  0.00  0.00    +0.129 C 
ENDBRANCH  34  10
ENDBRANCH  21  25
ENDBRANCH  14   7
BRANCH  13   6
ATOM      3  O   UNL     1       1.836   1.807  24.927  0.00  0.00    -0.270 OA
ATOM      6  N   UNL     1      -0.397   2.050  24.350  0.00  0.00    -0.304 N 
ATOM     17  C   UNL     1       0.886   1.546  24.193  0.00  0.00    +0.245 C 
ATOM     37  H   UNL     1      -1.126   1.747  23.710  0.00  0.00    +0.149 HD
BRANCH  17  19
ATOM     19  C   UNL     1       1.095   0.649  23.027  0.00  0.00    +0.051 A 
ATOM     20  C   UNL     1       2.366   0.429  22.538  0.00  0.00    +0.071 A 
ATOM     22  C   UNL     1      -0.020   0.056  22.467  0.00  0.00    +0.014 A 
ATOM     26  C   UNL     1       2.531  -0.419  21.443  0.00  0.00    +0.016 A 
ATOM     27  C   UNL     1       0.145  -0.793  21.372  0.00  0.00    +0.001 A 
ATOM     29  C   UNL     1       1.421  -1.030  20.860  0.00  0.00    +0.001 A 
BRANCH  20  28
ATOM      5  O   UNL     1       4.354   0.492  23.867  0.00  0.00    -0.245 OA
ATOM     28  C   UNL     1       3.545   1.053  23.124  0.00  0.00    +0.338 C 
BRANCH  28   4
ATOM      4  O   UNL     1       3.676   2.357  22.759  0.00  0.00    -0.477 OA
ATOM     39  H   UNL     1       4.557   2.716  22.999  0.00  0.00    +0.295 HD
ENDBRANCH  28   4
ENDBRANCH  20  28
ENDBRANCH  17  19
ENDBRANCH  13   6
TORSDOF 7
ENDMDL
