MODEL 1
REMARK VINA RESULT:      -4.7      0.000      0.000
REMARK  Name = 75537127
REMARK  3 active torsions:
REMARK  status: ('A' for Active; 'I' for Inactive)
REMARK    1  A    between atoms: N_2  and  C_7
REMARK    2  A    between atoms: N_4  and  C_18
REMARK    3  A    between atoms: C_18  and  C_19
REMARK                            x       y       z     vdW  Elec       q    Type
REMARK                         _______ _______ _______ _____ _____    ______ ____
ROOT
ATOM      1  O   UNL     1      -4.792 -10.002  17.030  0.00  0.00    -0.252 OA
ATOM      2  N   UNL     1      -6.825 -10.050  15.832  0.00  0.00    -0.281 N 
ATOM      3  N   UNL     1      -4.921 -10.539  14.746  0.00  0.00    -0.278 N 
ATOM      4  N   UNL     1      -4.263 -10.550  12.011  0.00  0.00    -0.295 NA
ATOM      6  C   UNL     1      -5.966 -10.780  13.773  0.00  0.00    +0.109 C 
ATOM      8  C   UNL     1      -7.222 -10.228  14.446  0.00  0.00    +0.133 C 
ATOM      9  C   UNL     1      -5.612 -10.125  12.439  0.00  0.00    +0.109 C 
ATOM     12  C   UNL     1      -5.431 -10.180  16.001  0.00  0.00    +0.305 C 
ATOM     13  C   UNL     1      -3.541 -10.781  14.379  0.00  0.00    +0.125 C 
ATOM     14  C   UNL     1      -3.248 -10.160  13.010  0.00  0.00    +0.104 C 
ENDROOT
BRANCH   2   7
ATOM      7  C   UNL     1      -7.762  -9.641  16.850  0.00  0.00    +0.078 C 
ATOM     10  C   UNL     1      -7.979 -10.768  17.863  0.00  0.00    +0.022 C 
ATOM     11  C   UNL     1      -9.085  -9.196  16.221  0.00  0.00    +0.022 C 
ATOM     15  C   UNL     1      -9.008 -10.381  18.922  0.00  0.00    +0.002 C 
ATOM     16  C   UNL     1     -10.111  -8.811  17.283  0.00  0.00    +0.002 C 
ATOM     17  C   UNL     1     -10.324  -9.934  18.293  0.00  0.00    +0.000 C 
ENDBRANCH   2   7
BRANCH   4  18
ATOM     18  C   UNL     1      -3.939  -9.977  10.705  0.00  0.00    +0.121 C 
BRANCH  18  19
ATOM      5  N   UNL     1      -7.176 -10.178   8.750  0.00  0.00    -0.263 NA
ATOM     19  C   UNL     1      -5.175  -9.554   9.956  0.00  0.00    -0.015 A 
ATOM     20  C   UNL     1      -5.472  -8.209   9.765  0.00  0.00    +0.008 A 
ATOM     21  C   UNL     1      -6.051 -10.491   9.434  0.00  0.00    +0.115 A 
ATOM     22  C   UNL     1      -6.619  -7.847   9.067  0.00  0.00    +0.020 A 
ATOM     23  C   UNL     1      -7.431  -8.862   8.585  0.00  0.00    +0.111 A 
ENDBRANCH  18  19
ENDBRANCH   4  18
TORSDOF 3
ENDMDL
MODEL 2
REMARK VINA RESULT:      -2.1      1.610      2.344
REMARK  Name = 75537127
REMARK  3 active torsions:
REMARK  status: ('A' for Active; 'I' for Inactive)
REMARK    1  A    between atoms: N_2  and  C_7
REMARK    2  A    between atoms: N_4  and  C_18
REMARK    3  A    between atoms: C_18  and  C_19
REMARK                            x       y       z     vdW  Elec       q    Type
REMARK                         _______ _______ _______ _____ _____    ______ ____
ROOT
ATOM      1  O   UNL     1      -3.158 -10.760  17.045  0.00  0.00    -0.252 OA
ATOM      2  N   UNL     1      -5.222 -10.729  15.902  0.00  0.00    -0.281 N 
ATOM      3  N   UNL     1      -3.324 -10.684  14.703  0.00  0.00    -0.278 N 
ATOM      4  N   UNL     1      -2.787  -9.893  12.057  0.00  0.00    -0.295 NA
ATOM      6  C   UNL     1      -4.377 -10.781  13.713  0.00  0.00    +0.109 C 
ATOM      8  C   UNL     1      -5.656 -10.578  14.524  0.00  0.00    +0.133 C 
ATOM      9  C   UNL     1      -4.156  -9.759  12.599  0.00  0.00    +0.109 C 
ATOM     12  C   UNL     1      -3.817 -10.733  16.014  0.00  0.00    +0.305 C 
ATOM     13  C   UNL     1      -1.944 -10.656  14.268  0.00  0.00    +0.125 C 
ATOM     14  C   UNL     1      -1.780  -9.665  13.112  0.00  0.00    +0.104 C 
ENDROOT
BRANCH   2   7
ATOM      7  C   UNL     1      -6.155 -10.717  17.004  0.00  0.00    +0.078 C 
ATOM     10  C   UNL     1      -7.138  -9.553  16.862  0.00  0.00    +0.022 C 
ATOM     11  C   UNL     1      -5.412 -10.659  18.341  0.00  0.00    +0.022 C 
ATOM     15  C   UNL     1      -8.103  -9.485  18.042  0.00  0.00    +0.002 C 
ATOM     16  C   UNL     1      -6.380 -10.591  19.520  0.00  0.00    +0.002 C 
ATOM     17  C   UNL     1      -7.361  -9.431  19.375  0.00  0.00    +0.000 C 
ENDBRANCH   2   7
BRANCH   4  18
ATOM     18  C   UNL     1      -2.585  -8.960  10.949  0.00  0.00    +0.121 C 
BRANCH  18  19
ATOM      5  N   UNL     1      -5.676  -7.389   9.429  0.00  0.00    -0.263 NA
ATOM     19  C   UNL     1      -3.833  -8.791  10.124  0.00  0.00    -0.015 A 
ATOM     20  C   UNL     1      -4.304  -9.822   9.317  0.00  0.00    +0.008 A 
ATOM     21  C   UNL     1      -4.549  -7.606  10.144  0.00  0.00    +0.115 A 
ATOM     22  C   UNL     1      -5.460  -9.638   8.567  0.00  0.00    +0.020 A 
ATOM     23  C   UNL     1      -6.103  -8.413   8.657  0.00  0.00    +0.111 A 
ENDBRANCH  18  19
ENDBRANCH   4  18
TORSDOF 3
ENDMDL
MODEL 3
REMARK VINA RESULT:      -1.8      2.916      4.443
REMARK  Name = 75537127
REMARK  3 active torsions:
REMARK  status: ('A' for Active; 'I' for Inactive)
REMARK    1  A    between atoms: N_2  and  C_7
REMARK    2  A    between atoms: N_4  and  C_18
REMARK    3  A    between atoms: C_18  and  C_19
REMARK                            x       y       z     vdW  Elec       q    Type
REMARK                         _______ _______ _______ _____ _____    ______ ____
ROOT
ATOM      1  O   UNL     1      -4.080 -10.255  16.663  0.00  0.00    -0.252 OA
ATOM      2  N   UNL     1      -5.665 -10.467  14.928  0.00  0.00    -0.281 N 
ATOM      3  N   UNL     1      -3.481 -10.506  14.405  0.00  0.00    -0.278 N 
ATOM      4  N   UNL     1      -2.117 -10.061  11.986  0.00  0.00    -0.295 NA
ATOM      6  C   UNL     1      -4.159 -10.781  13.155  0.00  0.00    +0.109 C 
ATOM      8  C   UNL     1      -5.631 -10.524  13.477  0.00  0.00    +0.133 C 
ATOM      9  C   UNL     1      -3.586  -9.912  12.037  0.00  0.00    +0.109 C 
ATOM     12  C   UNL     1      -4.371 -10.396  15.482  0.00  0.00    +0.305 C 
ATOM     13  C   UNL     1      -2.034 -10.479  14.435  0.00  0.00    +0.125 C 
ATOM     14  C   UNL     1      -1.502  -9.649  13.264  0.00  0.00    +0.104 C 
ENDROOT
BRANCH   2   7
ATOM      7  C   UNL     1      -6.903 -10.345  15.660  0.00  0.00    +0.078 C 
ATOM     10  C   UNL     1      -8.059 -10.028  14.708  0.00  0.00    +0.022 C 
ATOM     11  C   UNL     1      -6.780  -9.286  16.758  0.00  0.00    +0.022 C 
ATOM     15  C   UNL     1      -9.373  -9.842  15.463  0.00  0.00    +0.002 C 
ATOM     16  C   UNL     1      -8.096  -9.101  17.510  0.00  0.00    +0.002 C 
ATOM     17  C   UNL     1      -9.248  -8.788  16.560  0.00  0.00    +0.000 C 
ENDBRANCH   2   7
BRANCH   4  18
ATOM     18  C   UNL     1      -1.564  -9.280  10.880  0.00  0.00    +0.121 C 
BRANCH  18  19
ATOM      5  N   UNL     1       2.078  -8.256  11.025  0.00  0.00    -0.263 NA
ATOM     19  C   UNL     1      -0.309  -8.552  11.278  0.00  0.00    -0.015 A 
ATOM     20  C   UNL     1      -0.340  -7.539  12.231  0.00  0.00    +0.008 A 
ATOM     21  C   UNL     1       0.914  -8.870  10.711  0.00  0.00    +0.115 A 
ATOM     22  C   UNL     1       0.836  -6.885  12.582  0.00  0.00    +0.020 A 
ATOM     23  C   UNL     1       2.007  -7.277  11.954  0.00  0.00    +0.111 A 
ENDBRANCH  18  19
ENDBRANCH   4  18
TORSDOF 3
ENDMDL
MODEL 4
REMARK VINA RESULT:      -1.2     15.831     17.110
REMARK  Name = 75537127
REMARK  3 active torsions:
REMARK  status: ('A' for Active; 'I' for Inactive)
REMARK    1  A    between atoms: N_2  and  C_7
REMARK    2  A    between atoms: N_4  and  C_18
REMARK    3  A    between atoms: C_18  and  C_19
REMARK                            x       y       z     vdW  Elec       q    Type
REMARK                         _______ _______ _______ _____ _____    ______ ____
ROOT
ATOM      1  O   UNL     1      -1.907   3.954  25.307  0.00  0.00    -0.252 OA
ATOM      2  N   UNL     1      -2.955   1.956  24.616  0.00  0.00    -0.281 N 
ATOM      3  N   UNL     1      -0.714   2.005  24.760  0.00  0.00    -0.278 N 
ATOM      4  N   UNL     1       1.282   0.381  23.624  0.00  0.00    -0.295 NA
ATOM      6  C   UNL     1      -1.027   0.628  24.440  0.00  0.00    +0.109 C 
ATOM      8  C   UNL     1      -2.521   0.661  24.121  0.00  0.00    +0.133 C 
ATOM      9  C   UNL     1      -0.139   0.131  23.301  0.00  0.00    +0.109 C 
ATOM     12  C   UNL     1      -1.863   2.785  24.945  0.00  0.00    +0.305 C 
ATOM     13  C   UNL     1       0.668   2.392  24.951  0.00  0.00    +0.125 C 
ATOM     14  C   UNL     1       1.531   1.823  23.820  0.00  0.00    +0.104 C 
ENDROOT
BRANCH   2   7
ATOM      7  C   UNL     1      -4.342   2.352  24.610  0.00  0.00    +0.078 C 
ATOM     10  C   UNL     1      -4.586   3.467  25.630  0.00  0.00    +0.022 C 
ATOM     11  C   UNL     1      -5.250   1.148  24.873  0.00  0.00    +0.022 C 
ATOM     15  C   UNL     1      -6.058   3.869  25.681  0.00  0.00    +0.002 C 
ATOM     16  C   UNL     1      -6.721   1.554  24.925  0.00  0.00    +0.002 C 
ATOM     17  C   UNL     1      -6.962   2.667  25.940  0.00  0.00    +0.000 C 
ENDBRANCH   2   7
BRANCH   4  18
ATOM     18  C   UNL     1       2.144  -0.146  22.567  0.00  0.00    +0.121 C 
BRANCH  18  19
ATOM      5  N   UNL     1       5.211  -1.732  24.121  0.00  0.00    -0.263 NA
ATOM     19  C   UNL     1       3.561  -0.334  23.039  0.00  0.00    -0.015 A 
ATOM     20  C   UNL     1       4.515   0.662  22.857  0.00  0.00    +0.008 A 
ATOM     21  C   UNL     1       3.956  -1.501  23.671  0.00  0.00    +0.115 A 
ATOM     22  C   UNL     1       5.816   0.462  23.306  0.00  0.00    +0.020 A 
ATOM     23  C   UNL     1       6.110  -0.743  23.925  0.00  0.00    +0.111 A 
ENDBRANCH  18  19
ENDBRANCH   4  18
TORSDOF 3
ENDMDL
MODEL 5
REMARK VINA RESULT:      -0.8     15.387     16.671
REMARK  Name = 75537127
REMARK  3 active torsions:
REMARK  status: ('A' for Active; 'I' for Inactive)
REMARK    1  A    between atoms: N_2  and  C_7
REMARK    2  A    between atoms: N_4  and  C_18
REMARK    3  A    between atoms: C_18  and  C_19
REMARK                            x       y       z     vdW  Elec       q    Type
REMARK                         _______ _______ _______ _____ _____    ______ ____
ROOT
ATOM      1  O   UNL     1      -1.930  -0.460  26.498  0.00  0.00    -0.252 OA
ATOM      2  N   UNL     1      -2.575   1.087  24.837  0.00  0.00    -0.281 N 
ATOM      3  N   UNL     1      -0.908  -0.349  24.385  0.00  0.00    -0.278 N 
ATOM      4  N   UNL     1       1.142  -0.308  22.460  0.00  0.00    -0.295 NA
ATOM      6  C   UNL     1      -1.129   0.355  23.139  0.00  0.00    +0.109 C 
ATOM      8  C   UNL     1      -2.095   1.475  23.522  0.00  0.00    +0.133 C 
ATOM      9  C   UNL     1       0.201   0.827  22.553  0.00  0.00    +0.109 C 
ATOM     12  C   UNL     1      -1.821   0.027  25.380  0.00  0.00    +0.305 C 
ATOM     13  C   UNL     1       0.102  -1.384  24.445  0.00  0.00    +0.125 C 
ATOM     14  C   UNL     1       1.397  -0.890  23.793  0.00  0.00    +0.104 C 
ENDROOT
BRANCH   2   7
ATOM      7  C   UNL     1      -3.604   1.828  25.525  0.00  0.00    +0.078 C 
ATOM     10  C   UNL     1      -4.991   1.335  25.107  0.00  0.00    +0.022 C 
ATOM     11  C   UNL     1      -3.449   3.330  25.275  0.00  0.00    +0.022 C 
ATOM     15  C   UNL     1      -6.100   2.138  25.781  0.00  0.00    +0.002 C 
ATOM     16  C   UNL     1      -4.560   4.131  25.949  0.00  0.00    +0.002 C 
ATOM     17  C   UNL     1      -5.942   3.636  25.533  0.00  0.00    +0.000 C 
ENDBRANCH   2   7
BRANCH   4  18
ATOM     18  C   UNL     1       2.397   0.120  21.844  0.00  0.00    +0.121 C 
BRANCH  18  19
ATOM      5  N   UNL     1       4.855  -1.644  24.120  0.00  0.00    -0.263 NA
ATOM     19  C   UNL     1       3.577  -0.117  22.748  0.00  0.00    -0.015 A 
ATOM     20  C   UNL     1       4.460   0.911  23.058  0.00  0.00    +0.008 A 
ATOM     21  C   UNL     1       3.816  -1.365  23.300  0.00  0.00    +0.115 A 
ATOM     22  C   UNL     1       5.540   0.664  23.898  0.00  0.00    +0.020 A 
ATOM     23  C   UNL     1       5.692  -0.620  24.397  0.00  0.00    +0.111 A 
ENDBRANCH  18  19
ENDBRANCH   4  18
TORSDOF 3
ENDMDL
