MODEL 1
REMARK VINA RESULT:       1.3      0.000      0.000
REMARK  Name = 7144049
REMARK  3 active torsions:
REMARK  status: ('A' for Active; 'I' for Inactive)
REMARK    1  A    between atoms: N_3  and  C_14
REMARK    2  A    between atoms: C_14  and  C_19
REMARK    3  A    between atoms: C_17  and  C_20
REMARK                            x       y       z     vdW  Elec       q    Type
REMARK                         _______ _______ _______ _____ _____    ______ ____
ROOT
ATOM      2  O   UNL     1      -1.813   3.695  27.728  0.00  0.00    -0.267 OA
ATOM      3  N   UNL     1      -4.338   1.017  24.322  0.00  0.00    -0.297 NA
ATOM      4  N   UNL     1      -2.256   3.120  25.512  0.00  0.00    -0.311 N 
ATOM      7  C   UNL     1      -4.536   3.514  24.409  0.00  0.00    +0.024 C 
ATOM      8  C   UNL     1      -2.722   2.495  23.118  0.00  0.00    +0.050 C 
ATOM      9  C   UNL     1      -3.726   3.643  23.125  0.00  0.00    +0.017 C 
ATOM     10  C   UNL     1      -5.260   2.152  24.443  0.00  0.00    +0.090 C 
ATOM     11  C   UNL     1      -3.478   1.147  23.135  0.00  0.00    +0.094 C 
ATOM     12  C   UNL     1      -3.597   3.714  25.606  0.00  0.00    +0.130 C 
ATOM     13  C   UNL     1      -1.784   2.592  24.307  0.00  0.00    +0.026 A 
ATOM     15  C   UNL     1      -0.517   2.157  24.213  0.00  0.00    +0.022 A 
ATOM     16  C   UNL     1      -1.442   3.206  26.658  0.00  0.00    +0.259 A 
ATOM     17  C   UNL     1      -0.038   2.679  26.532  0.00  0.00    +0.050 A 
ATOM     18  C   UNL     1       0.363   2.198  25.345  0.00  0.00    +0.015 A 
ENDROOT
BRANCH  17  20
ATOM      5  N   UNL     1       3.048   3.151  28.609  0.00  0.00    -0.243 NA
ATOM      6  N   UNL     1       1.321   2.202  29.996  0.00  0.00    -0.243 NA
ATOM     20  C   UNL     1       0.884   2.678  27.681  0.00  0.00    +0.024 A 
ATOM     24  C   UNL     1       2.178   3.137  27.579  0.00  0.00    +0.122 A 
ATOM     25  C   UNL     1       0.503   2.217  28.922  0.00  0.00    +0.122 A 
ATOM     26  C   UNL     1       2.561   2.676  29.771  0.00  0.00    +0.221 A 
ENDBRANCH  17  20
BRANCH   3  14
ATOM     14  C   UNL     1      -5.065  -0.250  24.306  0.00  0.00    +0.126 C 
BRANCH  14  19
ATOM      1  S   UNL     1      -2.695  -1.254  25.302  0.00  0.00    -0.100 S 
ATOM     19  C   UNL     1      -4.120  -1.417  24.390  0.00  0.00    +0.004 A 
ATOM     21  C   UNL     1      -4.257  -2.642  23.809  0.00  0.00    +0.012 A 
ATOM     22  C   UNL     1      -3.153  -3.487  24.119  0.00  0.00    +0.008 A 
ATOM     23  C   UNL     1      -2.229  -2.857  24.924  0.00  0.00    +0.045 A 
ENDBRANCH  14  19
ENDBRANCH   3  14
TORSDOF 3
ENDMDL
MODEL 2
REMARK VINA RESULT:       2.9      2.781      3.541
REMARK  Name = 7144049
REMARK  3 active torsions:
REMARK  status: ('A' for Active; 'I' for Inactive)
REMARK    1  A    between atoms: N_3  and  C_14
REMARK    2  A    between atoms: C_14  and  C_19
REMARK    3  A    between atoms: C_17  and  C_20
REMARK                            x       y       z     vdW  Elec       q    Type
REMARK                         _______ _______ _______ _____ _____    ______ ____
ROOT
ATOM      2  O   UNL     1       1.081   2.117  25.496  0.00  0.00    -0.267 OA
ATOM      3  N   UNL     1      -3.861   1.385  25.057  0.00  0.00    -0.297 NA
ATOM      4  N   UNL     1      -0.939   2.470  24.384  0.00  0.00    -0.311 N 
ATOM      7  C   UNL     1      -2.924   3.674  25.468  0.00  0.00    +0.024 C 
ATOM      8  C   UNL     1      -3.113   2.845  23.173  0.00  0.00    +0.050 C 
ATOM      9  C   UNL     1      -3.261   4.090  24.042  0.00  0.00    +0.017 C 
ATOM     10  C   UNL     1      -3.885   2.561  25.936  0.00  0.00    +0.090 C 
ATOM     11  C   UNL     1      -4.100   1.757  23.654  0.00  0.00    +0.094 C 
ATOM     12  C   UNL     1      -1.453   3.243  25.523  0.00  0.00    +0.130 C 
ATOM     13  C   UNL     1      -1.689   2.324  23.214  0.00  0.00    +0.026 A 
ATOM     15  C   UNL     1      -1.157   1.711  22.144  0.00  0.00    +0.022 A 
ATOM     16  C   UNL     1       0.377   1.979  24.493  0.00  0.00    +0.259 A 
ATOM     17  C   UNL     1       0.934   1.266  23.290  0.00  0.00    +0.050 A 
ATOM     18  C   UNL     1       0.172   1.170  22.189  0.00  0.00    +0.015 A 
ENDROOT
BRANCH  17  20
ATOM      5  N   UNL     1       4.658   0.900  23.032  0.00  0.00    -0.243 NA
ATOM      6  N   UNL     1       3.712  -1.229  23.647  0.00  0.00    -0.243 NA
ATOM     20  C   UNL     1       2.283   0.672  23.310  0.00  0.00    +0.024 A 
ATOM     24  C   UNL     1       3.409   1.410  23.022  0.00  0.00    +0.122 A 
ATOM     25  C   UNL     1       2.492  -0.654  23.618  0.00  0.00    +0.122 A 
ATOM     26  C   UNL     1       4.735  -0.407  23.347  0.00  0.00    +0.221 A 
ENDBRANCH  17  20
BRANCH   3  14
ATOM     14  C   UNL     1      -4.820   0.378  25.503  0.00  0.00    +0.126 C 
BRANCH  14  19
ATOM      1  S   UNL     1      -3.283  -1.831  26.115  0.00  0.00    -0.100 S 
ATOM     19  C   UNL     1      -4.376  -1.004  25.109  0.00  0.00    +0.004 A 
ATOM     21  C   UNL     1      -4.746  -1.715  24.007  0.00  0.00    +0.012 A 
ATOM     22  C   UNL     1      -4.112  -2.990  23.979  0.00  0.00    +0.008 A 
ATOM     23  C   UNL     1      -3.289  -3.183  25.067  0.00  0.00    +0.045 A 
ENDBRANCH  14  19
ENDBRANCH   3  14
TORSDOF 3
ENDMDL
MODEL 3
REMARK VINA RESULT:       4.5      3.532      5.606
REMARK  Name = 7144049
REMARK  3 active torsions:
REMARK  status: ('A' for Active; 'I' for Inactive)
REMARK    1  A    between atoms: N_3  and  C_14
REMARK    2  A    between atoms: C_14  and  C_19
REMARK    3  A    between atoms: C_17  and  C_20
REMARK                            x       y       z     vdW  Elec       q    Type
REMARK                         _______ _______ _______ _____ _____    ______ ____
ROOT
ATOM      2  O   UNL     1      -0.137  -1.731  22.350  0.00  0.00    -0.267 OA
ATOM      3  N   UNL     1      -4.441  -0.278  24.474  0.00  0.00    -0.297 NA
ATOM      4  N   UNL     1      -1.472  -1.418  24.236  0.00  0.00    -0.311 N 
ATOM      7  C   UNL     1      -3.683  -2.665  24.590  0.00  0.00    +0.024 C 
ATOM      8  C   UNL     1      -2.904  -1.071  26.277  0.00  0.00    +0.050 C 
ATOM      9  C   UNL     1      -3.361  -2.512  26.071  0.00  0.00    +0.017 C 
ATOM     10  C   UNL     1      -4.793  -1.673  24.184  0.00  0.00    +0.090 C 
ATOM     11  C   UNL     1      -4.043  -0.105  25.879  0.00  0.00    +0.094 C 
ATOM     12  C   UNL     1      -2.393  -2.468  23.782  0.00  0.00    +0.130 C 
ATOM     13  C   UNL     1      -1.655  -0.780  25.466  0.00  0.00    +0.026 A 
ATOM     15  C   UNL     1      -0.741   0.095  25.914  0.00  0.00    +0.022 A 
ATOM     16  C   UNL     1      -0.349  -1.164  23.424  0.00  0.00    +0.259 A 
ATOM     17  C   UNL     1       0.641  -0.153  23.936  0.00  0.00    +0.050 A 
ATOM     18  C   UNL     1       0.420   0.415  25.132  0.00  0.00    +0.015 A 
ENDROOT
BRANCH  17  20
ATOM      5  N   UNL     1       3.108   0.072  21.121  0.00  0.00    -0.243 NA
ATOM      6  N   UNL     1       3.894   1.432  22.949  0.00  0.00    -0.243 NA
ATOM     20  C   UNL     1       1.827   0.222  23.147  0.00  0.00    +0.024 A 
ATOM     24  C   UNL     1       2.035  -0.251  21.871  0.00  0.00    +0.122 A 
ATOM     25  C   UNL     1       2.796   1.067  23.643  0.00  0.00    +0.122 A 
ATOM     26  C   UNL     1       3.985   0.905  21.713  0.00  0.00    +0.221 A 
ENDBRANCH  17  20
BRANCH   3  14
ATOM     14  C   UNL     1      -5.537   0.623  24.125  0.00  0.00    +0.126 C 
BRANCH  14  19
ATOM      1  S   UNL     1      -3.914   2.839  23.855  0.00  0.00    -0.100 S 
ATOM     19  C   UNL     1      -5.237   2.032  24.556  0.00  0.00    +0.004 A 
ATOM     21  C   UNL     1      -5.909   2.784  25.472  0.00  0.00    +0.012 A 
ATOM     22  C   UNL     1      -5.324   4.074  25.612  0.00  0.00    +0.008 A 
ATOM     23  C   UNL     1      -4.230   4.238  24.790  0.00  0.00    +0.045 A 
ENDBRANCH  14  19
ENDBRANCH   3  14
TORSDOF 3
ENDMDL
MODEL 4
REMARK VINA RESULT:       4.9      3.600      5.566
REMARK  Name = 7144049
REMARK  3 active torsions:
REMARK  status: ('A' for Active; 'I' for Inactive)
REMARK    1  A    between atoms: N_3  and  C_14
REMARK    2  A    between atoms: C_14  and  C_19
REMARK    3  A    between atoms: C_17  and  C_20
REMARK                            x       y       z     vdW  Elec       q    Type
REMARK                         _______ _______ _______ _____ _____    ______ ____
ROOT
ATOM      2  O   UNL     1       0.277   0.161  21.925  0.00  0.00    -0.267 OA
ATOM      3  N   UNL     1      -3.480   1.091  25.114  0.00  0.00    -0.297 NA
ATOM      4  N   UNL     1      -1.297  -0.567  23.484  0.00  0.00    -0.311 N 
ATOM      7  C   UNL     1      -3.823  -0.362  23.100  0.00  0.00    +0.024 C 
ATOM      8  C   UNL     1      -2.987  -1.357  25.175  0.00  0.00    +0.050 C 
ATOM      9  C   UNL     1      -3.908  -1.600  23.984  0.00  0.00    +0.017 C 
ATOM     10  C   UNL     1      -4.268   0.885  23.893  0.00  0.00    +0.090 C 
ATOM     11  C   UNL     1      -3.469  -0.114  25.957  0.00  0.00    +0.094 C 
ATOM     12  C   UNL     1      -2.392  -0.238  22.561  0.00  0.00    +0.130 C 
ATOM     13  C   UNL     1      -1.552  -1.172  24.718  0.00  0.00    +0.026 A 
ATOM     15  C   UNL     1      -0.532  -1.568  25.497  0.00  0.00    +0.022 A 
ATOM     16  C   UNL     1       0.014  -0.340  23.021  0.00  0.00    +0.259 A 
ATOM     17  C   UNL     1       1.135  -0.761  23.931  0.00  0.00    +0.050 A 
ATOM     18  C   UNL     1       0.829  -1.352  25.096  0.00  0.00    +0.015 A 
ENDROOT
BRANCH  17  20
ATOM      5  N   UNL     1       4.224   0.842  22.534  0.00  0.00    -0.243 NA
ATOM      6  N   UNL     1       4.837  -1.245  23.572  0.00  0.00    -0.243 NA
ATOM     20  C   UNL     1       2.543  -0.529  23.566  0.00  0.00    +0.024 A 
ATOM     24  C   UNL     1       2.945   0.597  22.883  0.00  0.00    +0.122 A 
ATOM     25  C   UNL     1       3.538  -1.426  23.889  0.00  0.00    +0.122 A 
ATOM     26  C   UNL     1       5.106  -0.107  22.905  0.00  0.00    +0.221 A 
ENDBRANCH  17  20
BRANCH   3  14
ATOM     14  C   UNL     1      -3.965   2.248  25.862  0.00  0.00    +0.126 C 
BRANCH  14  19
ATOM      1  S   UNL     1      -1.491   3.196  25.088  0.00  0.00    -0.100 S 
ATOM     19  C   UNL     1      -3.078   3.444  25.645  0.00  0.00    +0.004 A 
ATOM     21  C   UNL     1      -3.387   4.756  25.843  0.00  0.00    +0.012 A 
ATOM     22  C   UNL     1      -2.283   5.599  25.528  0.00  0.00    +0.008 A 
ATOM     23  C   UNL     1      -1.187   4.880  25.105  0.00  0.00    +0.045 A 
ENDBRANCH  14  19
ENDBRANCH   3  14
TORSDOF 3
ENDMDL
