MODEL 1
REMARK VINA RESULT:       6.9      0.000      0.000
REMARK  Name = 28961981
REMARK  11 active torsions:
REMARK  status: ('A' for Active; 'I' for Inactive)
REMARK    1  A    between atoms: S_2  and  N_11
REMARK    2  A    between atoms: S_2  and  C_25
REMARK    3  A    between atoms: O_4  and  C_14
REMARK    4  A    between atoms: O_5  and  C_21
REMARK    5  A    between atoms: O_8  and  C_23
REMARK    6  A    between atoms: O_8  and  C_33
REMARK    7  A    between atoms: N_9  and  C_12
REMARK    8  A    between atoms: N_10  and  C_22
REMARK    9  A    between atoms: N_11  and  C_18
REMARK   10  A    between atoms: C_13  and  C_18
REMARK   11  A    between atoms: C_15  and  C_21
REMARK                            x       y       z     vdW  Elec       q    Type
REMARK                         _______ _______ _______ _____ _____    ______ ____
ROOT
ATOM      3  O   UNL     1      -4.550   3.365  23.785  0.00  0.00    -0.366 OA
ATOM     12  C   UNL     1      -2.261   3.865  24.205  0.00  0.00    +0.118 C 
ATOM     13  C   UNL     1      -3.219   3.066  23.310  0.00  0.00    +0.154 C 
ATOM     14  C   UNL     1      -3.052   4.028  25.494  0.00  0.00    +0.165 C 
ATOM     15  C   UNL     1      -4.457   4.224  24.938  0.00  0.00    +0.174 C 
ENDROOT
BRANCH  12   9
ATOM      9  N   UNL     1      -0.925   3.318  24.363  0.00  0.00    -0.292 NA
ATOM     10  N   UNL     1       1.360   1.768  23.633  0.00  0.00    -0.325 N 
ATOM     16  C   UNL     1      -0.973   1.851  24.421  0.00  0.00    +0.104 C 
ATOM     17  C   UNL     1      -0.060   3.745  23.258  0.00  0.00    +0.104 C 
ATOM     19  C   UNL     1       0.423   1.265  24.645  0.00  0.00    +0.120 C 
ATOM     20  C   UNL     1       1.366   3.222  23.441  0.00  0.00    +0.120 C 
BRANCH  10  22
ATOM     22  C   UNL     1       2.526   1.031  23.391  0.00  0.00    +0.072 A 
ATOM     23  C   UNL     1       2.452  -0.273  22.902  0.00  0.00    +0.141 A 
ATOM     24  C   UNL     1       3.769   1.612  23.646  0.00  0.00    +0.027 A 
ATOM     26  C   UNL     1       3.621  -0.996  22.666  0.00  0.00    +0.047 A 
ATOM     27  C   UNL     1       4.938   0.889  23.410  0.00  0.00    +0.002 A 
ATOM     28  C   UNL     1       4.864  -0.415  22.920  0.00  0.00    +0.004 A 
BRANCH  23   8
ATOM      8  O   UNL     1       1.249  -0.859  22.646  0.00  0.00    -0.493 OA
ATOM     33  C   UNL     1       0.743  -0.747  21.318  0.00  0.00    +0.277 C 
ENDBRANCH  23   8
ENDBRANCH  10  22
ENDBRANCH  12   9
BRANCH  14   4
ATOM      4  O   UNL     1      -2.995   2.854  26.292  0.00  0.00    -0.388 OA
ATOM     35  H   UNL     1      -2.835   2.101  25.698  0.00  0.00    +0.210 HD
ENDBRANCH  14   4
BRANCH  13  18
ATOM     18  C   UNL     1      -3.063   1.551  23.324  0.00  0.00    +0.139 C 
BRANCH  18  11
ATOM     11  N   UNL     1      -4.393   0.923  23.420  0.00  0.00    -0.187 NA
ATOM     36  H   UNL     1      -5.171   1.457  23.013  0.00  0.00    +0.148 HD
BRANCH  11   2
ATOM      2  S   UNL     1      -4.734  -0.169  24.681  0.00  0.00    +0.058 S 
ATOM      6  O   UNL     1      -5.651  -1.186  24.201  0.00  0.00    -0.153 OA
ATOM      7  O   UNL     1      -5.039   0.579  25.885  0.00  0.00    -0.153 OA
BRANCH   2  25
ATOM      1 CL   UNL     1       0.858  -2.883  25.572  0.00  0.00    -0.084 Cl
ATOM     25  C   UNL     1      -3.159  -0.932  24.932  0.00  0.00    +0.105 A 
ATOM     29  C   UNL     1      -2.693  -1.884  24.024  0.00  0.00    +0.030 A 
ATOM     30  C   UNL     1      -2.383  -0.585  26.038  0.00  0.00    +0.030 A 
ATOM     31  C   UNL     1      -1.451  -2.486  24.222  0.00  0.00    +0.022 A 
ATOM     32  C   UNL     1      -1.141  -1.188  26.235  0.00  0.00    +0.022 A 
ATOM     34  C   UNL     1      -0.675  -2.138  25.328  0.00  0.00    +0.041 A 
ENDBRANCH   2  25
ENDBRANCH  11   2
ENDBRANCH  18  11
ENDBRANCH  13  18
BRANCH  15  21
ATOM     21  C   UNL     1      -5.590   3.901  25.895  0.00  0.00    +0.190 C 
BRANCH  21   5
ATOM      5  O   UNL     1      -6.375   2.856  25.343  0.00  0.00    -0.392 OA
ATOM     37  H   UNL     1      -5.955   2.017  25.600  0.00  0.00    +0.210 HD
ENDBRANCH  21   5
ENDBRANCH  15  21
TORSDOF 10
ENDMDL
MODEL 2
REMARK VINA RESULT:       7.1      1.431      1.889
REMARK  Name = 28961981
REMARK  11 active torsions:
REMARK  status: ('A' for Active; 'I' for Inactive)
REMARK    1  A    between atoms: S_2  and  N_11
REMARK    2  A    between atoms: S_2  and  C_25
REMARK    3  A    between atoms: O_4  and  C_14
REMARK    4  A    between atoms: O_5  and  C_21
REMARK    5  A    between atoms: O_8  and  C_23
REMARK    6  A    between atoms: O_8  and  C_33
REMARK    7  A    between atoms: N_9  and  C_12
REMARK    8  A    between atoms: N_10  and  C_22
REMARK    9  A    between atoms: N_11  and  C_18
REMARK   10  A    between atoms: C_13  and  C_18
REMARK   11  A    between atoms: C_15  and  C_21
REMARK                            x       y       z     vdW  Elec       q    Type
REMARK                         _______ _______ _______ _____ _____    ______ ____
ROOT
ATOM      3  O   UNL     1      -4.657   4.701  24.226  0.00  0.00    -0.366 OA
ATOM     12  C   UNL     1      -2.391   4.086  24.617  0.00  0.00    +0.118 C 
ATOM     13  C   UNL     1      -3.573   3.940  23.648  0.00  0.00    +0.154 C 
ATOM     14  C   UNL     1      -3.071   4.358  25.950  0.00  0.00    +0.165 C 
ATOM     15  C   UNL     1      -4.236   5.230  25.498  0.00  0.00    +0.174 C 
ENDROOT
BRANCH  12   9
ATOM      9  N   UNL     1      -1.429   2.998  24.623  0.00  0.00    -0.292 NA
ATOM     10  N   UNL     1       0.941   1.609  23.840  0.00  0.00    -0.325 N 
ATOM     16  C   UNL     1      -1.331   2.389  23.290  0.00  0.00    +0.104 C 
ATOM     17  C   UNL     1      -0.110   3.479  25.050  0.00  0.00    +0.104 C 
ATOM     19  C   UNL     1      -0.362   1.205  23.297  0.00  0.00    +0.120 C 
ATOM     20  C   UNL     1       0.900   2.331  25.114  0.00  0.00    +0.120 C 
BRANCH  10  22
ATOM     22  C   UNL     1       2.058   0.828  23.519  0.00  0.00    +0.072 A 
ATOM     23  C   UNL     1       1.969  -0.564  23.499  0.00  0.00    +0.141 A 
ATOM     24  C   UNL     1       3.268   1.455  23.220  0.00  0.00    +0.027 A 
ATOM     26  C   UNL     1       3.090  -1.329  23.179  0.00  0.00    +0.047 A 
ATOM     27  C   UNL     1       4.389   0.689  22.899  0.00  0.00    +0.002 A 
ATOM     28  C   UNL     1       4.300  -0.703  22.878  0.00  0.00    +0.004 A 
BRANCH  23   8
ATOM      8  O   UNL     1       0.797  -1.195  23.788  0.00  0.00    -0.493 OA
ATOM     33  C   UNL     1       0.707  -1.845  25.054  0.00  0.00    +0.277 C 
ENDBRANCH  23   8
ENDBRANCH  10  22
ENDBRANCH  12   9
BRANCH  14   4
ATOM      4  O   UNL     1      -3.552   3.159  26.543  0.00  0.00    -0.388 OA
ATOM     35  H   UNL     1      -4.450   3.333  26.871  0.00  0.00    +0.210 HD
ENDBRANCH  14   4
BRANCH  13  18
ATOM     18  C   UNL     1      -4.089   2.527  23.408  0.00  0.00    +0.139 C 
BRANCH  18  11
ATOM     11  N   UNL     1      -5.503   2.447  23.818  0.00  0.00    -0.187 NA
ATOM     36  H   UNL     1      -6.066   3.291  23.652  0.00  0.00    +0.148 HD
BRANCH  11   2
ATOM      2  S   UNL     1      -5.972   1.395  25.071  0.00  0.00    +0.058 S 
ATOM      6  O   UNL     1      -7.291   0.863  24.784  0.00  0.00    -0.153 OA
ATOM      7  O   UNL     1      -5.702   2.028  26.347  0.00  0.00    -0.153 OA
BRANCH   2  25
ATOM      1 CL   UNL     1      -1.826  -3.278  24.436  0.00  0.00    -0.084 Cl
ATOM     25  C   UNL     1      -4.805   0.078  24.892  0.00  0.00    +0.105 A 
ATOM     29  C   UNL     1      -3.682   0.025  25.718  0.00  0.00    +0.030 A 
ATOM     30  C   UNL     1      -5.006  -0.906  23.925  0.00  0.00    +0.030 A 
ATOM     31  C   UNL     1      -2.761  -1.012  25.578  0.00  0.00    +0.022 A 
ATOM     32  C   UNL     1      -4.085  -1.944  23.784  0.00  0.00    +0.022 A 
ATOM     34  C   UNL     1      -2.963  -1.996  24.610  0.00  0.00    +0.041 A 
ENDBRANCH   2  25
ENDBRANCH  11   2
ENDBRANCH  18  11
ENDBRANCH  13  18
BRANCH  15  21
ATOM     21  C   UNL     1      -5.424   5.274  26.441  0.00  0.00    +0.190 C 
BRANCH  21   5
ATOM      5  O   UNL     1      -6.574   4.809  25.752  0.00  0.00    -0.392 OA
ATOM     37  H   UNL     1      -6.261   4.291  24.991  0.00  0.00    +0.210 HD
ENDBRANCH  21   5
ENDBRANCH  15  21
TORSDOF 10
ENDMDL
MODEL 3
REMARK VINA RESULT:       7.5      2.782      4.865
REMARK  Name = 28961981
REMARK  11 active torsions:
REMARK  status: ('A' for Active; 'I' for Inactive)
REMARK    1  A    between atoms: S_2  and  N_11
REMARK    2  A    between atoms: S_2  and  C_25
REMARK    3  A    between atoms: O_4  and  C_14
REMARK    4  A    between atoms: O_5  and  C_21
REMARK    5  A    between atoms: O_8  and  C_23
REMARK    6  A    between atoms: O_8  and  C_33
REMARK    7  A    between atoms: N_9  and  C_12
REMARK    8  A    between atoms: N_10  and  C_22
REMARK    9  A    between atoms: N_11  and  C_18
REMARK   10  A    between atoms: C_13  and  C_18
REMARK   11  A    between atoms: C_15  and  C_21
REMARK                            x       y       z     vdW  Elec       q    Type
REMARK                         _______ _______ _______ _____ _____    ______ ____
ROOT
ATOM      3  O   UNL     1      -3.754  -0.397  25.925  0.00  0.00    -0.366 OA
ATOM     12  C   UNL     1      -2.271  -1.575  24.483  0.00  0.00    +0.118 C 
ATOM     13  C   UNL     1      -2.460  -1.040  25.910  0.00  0.00    +0.154 C 
ATOM     14  C   UNL     1      -3.147  -0.650  23.651  0.00  0.00    +0.165 C 
ATOM     15  C   UNL     1      -4.320  -0.445  24.602  0.00  0.00    +0.174 C 
ENDROOT
BRANCH  12   9
ATOM      9  N   UNL     1      -0.899  -1.707  24.024  0.00  0.00    -0.292 NA
ATOM     10  N   UNL     1       1.875  -1.043  23.875  0.00  0.00    -0.325 N 
ATOM     16  C   UNL     1      -0.464  -0.483  23.339  0.00  0.00    +0.104 C 
ATOM     17  C   UNL     1      -0.005  -1.992  25.153  0.00  0.00    +0.104 C 
ATOM     19  C   UNL     1       0.961  -0.631  22.802  0.00  0.00    +0.120 C 
ATOM     20  C   UNL     1       1.436  -2.189  24.677  0.00  0.00    +0.120 C 
BRANCH  10  22
ATOM     22  C   UNL     1       3.242  -0.798  23.704  0.00  0.00    +0.072 A 
ATOM     23  C   UNL     1       3.694   0.461  23.307  0.00  0.00    +0.141 A 
ATOM     24  C   UNL     1       4.156  -1.827  23.934  0.00  0.00    +0.027 A 
ATOM     26  C   UNL     1       5.059   0.690  23.140  0.00  0.00    +0.047 A 
ATOM     27  C   UNL     1       5.522  -1.597  23.767  0.00  0.00    +0.002 A 
ATOM     28  C   UNL     1       5.973  -0.338  23.370  0.00  0.00    +0.004 A 
BRANCH  23   8
ATOM      8  O   UNL     1       2.818   1.479  23.077  0.00  0.00    -0.493 OA
ATOM     33  C   UNL     1       3.317   2.616  22.377  0.00  0.00    +0.277 C 
ENDBRANCH  23   8
ENDBRANCH  10  22
ENDBRANCH  12   9
BRANCH  14   4
ATOM      4  O   UNL     1      -2.498   0.587  23.391  0.00  0.00    -0.388 OA
ATOM     35  H   UNL     1      -3.121   1.149  22.900  0.00  0.00    +0.210 HD
ENDBRANCH  14   4
BRANCH  13  18
ATOM     18  C   UNL     1      -1.441  -0.018  26.397  0.00  0.00    +0.139 C 
BRANCH  18  11
ATOM     11  N   UNL     1      -0.981   0.796  25.257  0.00  0.00    -0.187 NA
ATOM     36  H   UNL     1      -0.528   0.280  24.492  0.00  0.00    +0.148 HD
BRANCH  11   2
ATOM      2  S   UNL     1      -0.569   2.431  25.485  0.00  0.00    +0.058 S 
ATOM      6  O   UNL     1       0.180   2.904  24.336  0.00  0.00    -0.153 OA
ATOM      7  O   UNL     1      -0.036   2.603  26.823  0.00  0.00    -0.153 OA
BRANCH   2  25
ATOM      1 CL   UNL     1      -6.206   5.196  25.392  0.00  0.00    -0.084 Cl
ATOM     25  C   UNL     1      -2.156   3.210  25.458  0.00  0.00    +0.105 A 
ATOM     29  C   UNL     1      -2.761   3.601  26.653  0.00  0.00    +0.030 A 
ATOM     30  C   UNL     1      -2.803   3.434  24.243  0.00  0.00    +0.030 A 
ATOM     31  C   UNL     1      -4.013   4.215  26.633  0.00  0.00    +0.022 A 
ATOM     32  C   UNL     1      -4.055   4.048  24.223  0.00  0.00    +0.022 A 
ATOM     34  C   UNL     1      -4.660   4.438  25.417  0.00  0.00    +0.041 A 
ENDBRANCH   2  25
ENDBRANCH  11   2
ENDBRANCH  18  11
ENDBRANCH  13  18
BRANCH  15  21
ATOM     21  C   UNL     1      -5.143   0.808  24.363  0.00  0.00    +0.190 C 
BRANCH  21   5
ATOM      5  O   UNL     1      -5.593   1.307  25.613  0.00  0.00    -0.392 OA
ATOM     37  H   UNL     1      -4.997   0.951  26.293  0.00  0.00    +0.210 HD
ENDBRANCH  21   5
ENDBRANCH  15  21
TORSDOF 10
ENDMDL
MODEL 4
REMARK VINA RESULT:       8.6      2.754      7.079
REMARK  Name = 28961981
REMARK  11 active torsions:
REMARK  status: ('A' for Active; 'I' for Inactive)
REMARK    1  A    between atoms: S_2  and  N_11
REMARK    2  A    between atoms: S_2  and  C_25
REMARK    3  A    between atoms: O_4  and  C_14
REMARK    4  A    between atoms: O_5  and  C_21
REMARK    5  A    between atoms: O_8  and  C_23
REMARK    6  A    between atoms: O_8  and  C_33
REMARK    7  A    between atoms: N_9  and  C_12
REMARK    8  A    between atoms: N_10  and  C_22
REMARK    9  A    between atoms: N_11  and  C_18
REMARK   10  A    between atoms: C_13  and  C_18
REMARK   11  A    between atoms: C_15  and  C_21
REMARK                            x       y       z     vdW  Elec       q    Type
REMARK                         _______ _______ _______ _____ _____    ______ ____
ROOT
ATOM      3  O   UNL     1       4.105   1.656  23.081  0.00  0.00    -0.366 OA
ATOM     12  C   UNL     1       2.510   0.129  22.191  0.00  0.00    +0.118 C 
ATOM     13  C   UNL     1       2.690   1.516  22.825  0.00  0.00    +0.154 C 
ATOM     14  C   UNL     1       3.702  -0.649  22.726  0.00  0.00    +0.165 C 
ATOM     15  C   UNL     1       4.774   0.434  22.714  0.00  0.00    +0.174 C 
ENDROOT
BRANCH  12   9
ATOM      9  N   UNL     1       1.218  -0.503  22.388  0.00  0.00    -0.292 NA
ATOM     10  N   UNL     1      -1.351  -0.867  23.582  0.00  0.00    -0.325 N 
ATOM     16  C   UNL     1       1.102  -1.022  23.758  0.00  0.00    +0.104 C 
ATOM     17  C   UNL     1       0.133   0.448  22.122  0.00  0.00    +0.104 C 
ATOM     19  C   UNL     1      -0.234  -1.741  23.960  0.00  0.00    +0.120 C 
ATOM     20  C   UNL     1      -1.235  -0.220  22.271  0.00  0.00    +0.120 C 
BRANCH  10  22
ATOM     22  C   UNL     1      -2.618  -1.155  24.104  0.00  0.00    +0.072 A 
ATOM     23  C   UNL     1      -2.978  -0.713  25.377  0.00  0.00    +0.141 A 
ATOM     24  C   UNL     1      -3.522  -1.893  23.339  0.00  0.00    +0.027 A 
ATOM     26  C   UNL     1      -4.243  -1.008  25.885  0.00  0.00    +0.047 A 
ATOM     27  C   UNL     1      -4.788  -2.187  23.848  0.00  0.00    +0.002 A 
ATOM     28  C   UNL     1      -5.148  -1.745  25.120  0.00  0.00    +0.004 A 
BRANCH  23   8
ATOM      8  O   UNL     1      -2.110   0.009  26.140  0.00  0.00    -0.493 OA
ATOM     33  C   UNL     1      -1.100  -0.719  26.835  0.00  0.00    +0.277 C 
ENDBRANCH  23   8
ENDBRANCH  10  22
ENDBRANCH  12   9
BRANCH  14   4
ATOM      4  O   UNL     1       3.474  -1.105  24.052  0.00  0.00    -0.388 OA
ATOM     35  H   UNL     1       2.515  -1.216  24.164  0.00  0.00    +0.210 HD
ENDBRANCH  14   4
BRANCH  13  18
ATOM     18  C   UNL     1       1.965   1.764  24.142  0.00  0.00    +0.139 C 
BRANCH  18  11
ATOM     11  N   UNL     1       0.664   2.402  23.872  0.00  0.00    -0.187 NA
ATOM     36  H   UNL     1       0.413   2.504  22.881  0.00  0.00    +0.148 HD
BRANCH  11   2
ATOM      2  S   UNL     1       0.001   3.499  24.992  0.00  0.00    +0.058 S 
ATOM      6  O   UNL     1       0.192   4.854  24.509  0.00  0.00    -0.153 OA
ATOM      7  O   UNL     1       0.434   3.133  26.326  0.00  0.00    -0.153 OA
BRANCH   2  25
ATOM      1 CL   UNL     1      -6.123   2.161  24.627  0.00  0.00    -0.084 Cl
ATOM     25  C   UNL     1      -1.724   3.122  24.888  0.00  0.00    +0.105 A 
ATOM     29  C   UNL     1      -2.565   3.409  25.964  0.00  0.00    +0.030 A 
ATOM     30  C   UNL     1      -2.242   2.538  23.733  0.00  0.00    +0.030 A 
ATOM     31  C   UNL     1      -3.925   3.112  25.883  0.00  0.00    +0.022 A 
ATOM     32  C   UNL     1      -3.603   2.241  23.652  0.00  0.00    +0.022 A 
ATOM     34  C   UNL     1      -4.444   2.528  24.727  0.00  0.00    +0.041 A 
ENDBRANCH   2  25
ENDBRANCH  11   2
ENDBRANCH  18  11
ENDBRANCH  13  18
BRANCH  15  21
ATOM     21  C   UNL     1       5.946   0.204  23.650  0.00  0.00    +0.190 C 
BRANCH  21   5
ATOM      5  O   UNL     1       5.514   0.409  24.986  0.00  0.00    -0.392 OA
ATOM     37  H   UNL     1       6.217   0.074  25.568  0.00  0.00    +0.210 HD
ENDBRANCH  21   5
ENDBRANCH  15  21
TORSDOF 10
ENDMDL
MODEL 5
REMARK VINA RESULT:       8.7      2.897      7.219
REMARK  Name = 28961981
REMARK  11 active torsions:
REMARK  status: ('A' for Active; 'I' for Inactive)
REMARK    1  A    between atoms: S_2  and  N_11
REMARK    2  A    between atoms: S_2  and  C_25
REMARK    3  A    between atoms: O_4  and  C_14
REMARK    4  A    between atoms: O_5  and  C_21
REMARK    5  A    between atoms: O_8  and  C_23
REMARK    6  A    between atoms: O_8  and  C_33
REMARK    7  A    between atoms: N_9  and  C_12
REMARK    8  A    between atoms: N_10  and  C_22
REMARK    9  A    between atoms: N_11  and  C_18
REMARK   10  A    between atoms: C_13  and  C_18
REMARK   11  A    between atoms: C_15  and  C_21
REMARK                            x       y       z     vdW  Elec       q    Type
REMARK                         _______ _______ _______ _____ _____    ______ ____
ROOT
ATOM      3  O   UNL     1       3.405   0.917  23.108  0.00  0.00    -0.366 OA
ATOM     12  C   UNL     1       1.286   0.114  22.379  0.00  0.00    +0.118 C 
ATOM     13  C   UNL     1       2.082   1.374  22.751  0.00  0.00    +0.154 C 
ATOM     14  C   UNL     1       1.993  -0.982  23.162  0.00  0.00    +0.165 C 
ATOM     15  C   UNL     1       3.441  -0.522  23.045  0.00  0.00    +0.174 C 
ENDROOT
BRANCH  12   9
ATOM      9  N   UNL     1      -0.151   0.184  22.570  0.00  0.00    -0.292 NA
ATOM     10  N   UNL     1      -2.571   0.889  23.914  0.00  0.00    -0.325 N 
ATOM     16  C   UNL     1      -0.541  -0.503  23.808  0.00  0.00    +0.104 C 
ATOM     17  C   UNL     1      -0.597   1.582  22.614  0.00  0.00    +0.104 C 
ATOM     19  C   UNL     1      -2.060  -0.485  23.991  0.00  0.00    +0.120 C 
ATOM     20  C   UNL     1      -2.118   1.670  22.759  0.00  0.00    +0.120 C 
BRANCH  10  22
ATOM     22  C   UNL     1      -3.818   1.161  24.490  0.00  0.00    +0.072 A 
ATOM     23  C   UNL     1      -4.370   0.291  25.431  0.00  0.00    +0.141 A 
ATOM     24  C   UNL     1      -4.510   2.312  24.113  0.00  0.00    +0.027 A 
ATOM     26  C   UNL     1      -5.613   0.574  25.996  0.00  0.00    +0.047 A 
ATOM     27  C   UNL     1      -5.754   2.595  24.679  0.00  0.00    +0.002 A 
ATOM     28  C   UNL     1      -6.305   1.726  25.620  0.00  0.00    +0.004 A 
BRANCH  23   8
ATOM      8  O   UNL     1      -3.711  -0.839  25.812  0.00  0.00    -0.493 OA
ATOM     33  C   UNL     1      -3.983  -2.027  25.074  0.00  0.00    +0.277 C 
ENDBRANCH  23   8
ENDBRANCH  10  22
ENDBRANCH  12   9
BRANCH  14   4
ATOM      4  O   UNL     1       1.585  -0.994  24.523  0.00  0.00    -0.388 OA
ATOM     35  H   UNL     1       0.725  -0.544  24.577  0.00  0.00    +0.210 HD
ENDBRANCH  14   4
BRANCH  13  18
ATOM     18  C   UNL     1       1.554   2.193  23.923  0.00  0.00    +0.139 C 
BRANCH  18  11
ATOM     11  N   UNL     1       1.000   1.285  24.944  0.00  0.00    -0.187 NA
ATOM     36  H   UNL     1       0.709   0.359  24.609  0.00  0.00    +0.148 HD
BRANCH  11   2
ATOM      2  S   UNL     1       0.244   1.920  26.330  0.00  0.00    +0.058 S 
ATOM      6  O   UNL     1       1.254   2.431  27.237  0.00  0.00    -0.153 OA
ATOM      7  O   UNL     1      -0.749   0.975  26.803  0.00  0.00    -0.153 OA
BRANCH   2  25
ATOM      1 CL   UNL     1      -2.875   6.825  23.957  0.00  0.00    -0.084 Cl
ATOM     25  C   UNL     1      -0.636   3.301  25.662  0.00  0.00    +0.105 A 
ATOM     29  C   UNL     1      -0.021   4.129  24.723  0.00  0.00    +0.030 A 
ATOM     30  C   UNL     1      -1.942   3.562  26.074  0.00  0.00    +0.030 A 
ATOM     31  C   UNL     1      -0.714   5.219  24.195  0.00  0.00    +0.022 A 
ATOM     32  C   UNL     1      -2.634   4.652  25.547  0.00  0.00    +0.022 A 
ATOM     34  C   UNL     1      -2.020   5.480  24.608  0.00  0.00    +0.041 A 
ENDBRANCH   2  25
ENDBRANCH  11   2
ENDBRANCH  18  11
ENDBRANCH  13  18
BRANCH  15  21
ATOM     21  C   UNL     1       4.381  -1.047  24.115  0.00  0.00    +0.190 C 
BRANCH  21   5
ATOM      5  O   UNL     1       5.273  -0.009  24.492  0.00  0.00    -0.392 OA
ATOM     37  H   UNL     1       5.133   0.157  25.439  0.00  0.00    +0.210 HD
ENDBRANCH  21   5
ENDBRANCH  15  21
TORSDOF 10
ENDMDL
MODEL 6
REMARK VINA RESULT:       8.8      2.456      6.724
REMARK  Name = 28961981
REMARK  11 active torsions:
REMARK  status: ('A' for Active; 'I' for Inactive)
REMARK    1  A    between atoms: S_2  and  N_11
REMARK    2  A    between atoms: S_2  and  C_25
REMARK    3  A    between atoms: O_4  and  C_14
REMARK    4  A    between atoms: O_5  and  C_21
REMARK    5  A    between atoms: O_8  and  C_23
REMARK    6  A    between atoms: O_8  and  C_33
REMARK    7  A    between atoms: N_9  and  C_12
REMARK    8  A    between atoms: N_10  and  C_22
REMARK    9  A    between atoms: N_11  and  C_18
REMARK   10  A    between atoms: C_13  and  C_18
REMARK   11  A    between atoms: C_15  and  C_21
REMARK                            x       y       z     vdW  Elec       q    Type
REMARK                         _______ _______ _______ _____ _____    ______ ____
ROOT
ATOM      3  O   UNL     1       2.734  -0.986  23.154  0.00  0.00    -0.366 OA
ATOM     12  C   UNL     1       1.903   0.876  24.383  0.00  0.00    +0.118 C 
ATOM     13  C   UNL     1       1.510  -0.438  23.693  0.00  0.00    +0.154 C 
ATOM     14  C   UNL     1       3.162   1.291  23.639  0.00  0.00    +0.165 C 
ATOM     15  C   UNL     1       3.814  -0.067  23.409  0.00  0.00    +0.174 C 
ENDROOT
BRANCH  12   9
ATOM      9  N   UNL     1       0.868   1.891  24.465  0.00  0.00    -0.292 NA
ATOM     10  N   UNL     1      -1.760   2.902  24.947  0.00  0.00    -0.325 N 
ATOM     16  C   UNL     1      -0.227   1.587  23.535  0.00  0.00    +0.104 C 
ATOM     17  C   UNL     1       0.348   1.986  25.834  0.00  0.00    +0.104 C 
ATOM     19  C   UNL     1      -1.298   2.680  23.571  0.00  0.00    +0.120 C 
ATOM     20  C   UNL     1      -0.705   3.091  25.947  0.00  0.00    +0.120 C 
BRANCH  10  22
ATOM     22  C   UNL     1      -3.009   3.506  25.132  0.00  0.00    +0.072 A 
ATOM     23  C   UNL     1      -3.989   3.428  24.143  0.00  0.00    +0.141 A 
ATOM     24  C   UNL     1      -3.268   4.193  26.319  0.00  0.00    +0.027 A 
ATOM     26  C   UNL     1      -5.228   4.036  24.340  0.00  0.00    +0.047 A 
ATOM     27  C   UNL     1      -4.508   4.801  26.516  0.00  0.00    +0.002 A 
ATOM     28  C   UNL     1      -5.488   4.722  25.527  0.00  0.00    +0.004 A 
BRANCH  23   8
ATOM      8  O   UNL     1      -3.756   2.763  22.977  0.00  0.00    -0.493 OA
ATOM     33  C   UNL     1      -4.009   3.471  21.766  0.00  0.00    +0.277 C 
ENDBRANCH  23   8
ENDBRANCH  10  22
ENDBRANCH  12   9
BRANCH  14   4
ATOM      4  O   UNL     1       2.853   1.909  22.396  0.00  0.00    -0.388 OA
ATOM     35  H   UNL     1       2.816   1.210  21.722  0.00  0.00    +0.210 HD
ENDBRANCH  14   4
BRANCH  13  18
ATOM     18  C   UNL     1       0.516  -0.335  22.543  0.00  0.00    +0.139 C 
BRANCH  18  11
ATOM     11  N   UNL     1      -0.506  -1.387  22.684  0.00  0.00    -0.187 NA
ATOM     36  H   UNL     1      -1.217  -1.423  21.943  0.00  0.00    +0.148 HD
BRANCH  11   2
ATOM      2  S   UNL     1      -0.914  -1.981  24.226  0.00  0.00    +0.058 S 
ATOM      6  O   UNL     1       0.080  -1.542  25.188  0.00  0.00    -0.153 OA
ATOM      7  O   UNL     1      -1.254  -3.386  24.119  0.00  0.00    -0.153 OA
BRANCH   2  25
ATOM      1 CL   UNL     1      -6.248   1.109  25.422  0.00  0.00    -0.084 Cl
ATOM     25  C   UNL     1      -2.416  -1.110  24.562  0.00  0.00    +0.105 A 
ATOM     29  C   UNL     1      -2.559  -0.402  25.756  0.00  0.00    +0.030 A 
ATOM     30  C   UNL     1      -3.458  -1.133  23.636  0.00  0.00    +0.030 A 
ATOM     31  C   UNL     1      -3.744   0.285  26.022  0.00  0.00    +0.022 A 
ATOM     32  C   UNL     1      -4.643  -0.446  23.902  0.00  0.00    +0.022 A 
ATOM     34  C   UNL     1      -4.785   0.262  25.094  0.00  0.00    +0.041 A 
ENDBRANCH   2  25
ENDBRANCH  11   2
ENDBRANCH  18  11
ENDBRANCH  13  18
BRANCH  15  21
ATOM     21  C   UNL     1       4.806  -0.130  22.262  0.00  0.00    +0.190 C 
BRANCH  21   5
ATOM      5  O   UNL     1       6.122  -0.153  22.794  0.00  0.00    -0.392 OA
ATOM     37  H   UNL     1       6.401   0.771  22.903  0.00  0.00    +0.210 HD
ENDBRANCH  21   5
ENDBRANCH  15  21
TORSDOF 10
ENDMDL
MODEL 7
REMARK VINA RESULT:       9.2      1.868      2.299
REMARK  Name = 28961981
REMARK  11 active torsions:
REMARK  status: ('A' for Active; 'I' for Inactive)
REMARK    1  A    between atoms: S_2  and  N_11
REMARK    2  A    between atoms: S_2  and  C_25
REMARK    3  A    between atoms: O_4  and  C_14
REMARK    4  A    between atoms: O_5  and  C_21
REMARK    5  A    between atoms: O_8  and  C_23
REMARK    6  A    between atoms: O_8  and  C_33
REMARK    7  A    between atoms: N_9  and  C_12
REMARK    8  A    between atoms: N_10  and  C_22
REMARK    9  A    between atoms: N_11  and  C_18
REMARK   10  A    between atoms: C_13  and  C_18
REMARK   11  A    between atoms: C_15  and  C_21
REMARK                            x       y       z     vdW  Elec       q    Type
REMARK                         _______ _______ _______ _____ _____    ______ ____
ROOT
ATOM      3  O   UNL     1      -5.088   2.682  23.882  0.00  0.00    -0.366 OA
ATOM     12  C   UNL     1      -2.713   2.660  23.715  0.00  0.00    +0.118 C 
ATOM     13  C   UNL     1      -3.989   1.846  23.456  0.00  0.00    +0.154 C 
ATOM     14  C   UNL     1      -3.126   3.594  24.842  0.00  0.00    +0.165 C 
ATOM     15  C   UNL     1      -4.563   3.901  24.441  0.00  0.00    +0.174 C 
ENDROOT
BRANCH  12   9
ATOM      9  N   UNL     1      -1.503   1.895  23.956  0.00  0.00    -0.292 NA
ATOM     10  N   UNL     1       1.194   1.071  23.502  0.00  0.00    -0.325 N 
ATOM     16  C   UNL     1      -1.162   1.086  22.779  0.00  0.00    +0.104 C 
ATOM     17  C   UNL     1      -0.387   2.788  24.288  0.00  0.00    +0.104 C 
ATOM     19  C   UNL     1       0.081   0.232  23.041  0.00  0.00    +0.120 C 
ATOM     20  C   UNL     1       0.882   1.992  24.599  0.00  0.00    +0.120 C 
BRANCH  10  22
ATOM     22  C   UNL     1       2.495   0.573  23.361  0.00  0.00    +0.072 A 
ATOM     23  C   UNL     1       2.749  -0.793  23.476  0.00  0.00    +0.141 A 
ATOM     24  C   UNL     1       3.543   1.459  23.105  0.00  0.00    +0.027 A 
ATOM     26  C   UNL     1       4.049  -1.275  23.335  0.00  0.00    +0.047 A 
ATOM     27  C   UNL     1       4.844   0.976  22.963  0.00  0.00    +0.002 A 
ATOM     28  C   UNL     1       5.097  -0.391  23.077  0.00  0.00    +0.004 A 
BRANCH  23   8
ATOM      8  O   UNL     1       1.740  -1.674  23.726  0.00  0.00    -0.493 OA
ATOM     33  C   UNL     1       1.621  -2.160  25.061  0.00  0.00    +0.277 C 
ENDBRANCH  23   8
ENDBRANCH  10  22
ENDBRANCH  12   9
BRANCH  14   4
ATOM      4  O   UNL     1      -3.094   2.936  26.102  0.00  0.00    -0.388 OA
ATOM     35  H   UNL     1      -2.161   2.810  26.344  0.00  0.00    +0.210 HD
ENDBRANCH  14   4
BRANCH  13  18
ATOM     18  C   UNL     1      -4.115   0.520  24.195  0.00  0.00    +0.139 C 
BRANCH  18  11
ATOM     11  N   UNL     1      -3.484   0.638  25.522  0.00  0.00    -0.187 NA
ATOM     36  H   UNL     1      -3.241   1.591  25.819  0.00  0.00    +0.148 HD
BRANCH  11   2
ATOM      2  S   UNL     1      -2.590  -0.662  26.161  0.00  0.00    +0.058 S 
ATOM      6  O   UNL     1      -3.193  -1.092  27.409  0.00  0.00    -0.153 OA
ATOM      7  O   UNL     1      -1.178  -0.339  26.107  0.00  0.00    -0.153 OA
BRANCH   2  25
ATOM      1 CL   UNL     1      -3.611  -5.145  21.884  0.00  0.00    -0.084 Cl
ATOM     25  C   UNL     1      -2.877  -1.924  24.956  0.00  0.00    +0.105 A 
ATOM     29  C   UNL     1      -4.178  -2.208  24.541  0.00  0.00    +0.030 A 
ATOM     30  C   UNL     1      -1.803  -2.637  24.422  0.00  0.00    +0.030 A 
ATOM     31  C   UNL     1      -4.405  -3.203  23.591  0.00  0.00    +0.022 A 
ATOM     32  C   UNL     1      -2.030  -3.632  23.472  0.00  0.00    +0.022 A 
ATOM     34  C   UNL     1      -3.331  -3.915  23.057  0.00  0.00    +0.041 A 
ENDBRANCH   2  25
ENDBRANCH  11   2
ENDBRANCH  18  11
ENDBRANCH  13  18
BRANCH  15  21
ATOM     21  C   UNL     1      -5.470   4.369  25.565  0.00  0.00    +0.190 C 
BRANCH  21   5
ATOM      5  O   UNL     1      -6.101   3.238  26.145  0.00  0.00    -0.392 OA
ATOM     37  H   UNL     1      -7.041   3.461  26.256  0.00  0.00    +0.210 HD
ENDBRANCH  21   5
ENDBRANCH  15  21
TORSDOF 10
ENDMDL
MODEL 8
REMARK VINA RESULT:       9.2      2.519      5.840
REMARK  Name = 28961981
REMARK  11 active torsions:
REMARK  status: ('A' for Active; 'I' for Inactive)
REMARK    1  A    between atoms: S_2  and  N_11
REMARK    2  A    between atoms: S_2  and  C_25
REMARK    3  A    between atoms: O_4  and  C_14
REMARK    4  A    between atoms: O_5  and  C_21
REMARK    5  A    between atoms: O_8  and  C_23
REMARK    6  A    between atoms: O_8  and  C_33
REMARK    7  A    between atoms: N_9  and  C_12
REMARK    8  A    between atoms: N_10  and  C_22
REMARK    9  A    between atoms: N_11  and  C_18
REMARK   10  A    between atoms: C_13  and  C_18
REMARK   11  A    between atoms: C_15  and  C_21
REMARK                            x       y       z     vdW  Elec       q    Type
REMARK                         _______ _______ _______ _____ _____    ______ ____
ROOT
ATOM      3  O   UNL     1      -0.359   4.999  24.730  0.00  0.00    -0.366 OA
ATOM     12  C   UNL     1      -1.893   3.563  25.849  0.00  0.00    +0.118 C 
ATOM     13  C   UNL     1      -0.520   3.630  25.165  0.00  0.00    +0.154 C 
ATOM     14  C   UNL     1      -2.661   4.697  25.188  0.00  0.00    +0.165 C 
ATOM     15  C   UNL     1      -1.557   5.736  25.040  0.00  0.00    +0.174 C 
ENDROOT
BRANCH  12   9
ATOM      9  N   UNL     1      -2.556   2.272  25.830  0.00  0.00    -0.292 NA
ATOM     10  N   UNL     1      -3.173  -0.328  24.819  0.00  0.00    -0.325 N 
ATOM     16  C   UNL     1      -3.356   2.120  24.608  0.00  0.00    +0.104 C 
ATOM     17  C   UNL     1      -1.572   1.186  25.920  0.00  0.00    +0.104 C 
ATOM     19  C   UNL     1      -4.105   0.786  24.603  0.00  0.00    +0.120 C 
ATOM     20  C   UNL     1      -2.261  -0.180  25.957  0.00  0.00    +0.120 C 
BRANCH  10  22
ATOM     22  C   UNL     1      -3.569  -1.606  24.409  0.00  0.00    +0.072 A 
ATOM     23  C   UNL     1      -2.820  -2.729  24.760  0.00  0.00    +0.141 A 
ATOM     24  C   UNL     1      -4.724  -1.751  23.640  0.00  0.00    +0.027 A 
ATOM     26  C   UNL     1      -3.226  -3.996  24.343  0.00  0.00    +0.047 A 
ATOM     27  C   UNL     1      -5.131  -3.019  23.223  0.00  0.00    +0.002 A 
ATOM     28  C   UNL     1      -4.382  -4.141  23.575  0.00  0.00    +0.004 A 
BRANCH  23   8
ATOM      8  O   UNL     1      -1.688  -2.609  25.510  0.00  0.00    -0.493 OA
ATOM     33  C   UNL     1      -0.466  -3.026  24.907  0.00  0.00    +0.277 C 
ENDBRANCH  23   8
ENDBRANCH  10  22
ENDBRANCH  12   9
BRANCH  14   4
ATOM      4  O   UNL     1      -3.157   4.316  23.912  0.00  0.00    -0.388 OA
ATOM     35  H   UNL     1      -2.392   4.119  23.346  0.00  0.00    +0.210 HD
ENDBRANCH  14   4
BRANCH  13  18
ATOM     18  C   UNL     1      -0.322   2.741  23.943  0.00  0.00    +0.139 C 
BRANCH  18  11
ATOM     11  N   UNL     1       0.869   1.896  24.142  0.00  0.00    -0.187 NA
ATOM     36  H   UNL     1       1.741   2.395  24.355  0.00  0.00    +0.148 HD
BRANCH  11   2
ATOM      2  S   UNL     1       0.971   0.372  23.390  0.00  0.00    +0.058 S 
ATOM      6  O   UNL     1       0.481   0.475  22.028  0.00  0.00    -0.153 OA
ATOM      7  O   UNL     1       0.434  -0.635  24.284  0.00  0.00    -0.153 OA
BRANCH   2  25
ATOM      1 CL   UNL     1       7.181  -0.524  23.145  0.00  0.00    -0.084 Cl
ATOM     25  C   UNL     1       2.720   0.121  23.320  0.00  0.00    +0.105 A 
ATOM     29  C   UNL     1       3.263  -1.104  23.709  0.00  0.00    +0.030 A 
ATOM     30  C   UNL     1       3.556   1.145  22.877  0.00  0.00    +0.030 A 
ATOM     31  C   UNL     1       4.643  -1.303  23.655  0.00  0.00    +0.022 A 
ATOM     32  C   UNL     1       4.935   0.946  22.823  0.00  0.00    +0.022 A 
ATOM     34  C   UNL     1       5.478  -0.278  23.212  0.00  0.00    +0.041 A 
ENDBRANCH   2  25
ENDBRANCH  11   2
ENDBRANCH  18  11
ENDBRANCH  13  18
BRANCH  15  21
ATOM     21  C   UNL     1      -1.788   6.788  23.970  0.00  0.00    +0.190 C 
BRANCH  21   5
ATOM      5  O   UNL     1      -3.123   6.679  23.500  0.00  0.00    -0.392 OA
ATOM     37  H   UNL     1      -3.515   7.568  23.546  0.00  0.00    +0.210 HD
ENDBRANCH  21   5
ENDBRANCH  15  21
TORSDOF 10
ENDMDL
MODEL 9
REMARK VINA RESULT:       9.6      2.502      6.875
REMARK  Name = 28961981
REMARK  11 active torsions:
REMARK  status: ('A' for Active; 'I' for Inactive)
REMARK    1  A    between atoms: S_2  and  N_11
REMARK    2  A    between atoms: S_2  and  C_25
REMARK    3  A    between atoms: O_4  and  C_14
REMARK    4  A    between atoms: O_5  and  C_21
REMARK    5  A    between atoms: O_8  and  C_23
REMARK    6  A    between atoms: O_8  and  C_33
REMARK    7  A    between atoms: N_9  and  C_12
REMARK    8  A    between atoms: N_10  and  C_22
REMARK    9  A    between atoms: N_11  and  C_18
REMARK   10  A    between atoms: C_13  and  C_18
REMARK   11  A    between atoms: C_15  and  C_21
REMARK                            x       y       z     vdW  Elec       q    Type
REMARK                         _______ _______ _______ _____ _____    ______ ____
ROOT
ATOM      3  O   UNL     1       3.525  -1.258  23.528  0.00  0.00    -0.366 OA
ATOM     12  C   UNL     1       2.452   0.791  24.095  0.00  0.00    +0.118 C 
ATOM     13  C   UNL     1       2.232  -0.712  23.873  0.00  0.00    +0.154 C 
ATOM     14  C   UNL     1       3.677   1.087  23.243  0.00  0.00    +0.165 C 
ATOM     15  C   UNL     1       4.485  -0.186  23.460  0.00  0.00    +0.174 C 
ENDROOT
BRANCH  12   9
ATOM      9  N   UNL     1       1.306   1.650  23.853  0.00  0.00    -0.292 NA
ATOM     10  N   UNL     1      -1.392   2.540  24.146  0.00  0.00    -0.325 N 
ATOM     16  C   UNL     1       0.203   0.882  23.262  0.00  0.00    +0.104 C 
ATOM     17  C   UNL     1       0.863   2.279  25.103  0.00  0.00    +0.104 C 
ATOM     19  C   UNL     1      -0.990   1.788  22.951  0.00  0.00    +0.120 C 
ATOM     20  C   UNL     1      -0.310   3.231  24.854  0.00  0.00    +0.120 C 
BRANCH  10  22
ATOM     22  C   UNL     1      -2.692   3.055  24.194  0.00  0.00    +0.072 A 
ATOM     23  C   UNL     1      -3.172   3.669  25.351  0.00  0.00    +0.141 A 
ATOM     24  C   UNL     1      -3.512   2.949  23.069  0.00  0.00    +0.027 A 
ATOM     26  C   UNL     1      -4.470   4.177  25.384  0.00  0.00    +0.047 A 
ATOM     27  C   UNL     1      -4.811   3.458  23.103  0.00  0.00    +0.002 A 
ATOM     28  C   UNL     1      -5.289   4.073  24.260  0.00  0.00    +0.004 A 
BRANCH  23   8
ATOM      8  O   UNL     1      -2.387   3.783  26.459  0.00  0.00    -0.493 OA
ATOM     33  C   UNL     1      -3.040   4.119  27.682  0.00  0.00    +0.277 C 
ENDBRANCH  23   8
ENDBRANCH  10  22
ENDBRANCH  12   9
BRANCH  14   4
ATOM      4  O   UNL     1       3.334   1.229  21.871  0.00  0.00    -0.388 OA
ATOM     35  H   UNL     1       4.029   1.761  21.447  0.00  0.00    +0.210 HD
ENDBRANCH  14   4
BRANCH  13  18
ATOM     18  C   UNL     1       1.265  -1.103  22.762  0.00  0.00    +0.139 C 
BRANCH  18  11
ATOM     11  N   UNL     1      -0.118  -0.856  23.207  0.00  0.00    -0.187 NA
ATOM     36  H   UNL     1      -0.423   0.125  23.198  0.00  0.00    +0.148 HD
BRANCH  11   2
ATOM      2  S   UNL     1      -0.869  -1.926  24.297  0.00  0.00    +0.058 S 
ATOM      6  O   UNL     1      -0.099  -1.980  25.526  0.00  0.00    -0.153 OA
ATOM      7  O   UNL     1      -1.214  -3.149  23.599  0.00  0.00    -0.153 OA
BRANCH   2  25
ATOM      1 CL   UNL     1      -6.254   1.063  25.519  0.00  0.00    -0.084 Cl
ATOM     25  C   UNL     1      -2.386  -1.084  24.642  0.00  0.00    +0.105 A 
ATOM     29  C   UNL     1      -3.475  -1.230  23.782  0.00  0.00    +0.030 A 
ATOM     30  C   UNL     1      -2.493  -0.275  25.772  0.00  0.00    +0.030 A 
ATOM     31  C   UNL     1      -4.671  -0.566  24.054  0.00  0.00    +0.022 A 
ATOM     32  C   UNL     1      -3.689   0.389  26.044  0.00  0.00    +0.022 A 
ATOM     34  C   UNL     1      -4.777   0.244  25.184  0.00  0.00    +0.041 A 
ENDBRANCH   2  25
ENDBRANCH  11   2
ENDBRANCH  18  11
ENDBRANCH  13  18
BRANCH  15  21
ATOM     21  C   UNL     1       5.510  -0.500  22.385  0.00  0.00    +0.190 C 
BRANCH  21   5
ATOM      5  O   UNL     1       6.807  -0.242  22.899  0.00  0.00    -0.392 OA
ATOM     37  H   UNL     1       7.150  -1.084  23.243  0.00  0.00    +0.210 HD
ENDBRANCH  21   5
ENDBRANCH  15  21
TORSDOF 10
ENDMDL
MODEL 10
REMARK VINA RESULT:       9.8      2.306      4.756
REMARK  Name = 28961981
REMARK  11 active torsions:
REMARK  status: ('A' for Active; 'I' for Inactive)
REMARK    1  A    between atoms: S_2  and  N_11
REMARK    2  A    between atoms: S_2  and  C_25
REMARK    3  A    between atoms: O_4  and  C_14
REMARK    4  A    between atoms: O_5  and  C_21
REMARK    5  A    between atoms: O_8  and  C_23
REMARK    6  A    between atoms: O_8  and  C_33
REMARK    7  A    between atoms: N_9  and  C_12
REMARK    8  A    between atoms: N_10  and  C_22
REMARK    9  A    between atoms: N_11  and  C_18
REMARK   10  A    between atoms: C_13  and  C_18
REMARK   11  A    between atoms: C_15  and  C_21
REMARK                            x       y       z     vdW  Elec       q    Type
REMARK                         _______ _______ _______ _____ _____    ______ ____
ROOT
ATOM      3  O   UNL     1      -4.423  -2.100  25.525  0.00  0.00    -0.366 OA
ATOM     12  C   UNL     1      -2.258  -1.924  24.551  0.00  0.00    +0.118 C 
ATOM     13  C   UNL     1      -3.170  -1.394  25.666  0.00  0.00    +0.154 C 
ATOM     14  C   UNL     1      -3.245  -2.388  23.492  0.00  0.00    +0.165 C 
ATOM     15  C   UNL     1      -4.352  -2.958  24.370  0.00  0.00    +0.174 C 
ENDROOT
BRANCH  12   9
ATOM      9  N   UNL     1      -1.226  -1.017  24.081  0.00  0.00    -0.292 NA
ATOM     10  N   UNL     1       1.446  -0.157  23.553  0.00  0.00    -0.325 N 
ATOM     16  C   UNL     1      -0.338  -0.630  25.186  0.00  0.00    +0.104 C 
ATOM     17  C   UNL     1      -0.444  -1.638  23.006  0.00  0.00    +0.104 C 
ATOM     19  C   UNL     1       0.719   0.370  24.714  0.00  0.00    +0.120 C 
ATOM     20  C   UNL     1       0.611  -0.672  22.464  0.00  0.00    +0.120 C 
BRANCH  10  22
ATOM     22  C   UNL     1       2.707   0.379  23.267  0.00  0.00    +0.072 A 
ATOM     23  C   UNL     1       3.862  -0.380  23.461  0.00  0.00    +0.141 A 
ATOM     24  C   UNL     1       2.804   1.685  22.787  0.00  0.00    +0.027 A 
ATOM     26  C   UNL     1       5.112   0.167  23.173  0.00  0.00    +0.047 A 
ATOM     27  C   UNL     1       4.054   2.232  22.498  0.00  0.00    +0.002 A 
ATOM     28  C   UNL     1       5.208   1.472  22.691  0.00  0.00    +0.004 A 
BRANCH  23   8
ATOM      8  O   UNL     1       3.789  -1.657  23.929  0.00  0.00    -0.493 OA
ATOM     33  C   UNL     1       5.000  -2.411  23.945  0.00  0.00    +0.277 C 
ENDBRANCH  23   8
ENDBRANCH  10  22
ENDBRANCH  12   9
BRANCH  14   4
ATOM      4  O   UNL     1      -3.735  -1.297  22.723  0.00  0.00    -0.388 OA
ATOM     35  H   UNL     1      -3.148  -1.190  21.956  0.00  0.00    +0.210 HD
ENDBRANCH  14   4
BRANCH  13  18
ATOM     18  C   UNL     1      -3.485   0.096  25.641  0.00  0.00    +0.139 C 
BRANCH  18  11
ATOM     11  N   UNL     1      -4.920   0.288  25.361  0.00  0.00    -0.187 NA
ATOM     36  H   UNL     1      -5.347  -0.395  24.724  0.00  0.00    +0.148 HD
BRANCH  11   2
ATOM      2  S   UNL     1      -5.611   1.840  25.467  0.00  0.00    +0.058 S 
ATOM      6  O   UNL     1      -6.117   2.050  26.810  0.00  0.00    -0.153 OA
ATOM      7  O   UNL     1      -6.472   2.054  24.321  0.00  0.00    -0.153 OA
BRANCH   2  25
ATOM      1 CL   UNL     1      -0.592   5.534  24.699  0.00  0.00    -0.084 Cl
ATOM     25  C   UNL     1      -4.197   2.880  25.250  0.00  0.00    +0.105 A 
ATOM     29  C   UNL     1      -3.827   3.772  26.257  0.00  0.00    +0.030 A 
ATOM     30  C   UNL     1      -3.452   2.809  24.073  0.00  0.00    +0.030 A 
ATOM     31  C   UNL     1      -2.713   4.593  26.087  0.00  0.00    +0.022 A 
ATOM     32  C   UNL     1      -2.337   3.629  23.903  0.00  0.00    +0.022 A 
ATOM     34  C   UNL     1      -1.968   4.521  24.909  0.00  0.00    +0.041 A 
ENDBRANCH   2  25
ENDBRANCH  11   2
ENDBRANCH  18  11
ENDBRANCH  13  18
BRANCH  15  21
ATOM     21  C   UNL     1      -5.723  -3.040  23.723  0.00  0.00    +0.190 C 
BRANCH  21   5
ATOM      5  O   UNL     1      -5.585  -3.593  22.423  0.00  0.00    -0.392 OA
ATOM     37  H   UNL     1      -5.428  -4.546  22.534  0.00  0.00    +0.210 HD
ENDBRANCH  21   5
ENDBRANCH  15  21
TORSDOF 10
ENDMDL
