MODEL 1
REMARK VINA RESULT:      -2.5      0.000      0.000
REMARK  Name = 56775724
REMARK  7 active torsions:
REMARK  status: ('A' for Active; 'I' for Inactive)
REMARK    1  A    between atoms: O_4  and  C_25
REMARK    2  A    between atoms: N_5  and  C_8
REMARK    3  A    between atoms: N_5  and  C_9
REMARK    4  A    between atoms: C_8  and  C_12
REMARK    5  A    between atoms: C_12  and  C_17
REMARK    6  A    between atoms: C_18  and  C_21
REMARK    7  A    between atoms: C_20  and  C_22
REMARK                            x       y       z     vdW  Elec       q    Type
REMARK                         _______ _______ _______ _____ _____    ______ ____
ROOT
ATOM      1  O   UNL     1      -5.444   4.234  25.717  0.00  0.00    -0.376 OA
ATOM      8  C   UNL     1      -3.439   3.830  25.107  0.00  0.00    +0.072 C 
ATOM     10  C   UNL     1      -4.581   4.742  24.675  0.00  0.00    +0.184 C 
ATOM     11  C   UNL     1      -4.373   3.413  26.237  0.00  0.00    +0.184 C 
ENDROOT
BRANCH   8   5
ATOM      5  N   UNL     1      -3.332   2.723  24.150  0.00  0.00    -0.304 NA
ATOM     28  H   UNL     1      -2.447   2.672  23.645  0.00  0.00    +0.123 HD
BRANCH   5   9
ATOM      3  O   UNL     1      -2.142  -3.284  24.698  0.00  0.00    -0.276 OA
ATOM      6  N   UNL     1      -3.526  -1.430  24.904  0.00  0.00    -0.302 N 
ATOM      9  C   UNL     1      -3.597   1.463  24.840  0.00  0.00    +0.057 C 
ATOM     13  C   UNL     1      -2.287   0.696  25.056  0.00  0.00    +0.037 C 
ATOM     14  C   UNL     1      -4.587   0.617  24.029  0.00  0.00    +0.037 C 
ATOM     15  C   UNL     1      -2.553  -0.669  25.690  0.00  0.00    +0.109 C 
ATOM     16  C   UNL     1      -4.806  -0.746  24.682  0.00  0.00    +0.109 C 
ATOM     18  C   UNL     1      -3.213  -2.717  24.468  0.00  0.00    +0.212 C 
ATOM     21  C   UNL     1      -4.267  -3.433  23.662  0.00  0.00    +0.109 C 
ENDBRANCH   5   9
ENDBRANCH   8   5
BRANCH   8  12
ATOM     12  C   UNL     1      -2.113   4.437  25.449  0.00  0.00    +0.085 C 
BRANCH  12  17
ATOM      2  O   UNL     1       0.669   2.135  25.589  0.00  0.00    -0.354 OA
ATOM      7  N   UNL     1      -0.256   2.985  26.184  0.00  0.00    -0.083 NA
ATOM     17  C   UNL     1      -0.988   3.462  25.173  0.00  0.00    +0.086 A 
ATOM     19  C   UNL     1      -0.575   2.954  23.930  0.00  0.00    +0.076 A 
ATOM     20  C   UNL     1       0.469   2.126  24.246  0.00  0.00    +0.168 A 
BRANCH  20  22
ATOM     22  C   UNL     1       1.354   1.286  23.492  0.00  0.00    +0.023 A 
ATOM     23  C   UNL     1       2.733   1.481  23.565  0.00  0.00    +0.057 A 
ATOM     24  C   UNL     1       0.835   0.275  22.683  0.00  0.00    +0.012 A 
ATOM     25  C   UNL     1       3.593   0.665  22.830  0.00  0.00    +0.118 A 
ATOM     26  C   UNL     1       1.695  -0.541  21.948  0.00  0.00    +0.004 A 
ATOM     27  C   UNL     1       3.074  -0.346  22.021  0.00  0.00    +0.045 A 
BRANCH  25   4
ATOM      4  O   UNL     1       4.939   0.856  22.901  0.00  0.00    -0.507 OA
ATOM     29  H   UNL     1       5.296   0.317  23.627  0.00  0.00    +0.292 HD
ENDBRANCH  25   4
ENDBRANCH  20  22
ENDBRANCH  12  17
ENDBRANCH   8  12
TORSDOF 6
ENDMDL
MODEL 2
REMARK VINA RESULT:      -1.2      1.846      2.607
REMARK  Name = 56775724
REMARK  7 active torsions:
REMARK  status: ('A' for Active; 'I' for Inactive)
REMARK    1  A    between atoms: O_4  and  C_25
REMARK    2  A    between atoms: N_5  and  C_8
REMARK    3  A    between atoms: N_5  and  C_9
REMARK    4  A    between atoms: C_8  and  C_12
REMARK    5  A    between atoms: C_12  and  C_17
REMARK    6  A    between atoms: C_18  and  C_21
REMARK    7  A    between atoms: C_20  and  C_22
REMARK                            x       y       z     vdW  Elec       q    Type
REMARK                         _______ _______ _______ _____ _____    ______ ____
ROOT
ATOM      1  O   UNL     1      -2.200   4.985  25.388  0.00  0.00    -0.376 OA
ATOM      8  C   UNL     1      -1.607   3.037  24.747  0.00  0.00    +0.072 C 
ATOM     10  C   UNL     1      -2.882   3.721  25.227  0.00  0.00    +0.184 C 
ATOM     11  C   UNL     1      -0.981   4.423  24.851  0.00  0.00    +0.184 C 
ENDROOT
BRANCH   8   5
ATOM      5  N   UNL     1      -1.084   2.200  25.832  0.00  0.00    -0.304 NA
ATOM     28  H   UNL     1      -0.883   2.693  26.701  0.00  0.00    +0.123 HD
BRANCH   5   9
ATOM      3  O   UNL     1      -2.918  -3.492  24.402  0.00  0.00    -0.276 OA
ATOM      6  N   UNL     1      -3.298  -1.344  25.200  0.00  0.00    -0.302 N 
ATOM      9  C   UNL     1      -2.008   1.095  26.076  0.00  0.00    +0.057 C 
ATOM     13  C   UNL     1      -1.255  -0.241  26.030  0.00  0.00    +0.037 C 
ATOM     14  C   UNL     1      -3.136   1.112  25.036  0.00  0.00    +0.037 C 
ATOM     15  C   UNL     1      -2.220  -1.415  26.189  0.00  0.00    +0.109 C 
ATOM     16  C   UNL     1      -4.062  -0.090  25.213  0.00  0.00    +0.109 C 
ATOM     18  C   UNL     1      -3.552  -2.435  24.370  0.00  0.00    +0.212 C 
ATOM     21  C   UNL     1      -4.677  -2.282  23.378  0.00  0.00    +0.109 C 
ENDBRANCH   5   9
ENDBRANCH   8   5
BRANCH   8  12
ATOM     12  C   UNL     1      -1.610   2.340  23.421  0.00  0.00    +0.085 C 
BRANCH  12  17
ATOM      2  O   UNL     1       0.800  -0.268  22.756  0.00  0.00    -0.354 OA
ATOM      7  N   UNL     1      -0.493   0.242  22.755  0.00  0.00    -0.083 NA
ATOM     17  C   UNL     1      -0.380   1.471  23.267  0.00  0.00    +0.086 A 
ATOM     19  C   UNL     1       0.946   1.788  23.606  0.00  0.00    +0.076 A 
ATOM     20  C   UNL     1       1.648   0.662  23.266  0.00  0.00    +0.168 A 
BRANCH  20  22
ATOM     22  C   UNL     1       3.028   0.277  23.329  0.00  0.00    +0.023 A 
ATOM     23  C   UNL     1       3.373  -1.040  23.630  0.00  0.00    +0.057 A 
ATOM     24  C   UNL     1       4.027   1.222  23.090  0.00  0.00    +0.012 A 
ATOM     25  C   UNL     1       4.715  -1.413  23.693  0.00  0.00    +0.118 A 
ATOM     26  C   UNL     1       5.369   0.848  23.153  0.00  0.00    +0.004 A 
ATOM     27  C   UNL     1       5.714  -0.469  23.455  0.00  0.00    +0.045 A 
BRANCH  25   4
ATOM      4  O   UNL     1       5.051  -2.699  23.988  0.00  0.00    -0.507 OA
ATOM     29  H   UNL     1       5.171  -3.192  23.159  0.00  0.00    +0.292 HD
ENDBRANCH  25   4
ENDBRANCH  20  22
ENDBRANCH  12  17
ENDBRANCH   8  12
TORSDOF 6
ENDMDL
MODEL 3
REMARK VINA RESULT:      -0.7      1.958      4.627
REMARK  Name = 56775724
REMARK  7 active torsions:
REMARK  status: ('A' for Active; 'I' for Inactive)
REMARK    1  A    between atoms: O_4  and  C_25
REMARK    2  A    between atoms: N_5  and  C_8
REMARK    3  A    between atoms: N_5  and  C_9
REMARK    4  A    between atoms: C_8  and  C_12
REMARK    5  A    between atoms: C_12  and  C_17
REMARK    6  A    between atoms: C_18  and  C_21
REMARK    7  A    between atoms: C_20  and  C_22
REMARK                            x       y       z     vdW  Elec       q    Type
REMARK                         _______ _______ _______ _____ _____    ______ ____
ROOT
ATOM      1  O   UNL     1      -3.155  -3.078  25.282  0.00  0.00    -0.376 OA
ATOM      8  C   UNL     1      -3.051  -1.045  24.639  0.00  0.00    +0.072 C 
ATOM     10  C   UNL     1      -3.693  -1.831  25.776  0.00  0.00    +0.184 C 
ATOM     11  C   UNL     1      -2.442  -2.383  24.234  0.00  0.00    +0.184 C 
ENDROOT
BRANCH   8   5
ATOM      5  N   UNL     1      -4.089  -0.686  23.667  0.00  0.00    -0.304 NA
ATOM     28  H   UNL     1      -4.940  -1.247  23.716  0.00  0.00    +0.123 HD
BRANCH   5   9
ATOM      3  O   UNL     1      -2.154   4.998  24.990  0.00  0.00    -0.276 OA
ATOM      6  N   UNL     1      -3.792   3.356  24.864  0.00  0.00    -0.302 N 
ATOM      9  C   UNL     1      -4.407   0.733  23.804  0.00  0.00    +0.057 C 
ATOM     13  C   UNL     1      -3.269   1.585  23.230  0.00  0.00    +0.037 C 
ATOM     14  C   UNL     1      -4.645   1.079  25.280  0.00  0.00    +0.037 C 
ATOM     15  C   UNL     1      -3.538   3.073  23.449  0.00  0.00    +0.109 C 
ATOM     16  C   UNL     1      -4.886   2.578  25.459  0.00  0.00    +0.109 C 
ATOM     18  C   UNL     1      -3.045   4.332  25.522  0.00  0.00    +0.212 C 
ATOM     21  C   UNL     1      -3.366   4.561  26.977  0.00  0.00    +0.109 C 
ENDBRANCH   5   9
ENDBRANCH   8   5
BRANCH   8  12
ATOM     12  C   UNL     1      -2.139   0.096  24.967  0.00  0.00    +0.085 C 
BRANCH  12  17
ATOM      2  O   UNL     1       0.511  -0.396  22.561  0.00  0.00    -0.354 OA
ATOM      7  N   UNL     1      -0.829  -0.376  22.928  0.00  0.00    -0.083 NA
ATOM     17  C   UNL     1      -0.829  -0.028  24.218  0.00  0.00    +0.086 A 
ATOM     19  C   UNL     1       0.468   0.183  24.714  0.00  0.00    +0.076 A 
ATOM     20  C   UNL     1       1.274  -0.062  23.633  0.00  0.00    +0.168 A 
BRANCH  20  22
ATOM     22  C   UNL     1       2.690  -0.037  23.405  0.00  0.00    +0.023 A 
ATOM     23  C   UNL     1       3.480  -1.114  23.807  0.00  0.00    +0.057 A 
ATOM     24  C   UNL     1       3.277   1.066  22.784  0.00  0.00    +0.012 A 
ATOM     25  C   UNL     1       4.857  -1.089  23.587  0.00  0.00    +0.118 A 
ATOM     26  C   UNL     1       4.654   1.090  22.564  0.00  0.00    +0.004 A 
ATOM     27  C   UNL     1       5.445   0.014  22.966  0.00  0.00    +0.045 A 
BRANCH  25   4
ATOM      4  O   UNL     1       5.629  -2.139  23.979  0.00  0.00    -0.507 OA
ATOM     29  H   UNL     1       5.246  -2.529  24.783  0.00  0.00    +0.292 HD
ENDBRANCH  25   4
ENDBRANCH  20  22
ENDBRANCH  12  17
ENDBRANCH   8  12
TORSDOF 6
ENDMDL
MODEL 4
REMARK VINA RESULT:      -0.6      1.771      5.856
REMARK  Name = 56775724
REMARK  7 active torsions:
REMARK  status: ('A' for Active; 'I' for Inactive)
REMARK    1  A    between atoms: O_4  and  C_25
REMARK    2  A    between atoms: N_5  and  C_8
REMARK    3  A    between atoms: N_5  and  C_9
REMARK    4  A    between atoms: C_8  and  C_12
REMARK    5  A    between atoms: C_12  and  C_17
REMARK    6  A    between atoms: C_18  and  C_21
REMARK    7  A    between atoms: C_20  and  C_22
REMARK                            x       y       z     vdW  Elec       q    Type
REMARK                         _______ _______ _______ _____ _____    ______ ____
ROOT
ATOM      1  O   UNL     1       2.077  -0.365  21.165  0.00  0.00    -0.376 OA
ATOM      8  C   UNL     1       1.693   0.460  23.096  0.00  0.00    +0.072 C 
ATOM     10  C   UNL     1       2.901  -0.023  22.302  0.00  0.00    +0.184 C 
ATOM     11  C   UNL     1       0.905   0.164  21.825  0.00  0.00    +0.184 C 
ENDROOT
BRANCH   8   5
ATOM      5  N   UNL     1       1.357  -0.550  24.105  0.00  0.00    -0.304 NA
ATOM     28  H   UNL     1       1.922  -0.519  24.953  0.00  0.00    +0.123 HD
BRANCH   5   9
ATOM      3  O   UNL     1      -3.839  -3.381  25.776  0.00  0.00    -0.276 OA
ATOM      6  N   UNL     1      -2.671  -1.667  24.731  0.00  0.00    -0.302 N 
ATOM      9  C   UNL     1      -0.062  -0.446  24.437  0.00  0.00    +0.057 C 
ATOM     13  C   UNL     1      -0.393  -1.358  25.624  0.00  0.00    +0.037 C 
ATOM     14  C   UNL     1      -0.917  -0.819  23.218  0.00  0.00    +0.037 C 
ATOM     15  C   UNL     1      -1.891  -1.338  25.926  0.00  0.00    +0.109 C 
ATOM     16  C   UNL     1      -2.404  -0.811  23.568  0.00  0.00    +0.109 C 
ATOM     18  C   UNL     1      -3.608  -2.698  24.775  0.00  0.00    +0.212 C 
ATOM     21  C   UNL     1      -4.367  -2.976  23.503  0.00  0.00    +0.109 C 
ENDBRANCH   5   9
ENDBRANCH   8   5
BRANCH   8  12
ATOM     12  C   UNL     1       1.691   1.854  23.642  0.00  0.00    +0.085 C 
BRANCH  12  17
ATOM      2  O   UNL     1      -0.903   2.434  26.089  0.00  0.00    -0.354 OA
ATOM      7  N   UNL     1       0.410   2.151  25.731  0.00  0.00    -0.083 NA
ATOM     17  C   UNL     1       0.408   2.136  24.395  0.00  0.00    +0.086 A 
ATOM     19  C   UNL     1      -0.863   2.402  23.860  0.00  0.00    +0.076 A 
ATOM     20  C   UNL     1      -1.651   2.581  24.966  0.00  0.00    +0.168 A 
BRANCH  20  22
ATOM     22  C   UNL     1      -3.038   2.882  25.177  0.00  0.00    +0.023 A 
ATOM     23  C   UNL     1      -4.015   1.953  24.821  0.00  0.00    +0.057 A 
ATOM     24  C   UNL     1      -3.409   4.105  25.737  0.00  0.00    +0.012 A 
ATOM     25  C   UNL     1      -5.363   2.246  25.025  0.00  0.00    +0.118 A 
ATOM     26  C   UNL     1      -4.757   4.397  25.941  0.00  0.00    +0.004 A 
ATOM     27  C   UNL     1      -5.735   3.469  25.585  0.00  0.00    +0.045 A 
BRANCH  25   4
ATOM      4  O   UNL     1      -6.318   1.340  24.677  0.00  0.00    -0.507 OA
ATOM     29  H   UNL     1      -6.982   1.294  25.384  0.00  0.00    +0.292 HD
ENDBRANCH  25   4
ENDBRANCH  20  22
ENDBRANCH  12  17
ENDBRANCH   8  12
TORSDOF 6
ENDMDL
MODEL 5
REMARK VINA RESULT:      -0.5      1.335      1.699
REMARK  Name = 56775724
REMARK  7 active torsions:
REMARK  status: ('A' for Active; 'I' for Inactive)
REMARK    1  A    between atoms: O_4  and  C_25
REMARK    2  A    between atoms: N_5  and  C_8
REMARK    3  A    between atoms: N_5  and  C_9
REMARK    4  A    between atoms: C_8  and  C_12
REMARK    5  A    between atoms: C_12  and  C_17
REMARK    6  A    between atoms: C_18  and  C_21
REMARK    7  A    between atoms: C_20  and  C_22
REMARK                            x       y       z     vdW  Elec       q    Type
REMARK                         _______ _______ _______ _____ _____    ______ ____
ROOT
ATOM      1  O   UNL     1      -5.812   4.114  25.693  0.00  0.00    -0.376 OA
ATOM      8  C   UNL     1      -3.755   3.838  25.195  0.00  0.00    +0.072 C 
ATOM     10  C   UNL     1      -4.803   4.937  25.066  0.00  0.00    +0.184 C 
ATOM     11  C   UNL     1      -4.844   3.067  25.932  0.00  0.00    +0.184 C 
ENDROOT
BRANCH   8   5
ATOM      5  N   UNL     1      -3.551   3.224  23.879  0.00  0.00    -0.304 NA
ATOM     28  H   UNL     1      -2.590   3.242  23.536  0.00  0.00    +0.123 HD
BRANCH   5   9
ATOM      3  O   UNL     1      -3.198  -2.433  26.260  0.00  0.00    -0.276 OA
ATOM      6  N   UNL     1      -3.699  -0.946  24.548  0.00  0.00    -0.302 N 
ATOM      9  C   UNL     1      -4.055   1.853  23.902  0.00  0.00    +0.057 C 
ATOM     13  C   UNL     1      -4.132   1.346  25.347  0.00  0.00    +0.037 C 
ATOM     14  C   UNL     1      -3.150   0.944  23.061  0.00  0.00    +0.037 C 
ATOM     15  C   UNL     1      -4.567  -0.118  25.388  0.00  0.00    +0.109 C 
ATOM     16  C   UNL     1      -3.603  -0.512  23.148  0.00  0.00    +0.109 C 
ATOM     18  C   UNL     1      -3.074  -2.069  25.089  0.00  0.00    +0.212 C 
ATOM     21  C   UNL     1      -2.195  -2.866  24.159  0.00  0.00    +0.109 C 
ENDBRANCH   5   9
ENDBRANCH   8   5
BRANCH   8  12
ATOM     12  C   UNL     1      -2.471   4.137  25.905  0.00  0.00    +0.085 C 
BRANCH  12  17
ATOM      2  O   UNL     1       0.055   1.560  25.714  0.00  0.00    -0.354 OA
ATOM      7  N   UNL     1      -0.897   2.301  26.404  0.00  0.00    -0.083 NA
ATOM     17  C   UNL     1      -1.391   3.154  25.502  0.00  0.00    +0.086 A 
ATOM     19  C   UNL     1      -0.797   2.999  24.239  0.00  0.00    +0.076 A 
ATOM     20  C   UNL     1       0.105   1.985  24.426  0.00  0.00    +0.168 A 
BRANCH  20  22
ATOM     22  C   UNL     1       1.047   1.307  23.583  0.00  0.00    +0.023 A 
ATOM     23  C   UNL     1       0.596   0.442  22.586  0.00  0.00    +0.057 A 
ATOM     24  C   UNL     1       2.416   1.510  23.762  0.00  0.00    +0.012 A 
ATOM     25  C   UNL     1       1.512  -0.219  21.768  0.00  0.00    +0.118 A 
ATOM     26  C   UNL     1       3.332   0.849  22.944  0.00  0.00    +0.004 A 
ATOM     27  C   UNL     1       2.880  -0.016  21.947  0.00  0.00    +0.045 A 
BRANCH  25   4
ATOM      4  O   UNL     1       1.071  -1.063  20.796  0.00  0.00    -0.507 OA
ATOM     29  H   UNL     1       0.118  -0.924  20.666  0.00  0.00    +0.292 HD
ENDBRANCH  25   4
ENDBRANCH  20  22
ENDBRANCH  12  17
ENDBRANCH   8  12
TORSDOF 6
ENDMDL
MODEL 6
REMARK VINA RESULT:      -0.0      1.898      5.477
REMARK  Name = 56775724
REMARK  7 active torsions:
REMARK  status: ('A' for Active; 'I' for Inactive)
REMARK    1  A    between atoms: O_4  and  C_25
REMARK    2  A    between atoms: N_5  and  C_8
REMARK    3  A    between atoms: N_5  and  C_9
REMARK    4  A    between atoms: C_8  and  C_12
REMARK    5  A    between atoms: C_12  and  C_17
REMARK    6  A    between atoms: C_18  and  C_21
REMARK    7  A    between atoms: C_20  and  C_22
REMARK                            x       y       z     vdW  Elec       q    Type
REMARK                         _______ _______ _______ _____ _____    ______ ____
ROOT
ATOM      1  O   UNL     1      -1.320   6.023  25.329  0.00  0.00    -0.376 OA
ATOM      8  C   UNL     1      -2.816   4.591  24.813  0.00  0.00    +0.072 C 
ATOM     10  C   UNL     1      -1.583   4.653  25.707  0.00  0.00    +0.184 C 
ATOM     11  C   UNL     1      -2.529   6.062  24.537  0.00  0.00    +0.184 C 
ENDROOT
BRANCH   8   5
ATOM      5  N   UNL     1      -2.490   3.813  23.613  0.00  0.00    -0.304 NA
ATOM     28  H   UNL     1      -2.061   4.344  22.855  0.00  0.00    +0.123 HD
BRANCH   5   9
ATOM      3  O   UNL     1       2.853   0.847  22.937  0.00  0.00    -0.276 OA
ATOM      6  N   UNL     1       0.583   0.918  23.424  0.00  0.00    -0.302 N 
ATOM      9  C   UNL     1      -1.641   2.684  23.986  0.00  0.00    +0.057 C 
ATOM     13  C   UNL     1      -0.187   3.148  24.141  0.00  0.00    +0.037 C 
ATOM     14  C   UNL     1      -1.742   1.577  22.929  0.00  0.00    +0.037 C 
ATOM     15  C   UNL     1       0.734   1.966  24.437  0.00  0.00    +0.109 C 
ATOM     16  C   UNL     1      -0.789   0.426  23.249  0.00  0.00    +0.109 C 
ATOM     18  C   UNL     1       1.704   0.442  22.746  0.00  0.00    +0.212 C 
ATOM     21  C   UNL     1       1.465  -0.634  21.718  0.00  0.00    +0.109 C 
ENDBRANCH   5   9
ENDBRANCH   8   5
BRANCH   8  12
ATOM     12  C   UNL     1      -4.133   4.210  25.415  0.00  0.00    +0.085 C 
BRANCH  12  17
ATOM      2  O   UNL     1      -5.547   0.939  24.814  0.00  0.00    -0.354 OA
ATOM      7  N   UNL     1      -5.647   2.321  24.927  0.00  0.00    -0.083 NA
ATOM     17  C   UNL     1      -4.410   2.734  25.217  0.00  0.00    +0.086 A 
ATOM     19  C   UNL     1      -3.496   1.670  25.297  0.00  0.00    +0.076 A 
ATOM     20  C   UNL     1      -4.262   0.564  25.037  0.00  0.00    +0.168 A 
BRANCH  20  22
ATOM     22  C   UNL     1      -4.002  -0.844  24.950  0.00  0.00    +0.023 A 
ATOM     23  C   UNL     1      -4.469  -1.575  23.858  0.00  0.00    +0.057 A 
ATOM     24  C   UNL     1      -3.282  -1.484  25.960  0.00  0.00    +0.012 A 
ATOM     25  C   UNL     1      -4.217  -2.944  23.775  0.00  0.00    +0.118 A 
ATOM     26  C   UNL     1      -3.030  -2.853  25.877  0.00  0.00    +0.004 A 
ATOM     27  C   UNL     1      -3.498  -3.584  24.785  0.00  0.00    +0.045 A 
BRANCH  25   4
ATOM      4  O   UNL     1      -4.675  -3.657  22.710  0.00  0.00    -0.507 OA
ATOM     29  H   UNL     1      -5.623  -3.477  22.593  0.00  0.00    +0.292 HD
ENDBRANCH  25   4
ENDBRANCH  20  22
ENDBRANCH  12  17
ENDBRANCH   8  12
TORSDOF 6
ENDMDL
MODEL 7
REMARK VINA RESULT:       0.0      1.617      2.082
REMARK  Name = 56775724
REMARK  7 active torsions:
REMARK  status: ('A' for Active; 'I' for Inactive)
REMARK    1  A    between atoms: O_4  and  C_25
REMARK    2  A    between atoms: N_5  and  C_8
REMARK    3  A    between atoms: N_5  and  C_9
REMARK    4  A    between atoms: C_8  and  C_12
REMARK    5  A    between atoms: C_12  and  C_17
REMARK    6  A    between atoms: C_18  and  C_21
REMARK    7  A    between atoms: C_20  and  C_22
REMARK                            x       y       z     vdW  Elec       q    Type
REMARK                         _______ _______ _______ _____ _____    ______ ____
ROOT
ATOM      1  O   UNL     1      -3.263   4.031  25.640  0.00  0.00    -0.376 OA
ATOM      8  C   UNL     1      -3.624   2.377  24.340  0.00  0.00    +0.072 C 
ATOM     10  C   UNL     1      -3.973   3.860  24.393  0.00  0.00    +0.184 C 
ATOM     11  C   UNL     1      -2.817   2.656  25.603  0.00  0.00    +0.184 C 
ENDROOT
BRANCH   8   5
ATOM      5  N   UNL     1      -4.813   1.599  24.702  0.00  0.00    -0.304 NA
ATOM     28  H   UNL     1      -5.533   1.548  23.981  0.00  0.00    +0.123 HD
BRANCH   5   9
ATOM      3  O   UNL     1      -0.313  -2.555  25.244  0.00  0.00    -0.276 OA
ATOM      6  N   UNL     1      -2.540  -1.954  24.972  0.00  0.00    -0.302 N 
ATOM      9  C   UNL     1      -4.405   0.256  25.108  0.00  0.00    +0.057 C 
ATOM     13  C   UNL     1      -3.043   0.310  25.811  0.00  0.00    +0.037 C 
ATOM     14  C   UNL     1      -4.342  -0.668  23.885  0.00  0.00    +0.037 C 
ATOM     15  C   UNL     1      -2.554  -1.095  26.159  0.00  0.00    +0.109 C 
ATOM     16  C   UNL     1      -3.826  -2.053  24.270  0.00  0.00    +0.109 C 
ATOM     18  C   UNL     1      -1.372  -2.628  24.617  0.00  0.00    +0.212 C 
ATOM     21  C   UNL     1      -1.439  -3.489  23.381  0.00  0.00    +0.109 C 
ENDBRANCH   5   9
ENDBRANCH   8   5
BRANCH   8  12
ATOM     12  C   UNL     1      -2.918   1.838  23.134  0.00  0.00    +0.085 C 
BRANCH  12  17
ATOM      2  O   UNL     1       0.524   2.414  24.069  0.00  0.00    -0.354 OA
ATOM      7  N   UNL     1      -0.821   2.765  24.049  0.00  0.00    -0.083 NA
ATOM     17  C   UNL     1      -1.422   1.790  23.362  0.00  0.00    +0.086 A 
ATOM     19  C   UNL     1      -0.518   0.806  22.929  0.00  0.00    +0.076 A 
ATOM     20  C   UNL     1       0.692   1.246  23.399  0.00  0.00    +0.168 A 
BRANCH  20  22
ATOM     22  C   UNL     1       2.037   0.752  23.337  0.00  0.00    +0.023 A 
ATOM     23  C   UNL     1       2.324  -0.546  23.760  0.00  0.00    +0.057 A 
ATOM     24  C   UNL     1       3.059   1.570  22.855  0.00  0.00    +0.012 A 
ATOM     25  C   UNL     1       3.632  -1.025  23.701  0.00  0.00    +0.118 A 
ATOM     26  C   UNL     1       4.367   1.090  22.796  0.00  0.00    +0.004 A 
ATOM     27  C   UNL     1       4.654  -0.207  23.220  0.00  0.00    +0.045 A 
BRANCH  25   4
ATOM      4  O   UNL     1       3.913  -2.292  24.115  0.00  0.00    -0.507 OA
ATOM     29  H   UNL     1       4.877  -2.414  24.123  0.00  0.00    +0.292 HD
ENDBRANCH  25   4
ENDBRANCH  20  22
ENDBRANCH  12  17
ENDBRANCH   8  12
TORSDOF 6
ENDMDL
MODEL 8
REMARK VINA RESULT:       0.4     17.320     19.854
REMARK  Name = 56775724
REMARK  7 active torsions:
REMARK  status: ('A' for Active; 'I' for Inactive)
REMARK    1  A    between atoms: O_4  and  C_25
REMARK    2  A    between atoms: N_5  and  C_8
REMARK    3  A    between atoms: N_5  and  C_9
REMARK    4  A    between atoms: C_8  and  C_12
REMARK    5  A    between atoms: C_12  and  C_17
REMARK    6  A    between atoms: C_18  and  C_21
REMARK    7  A    between atoms: C_20  and  C_22
REMARK                            x       y       z     vdW  Elec       q    Type
REMARK                         _______ _______ _______ _____ _____    ______ ____
ROOT
ATOM      1  O   UNL     1      11.885  -5.401  30.703  0.00  0.00    -0.376 OA
ATOM      8  C   UNL     1      13.015  -6.815  31.835  0.00  0.00    +0.072 C 
ATOM     10  C   UNL     1      11.626  -6.190  31.886  0.00  0.00    +0.184 C 
ATOM     11  C   UNL     1      13.179  -6.025  30.541  0.00  0.00    +0.184 C 
ENDROOT
BRANCH   8   5
ATOM      5  N   UNL     1      13.849  -6.199  32.873  0.00  0.00    -0.304 NA
ATOM     28  H   UNL     1      14.043  -6.791  33.680  0.00  0.00    +0.123 HD
BRANCH   5   9
ATOM      3  O   UNL     1      17.123  -1.514  30.607  0.00  0.00    -0.276 OA
ATOM      6  N   UNL     1      16.567  -3.766  30.740  0.00  0.00    -0.302 N 
ATOM      9  C   UNL     1      15.097  -5.731  32.275  0.00  0.00    +0.057 C 
ATOM     13  C   UNL     1      15.492  -4.376  32.873  0.00  0.00    +0.037 C 
ATOM     14  C   UNL     1      14.942  -5.621  30.752  0.00  0.00    +0.037 C 
ATOM     15  C   UNL     1      16.743  -3.823  32.193  0.00  0.00    +0.109 C 
ATOM     16  C   UNL     1      16.204  -5.043  30.114  0.00  0.00    +0.109 C 
ATOM     18  C   UNL     1      16.784  -2.567  30.061  0.00  0.00    +0.212 C 
ATOM     21  C   UNL     1      16.579  -2.590  28.568  0.00  0.00    +0.109 C 
ENDBRANCH   5   9
ENDBRANCH   8   5
BRANCH   8  12
ATOM     12  C   UNL     1      13.141  -8.306  31.794  0.00  0.00    +0.085 C 
BRANCH  12  17
ATOM      2  O   UNL     1      15.990  -9.592  29.982  0.00  0.00    -0.354 OA
ATOM      7  N   UNL     1      15.287  -9.347  31.156  0.00  0.00    -0.083 NA
ATOM     17  C   UNL     1      14.167  -8.733  30.765  0.00  0.00    +0.086 A 
ATOM     19  C   UNL     1      14.107  -8.566  29.371  0.00  0.00    +0.076 A 
ATOM     20  C   UNL     1      15.277  -9.122  28.926  0.00  0.00    +0.168 A 
BRANCH  20  22
ATOM     22  C   UNL     1      15.879  -9.308  27.637  0.00  0.00    +0.023 A 
ATOM     23  C   UNL     1      16.027  -8.223  26.774  0.00  0.00    +0.057 A 
ATOM     24  C   UNL     1      16.314 -10.575  27.247  0.00  0.00    +0.012 A 
ATOM     25  C   UNL     1      16.611  -8.404  25.520  0.00  0.00    +0.118 A 
ATOM     26  C   UNL     1      16.898 -10.755  25.993  0.00  0.00    +0.004 A 
ATOM     27  C   UNL     1      17.046  -9.670  25.129  0.00  0.00    +0.045 A 
BRANCH  25   4
ATOM      4  O   UNL     1      16.755  -7.345  24.677  0.00  0.00    -0.507 OA
ATOM     29  H   UNL     1      17.575  -7.456  24.168  0.00  0.00    +0.292 HD
ENDBRANCH  25   4
ENDBRANCH  20  22
ENDBRANCH  12  17
ENDBRANCH   8  12
TORSDOF 6
ENDMDL
MODEL 9
REMARK VINA RESULT:       0.4      2.183      4.916
REMARK  Name = 56775724
REMARK  7 active torsions:
REMARK  status: ('A' for Active; 'I' for Inactive)
REMARK    1  A    between atoms: O_4  and  C_25
REMARK    2  A    between atoms: N_5  and  C_8
REMARK    3  A    between atoms: N_5  and  C_9
REMARK    4  A    between atoms: C_8  and  C_12
REMARK    5  A    between atoms: C_12  and  C_17
REMARK    6  A    between atoms: C_18  and  C_21
REMARK    7  A    between atoms: C_20  and  C_22
REMARK                            x       y       z     vdW  Elec       q    Type
REMARK                         _______ _______ _______ _____ _____    ______ ____
ROOT
ATOM      1  O   UNL     1      -6.249   3.676  26.250  0.00  0.00    -0.376 OA
ATOM      8  C   UNL     1      -4.562   4.422  25.176  0.00  0.00    +0.072 C 
ATOM     10  C   UNL     1      -4.898   3.209  26.036  0.00  0.00    +0.184 C 
ATOM     11  C   UNL     1      -6.027   4.800  25.368  0.00  0.00    +0.184 C 
ENDROOT
BRANCH   8   5
ATOM      5  N   UNL     1      -3.731   5.341  25.960  0.00  0.00    -0.304 NA
ATOM     28  H   UNL     1      -4.090   5.566  26.889  0.00  0.00    +0.123 HD
BRANCH   5   9
ATOM      3  O   UNL     1       0.827   2.165  23.328  0.00  0.00    -0.276 OA
ATOM      6  N   UNL     1      -0.345   2.938  25.178  0.00  0.00    -0.302 N 
ATOM      9  C   UNL     1      -2.376   4.804  26.056  0.00  0.00    +0.057 C 
ATOM     13  C   UNL     1      -1.643   4.983  24.721  0.00  0.00    +0.037 C 
ATOM     14  C   UNL     1      -2.424   3.321  26.448  0.00  0.00    +0.037 C 
ATOM     15  C   UNL     1      -0.258   4.341  24.769  0.00  0.00    +0.109 C 
ATOM     16  C   UNL     1      -1.023   2.712  26.461  0.00  0.00    +0.109 C 
ATOM     18  C   UNL     1       0.231   1.946  24.385  0.00  0.00    +0.212 C 
ATOM     21  C   UNL     1       0.096   0.526  24.874  0.00  0.00    +0.109 C 
ENDBRANCH   5   9
ENDBRANCH   8   5
BRANCH   8  12
ATOM     12  C   UNL     1      -4.045   4.208  23.787  0.00  0.00    +0.085 C 
BRANCH  12  17
ATOM      2  O   UNL     1      -2.696   1.056  22.648  0.00  0.00    -0.354 OA
ATOM      7  N   UNL     1      -2.875   2.430  22.536  0.00  0.00    -0.083 NA
ATOM     17  C   UNL     1      -3.638   2.764  23.581  0.00  0.00    +0.086 A 
ATOM     19  C   UNL     1      -3.966   1.656  24.379  0.00  0.00    +0.076 A 
ATOM     20  C   UNL     1      -3.350   0.607  23.749  0.00  0.00    +0.168 A 
BRANCH  20  22
ATOM     22  C   UNL     1      -3.252  -0.802  23.999  0.00  0.00    +0.023 A 
ATOM     23  C   UNL     1      -2.062  -1.344  24.483  0.00  0.00    +0.057 A 
ATOM     24  C   UNL     1      -4.348  -1.631  23.755  0.00  0.00    +0.012 A 
ATOM     25  C   UNL     1      -1.967  -2.715  24.724  0.00  0.00    +0.118 A 
ATOM     26  C   UNL     1      -4.252  -3.001  23.996  0.00  0.00    +0.004 A 
ATOM     27  C   UNL     1      -3.062  -3.544  24.481  0.00  0.00    +0.045 A 
BRANCH  25   4
ATOM      4  O   UNL     1      -0.805  -3.244  25.197  0.00  0.00    -0.507 OA
ATOM     29  H   UNL     1      -0.562  -4.010  24.650  0.00  0.00    +0.292 HD
ENDBRANCH  25   4
ENDBRANCH  20  22
ENDBRANCH  12  17
ENDBRANCH   8  12
TORSDOF 6
ENDMDL
MODEL 10
REMARK VINA RESULT:       1.1      1.522      4.710
REMARK  Name = 56775724
REMARK  7 active torsions:
REMARK  status: ('A' for Active; 'I' for Inactive)
REMARK    1  A    between atoms: O_4  and  C_25
REMARK    2  A    between atoms: N_5  and  C_8
REMARK    3  A    between atoms: N_5  and  C_9
REMARK    4  A    between atoms: C_8  and  C_12
REMARK    5  A    between atoms: C_12  and  C_17
REMARK    6  A    between atoms: C_18  and  C_21
REMARK    7  A    between atoms: C_20  and  C_22
REMARK                            x       y       z     vdW  Elec       q    Type
REMARK                         _______ _______ _______ _____ _____    ______ ____
ROOT
ATOM      1  O   UNL     1      -3.654  -3.490  23.717  0.00  0.00    -0.376 OA
ATOM      8  C   UNL     1      -3.538  -1.658  24.806  0.00  0.00    +0.072 C 
ATOM     10  C   UNL     1      -4.193  -3.025  24.975  0.00  0.00    +0.184 C 
ATOM     11  C   UNL     1      -2.930  -2.251  23.541  0.00  0.00    +0.184 C 
ENDROOT
BRANCH   8   5
ATOM      5  N   UNL     1      -4.567  -0.686  24.424  0.00  0.00    -0.304 NA
ATOM     28  H   UNL     1      -5.527  -0.971  24.620  0.00  0.00    +0.123 HD
BRANCH   5   9
ATOM      3  O   UNL     1      -6.335   5.088  25.583  0.00  0.00    -0.276 OA
ATOM      6  N   UNL     1      -4.716   3.450  25.277  0.00  0.00    -0.302 N 
ATOM      9  C   UNL     1      -4.278   0.597  25.060  0.00  0.00    +0.057 C 
ATOM     13  C   UNL     1      -5.551   1.169  25.695  0.00  0.00    +0.037 C 
ATOM     14  C   UNL     1      -3.705   1.578  24.029  0.00  0.00    +0.037 C 
ATOM     15  C   UNL     1      -5.293   2.555  26.283  0.00  0.00    +0.109 C 
ATOM     16  C   UNL     1      -3.484   2.957  24.650  0.00  0.00    +0.109 C 
ATOM     18  C   UNL     1      -5.318   4.680  25.016  0.00  0.00    +0.212 C 
ATOM     21  C   UNL     1      -4.666   5.542  23.965  0.00  0.00    +0.109 C 
ENDBRANCH   5   9
ENDBRANCH   8   5
BRANCH   8  12
ATOM     12  C   UNL     1      -2.626  -1.151  25.881  0.00  0.00    +0.085 C 
BRANCH  12  17
ATOM      2  O   UNL     1       0.119   0.993  24.923  0.00  0.00    -0.354 OA
ATOM      7  N   UNL     1      -1.033   0.721  25.650  0.00  0.00    -0.083 NA
ATOM     17  C   UNL     1      -1.391  -0.513  25.281  0.00  0.00    +0.086 A 
ATOM     19  C   UNL     1      -0.511  -1.063  24.335  0.00  0.00    +0.076 A 
ATOM     20  C   UNL     1       0.420  -0.077  24.143  0.00  0.00    +0.168 A 
BRANCH  20  22
ATOM     22  C   UNL     1       1.595   0.056  23.331  0.00  0.00    +0.023 A 
ATOM     23  C   UNL     1       2.803   0.443  23.910  0.00  0.00    +0.057 A 
ATOM     24  C   UNL     1       1.528  -0.201  21.961  0.00  0.00    +0.012 A 
ATOM     25  C   UNL     1       3.945   0.573  23.119  0.00  0.00    +0.118 A 
ATOM     26  C   UNL     1       2.670  -0.070  21.171  0.00  0.00    +0.004 A 
ATOM     27  C   UNL     1       3.879   0.317  21.750  0.00  0.00    +0.045 A 
BRANCH  25   4
ATOM      4  O   UNL     1       5.124   0.952  23.684  0.00  0.00    -0.507 OA
ATOM     29  H   UNL     1       5.652   1.429  23.022  0.00  0.00    +0.292 HD
ENDBRANCH  25   4
ENDBRANCH  20  22
ENDBRANCH  12  17
ENDBRANCH   8  12
TORSDOF 6
ENDMDL
