MODEL 1
REMARK VINA RESULT:      -0.5      0.000      0.000
REMARK  Name = 11884171
REMARK  9 active torsions:
REMARK  status: ('A' for Active; 'I' for Inactive)
REMARK    1  A    between atoms: S_1  and  N_9
REMARK    2  A    between atoms: S_1  and  C_17
REMARK    3  A    between atoms: O_4  and  C_14
REMARK    4  A    between atoms: O_4  and  C_18
REMARK    5  A    between atoms: N_9  and  C_13
REMARK    6  A    between atoms: N_10  and  C_22
REMARK    7  A    between atoms: C_17  and  C_19
REMARK    8  A    between atoms: C_30  and  C_31
REMARK    9  A    between atoms: C_31  and  C_32
REMARK                            x       y       z     vdW  Elec       q    Type
REMARK                         _______ _______ _______ _____ _____    ______ ____
ROOT
ATOM      2  O   UNL     1      -2.432   0.791  23.283  0.00  0.00    -0.369 OA
ATOM      3  O   UNL     1      -5.135  -0.273  24.294  0.00  0.00    -0.368 OA
ATOM     11  C   UNL     1      -4.309   0.824  24.735  0.00  0.00    +0.171 C 
ATOM     12  C   UNL     1      -2.868   0.376  24.588  0.00  0.00    +0.191 C 
ATOM     13  C   UNL     1      -4.431   1.979  23.773  0.00  0.00    +0.133 C 
ATOM     14  C   UNL     1      -2.979  -1.127  24.689  0.00  0.00    +0.235 C 
ATOM     15  C   UNL     1      -3.443   1.615  22.681  0.00  0.00    +0.183 C 
ATOM     16  C   UNL     1      -4.293  -1.396  23.993  0.00  0.00    +0.207 C 
ENDROOT
BRANCH  13   9
ATOM      9  N   UNL     1      -4.007   3.236  24.433  0.00  0.00    -0.186 NA
ATOM     33  H   UNL     1      -3.028   3.522  24.309  0.00  0.00    +0.148 HD
BRANCH   9   1
ATOM      1  S   UNL     1      -4.857   3.772  25.807  0.00  0.00    +0.034 S 
ATOM      5  O   UNL     1      -5.550   2.660  26.428  0.00  0.00    -0.158 OA
ATOM      6  O   UNL     1      -5.571   4.985  25.453  0.00  0.00    -0.158 OA
BRANCH   1  17
ATOM     17  C   UNL     1      -3.510   4.240  26.868  0.00  0.00    +0.220 C 
BRANCH  17  19
ATOM     19  C   UNL     1      -2.238   4.052  26.101  0.00  0.00    -0.025 A 
ATOM     20  C   UNL     1      -1.507   2.872  26.241  0.00  0.00    +0.005 A 
ATOM     21  C   UNL     1      -1.781   5.057  25.248  0.00  0.00    +0.005 A 
ATOM     23  C   UNL     1      -0.322   2.696  25.527  0.00  0.00    +0.000 A 
ATOM     24  C   UNL     1      -0.597   4.881  24.534  0.00  0.00    +0.000 A 
ATOM     25  C   UNL     1       0.134   3.701  24.673  0.00  0.00    +0.000 A 
ENDBRANCH  17  19
ENDBRANCH   1  17
ENDBRANCH   9   1
ENDBRANCH  13   9
BRANCH  14   4
ATOM      4  O   UNL     1      -1.907  -1.812  24.083  0.00  0.00    -0.442 OA
BRANCH   4  18
ATOM      7  O   UNL     1      -0.314  -1.543  25.702  0.00  0.00    -0.226 OA
ATOM     10  N   UNL     1       0.150  -1.144  23.442  0.00  0.00    -0.251 N 
ATOM     18  C   UNL     1      -0.637  -1.497  24.521  0.00  0.00    +0.405 C 
ATOM     34  H   UNL     1      -0.301  -1.167  22.531  0.00  0.00    +0.158 HD
BRANCH  10  22
ATOM     22  C   UNL     1       1.508  -0.752  23.447  0.00  0.00    +0.036 A 
ATOM     26  C   UNL     1       1.863   0.538  23.051  0.00  0.00    +0.024 A 
ATOM     27  C   UNL     1       2.493  -1.656  23.844  0.00  0.00    +0.024 A 
ATOM     28  C   UNL     1       3.203   0.924  23.053  0.00  0.00    +0.013 A 
ATOM     29  C   UNL     1       3.833  -1.270  23.847  0.00  0.00    +0.013 A 
ATOM     30  C   UNL     1       4.189   0.020  23.452  0.00  0.00    +0.017 A 
BRANCH  30  31
ATOM      8  O   UNL     1       5.957   1.484  23.996  0.00  0.00    -0.292 OA
ATOM     31  C   UNL     1       5.586   0.423  23.456  0.00  0.00    +0.160 C 
ATOM     32  C   UNL     1       6.640  -0.455  22.788  0.00  0.00    +0.091 C 
ENDBRANCH  30  31
ENDBRANCH  10  22
ENDBRANCH   4  18
ENDBRANCH  14   4
TORSDOF 8
ENDMDL
MODEL 2
REMARK VINA RESULT:      -0.0      1.348      1.593
REMARK  Name = 11884171
REMARK  9 active torsions:
REMARK  status: ('A' for Active; 'I' for Inactive)
REMARK    1  A    between atoms: S_1  and  N_9
REMARK    2  A    between atoms: S_1  and  C_17
REMARK    3  A    between atoms: O_4  and  C_14
REMARK    4  A    between atoms: O_4  and  C_18
REMARK    5  A    between atoms: N_9  and  C_13
REMARK    6  A    between atoms: N_10  and  C_22
REMARK    7  A    between atoms: C_17  and  C_19
REMARK    8  A    between atoms: C_30  and  C_31
REMARK    9  A    between atoms: C_31  and  C_32
REMARK                            x       y       z     vdW  Elec       q    Type
REMARK                         _______ _______ _______ _____ _____    ______ ____
ROOT
ATOM      2  O   UNL     1      -2.695  -0.034  25.391  0.00  0.00    -0.369 OA
ATOM      3  O   UNL     1      -5.038  -0.963  23.629  0.00  0.00    -0.368 OA
ATOM     11  C   UNL     1      -4.998  -0.180  24.840  0.00  0.00    +0.171 C 
ATOM     12  C   UNL     1      -3.895  -0.760  25.703  0.00  0.00    +0.191 C 
ATOM     13  C   UNL     1      -4.522   1.218  24.532  0.00  0.00    +0.133 C 
ATOM     14  C   UNL     1      -3.824  -2.191  25.226  0.00  0.00    +0.235 C 
ATOM     15  C   UNL     1      -3.014   1.067  24.526  0.00  0.00    +0.183 C 
ATOM     16  C   UNL     1      -4.106  -2.049  23.748  0.00  0.00    +0.207 C 
ENDROOT
BRANCH  13   9
ATOM      9  N   UNL     1      -4.929   2.143  25.617  0.00  0.00    -0.186 NA
ATOM     33  H   UNL     1      -5.600   1.786  26.308  0.00  0.00    +0.148 HD
BRANCH   9   1
ATOM      1  S   UNL     1      -4.832   3.821  25.347  0.00  0.00    +0.034 S 
ATOM      5  O   UNL     1      -6.093   4.452  25.686  0.00  0.00    -0.158 OA
ATOM      6  O   UNL     1      -4.220   4.037  24.050  0.00  0.00    -0.158 OA
BRANCH   1  17
ATOM     17  C   UNL     1      -3.639   4.285  26.581  0.00  0.00    +0.220 C 
BRANCH  17  19
ATOM     19  C   UNL     1      -2.275   4.107  25.988  0.00  0.00    -0.025 A 
ATOM     20  C   UNL     1      -1.509   2.992  26.325  0.00  0.00    +0.005 A 
ATOM     21  C   UNL     1      -1.771   5.057  25.100  0.00  0.00    +0.005 A 
ATOM     23  C   UNL     1      -0.238   2.825  25.773  0.00  0.00    +0.000 A 
ATOM     24  C   UNL     1      -0.502   4.891  24.548  0.00  0.00    +0.000 A 
ATOM     25  C   UNL     1       0.266   3.775  24.884  0.00  0.00    +0.000 A 
ENDBRANCH  17  19
ENDBRANCH   1  17
ENDBRANCH   9   1
ENDBRANCH  13   9
BRANCH  14   4
ATOM      4  O   UNL     1      -2.578  -2.804  25.471  0.00  0.00    -0.442 OA
BRANCH   4  18
ATOM      7  O   UNL     1      -1.525  -3.194  23.479  0.00  0.00    -0.226 OA
ATOM     10  N   UNL     1      -0.717  -1.616  25.008  0.00  0.00    -0.251 N 
ATOM     18  C   UNL     1      -1.582  -2.588  24.542  0.00  0.00    +0.405 C 
ATOM     34  H   UNL     1      -0.931  -1.225  25.922  0.00  0.00    +0.158 HD
BRANCH  10  22
ATOM     22  C   UNL     1       0.434  -1.098  24.372  0.00  0.00    +0.036 A 
ATOM     26  C   UNL     1       0.358   0.101  23.663  0.00  0.00    +0.024 A 
ATOM     27  C   UNL     1       1.644  -1.786  24.452  0.00  0.00    +0.024 A 
ATOM     28  C   UNL     1       1.493   0.612  23.033  0.00  0.00    +0.013 A 
ATOM     29  C   UNL     1       2.780  -1.275  23.823  0.00  0.00    +0.013 A 
ATOM     30  C   UNL     1       2.704  -0.076  23.113  0.00  0.00    +0.017 A 
BRANCH  30  31
ATOM      8  O   UNL     1       3.843   0.904  21.295  0.00  0.00    -0.292 OA
ATOM     31  C   UNL     1       3.888   0.457  22.458  0.00  0.00    +0.160 C 
ATOM     32  C   UNL     1       5.226   0.480  23.190  0.00  0.00    +0.091 C 
ENDBRANCH  30  31
ENDBRANCH  10  22
ENDBRANCH   4  18
ENDBRANCH  14   4
TORSDOF 8
ENDMDL
MODEL 3
REMARK VINA RESULT:       2.0      1.584      2.260
REMARK  Name = 11884171
REMARK  9 active torsions:
REMARK  status: ('A' for Active; 'I' for Inactive)
REMARK    1  A    between atoms: S_1  and  N_9
REMARK    2  A    between atoms: S_1  and  C_17
REMARK    3  A    between atoms: O_4  and  C_14
REMARK    4  A    between atoms: O_4  and  C_18
REMARK    5  A    between atoms: N_9  and  C_13
REMARK    6  A    between atoms: N_10  and  C_22
REMARK    7  A    between atoms: C_17  and  C_19
REMARK    8  A    between atoms: C_30  and  C_31
REMARK    9  A    between atoms: C_31  and  C_32
REMARK                            x       y       z     vdW  Elec       q    Type
REMARK                         _______ _______ _______ _____ _____    ______ ____
ROOT
ATOM      2  O   UNL     1      -2.899   0.394  23.706  0.00  0.00    -0.369 OA
ATOM      3  O   UNL     1      -3.378  -2.144  25.376  0.00  0.00    -0.368 OA
ATOM     11  C   UNL     1      -3.335  -0.749  25.739  0.00  0.00    +0.171 C 
ATOM     12  C   UNL     1      -2.256  -0.106  24.890  0.00  0.00    +0.191 C 
ATOM     13  C   UNL     1      -4.603  -0.063  25.298  0.00  0.00    +0.133 C 
ATOM     14  C   UNL     1      -1.344  -1.270  24.582  0.00  0.00    +0.235 C 
ATOM     15  C   UNL     1      -4.323   0.261  23.843  0.00  0.00    +0.183 C 
ATOM     16  C   UNL     1      -2.323  -2.413  24.440  0.00  0.00    +0.207 C 
ENDROOT
BRANCH  13   9
ATOM      9  N   UNL     1      -4.793   1.192  26.063  0.00  0.00    -0.186 NA
ATOM     33  H   UNL     1      -4.293   1.277  26.956  0.00  0.00    +0.148 HD
BRANCH   9   1
ATOM      1  S   UNL     1      -6.219   2.093  25.825  0.00  0.00    +0.034 S 
ATOM      5  O   UNL     1      -7.099   1.939  26.967  0.00  0.00    -0.158 OA
ATOM      6  O   UNL     1      -6.698   1.837  24.480  0.00  0.00    -0.158 OA
BRANCH   1  17
ATOM     17  C   UNL     1      -5.572   3.749  25.852  0.00  0.00    +0.220 C 
BRANCH  17  19
ATOM     19  C   UNL     1      -4.131   3.683  25.446  0.00  0.00    -0.025 A 
ATOM     20  C   UNL     1      -3.792   3.518  24.103  0.00  0.00    +0.005 A 
ATOM     21  C   UNL     1      -3.129   3.783  26.411  0.00  0.00    +0.005 A 
ATOM     23  C   UNL     1      -2.451   3.456  23.725  0.00  0.00    +0.000 A 
ATOM     24  C   UNL     1      -1.789   3.722  26.033  0.00  0.00    +0.000 A 
ATOM     25  C   UNL     1      -1.449   3.558  24.690  0.00  0.00    +0.000 A 
ENDBRANCH  17  19
ENDBRANCH   1  17
ENDBRANCH   9   1
ENDBRANCH  13   9
BRANCH  14   4
ATOM      4  O   UNL     1      -0.571  -1.086  23.417  0.00  0.00    -0.442 OA
BRANCH   4  18
ATOM      7  O   UNL     1       0.544   0.873  23.802  0.00  0.00    -0.226 OA
ATOM     10  N   UNL     1       1.683  -1.117  23.329  0.00  0.00    -0.251 N 
ATOM     18  C   UNL     1       0.572  -0.323  23.540  0.00  0.00    +0.405 C 
ATOM     34  H   UNL     1       1.502  -2.096  23.123  0.00  0.00    +0.158 HD
BRANCH  10  22
ATOM     22  C   UNL     1       3.043  -0.736  23.362  0.00  0.00    +0.036 A 
ATOM     26  C   UNL     1       3.989  -1.576  23.952  0.00  0.00    +0.024 A 
ATOM     27  C   UNL     1       3.440   0.480  22.807  0.00  0.00    +0.024 A 
ATOM     28  C   UNL     1       5.331  -1.199  23.986  0.00  0.00    +0.013 A 
ATOM     29  C   UNL     1       4.783   0.857  22.840  0.00  0.00    +0.013 A 
ATOM     30  C   UNL     1       5.729   0.017  23.430  0.00  0.00    +0.017 A 
BRANCH  30  31
ATOM      8  O   UNL     1       7.495   1.471  24.007  0.00  0.00    -0.292 OA
ATOM     31  C   UNL     1       7.128   0.409  23.464  0.00  0.00    +0.160 C 
ATOM     32  C   UNL     1       8.191  -0.481  22.828  0.00  0.00    +0.091 C 
ENDBRANCH  30  31
ENDBRANCH  10  22
ENDBRANCH   4  18
ENDBRANCH  14   4
TORSDOF 8
ENDMDL
MODEL 4
REMARK VINA RESULT:       2.7      2.226      7.064
REMARK  Name = 11884171
REMARK  9 active torsions:
REMARK  status: ('A' for Active; 'I' for Inactive)
REMARK    1  A    between atoms: S_1  and  N_9
REMARK    2  A    between atoms: S_1  and  C_17
REMARK    3  A    between atoms: O_4  and  C_14
REMARK    4  A    between atoms: O_4  and  C_18
REMARK    5  A    between atoms: N_9  and  C_13
REMARK    6  A    between atoms: N_10  and  C_22
REMARK    7  A    between atoms: C_17  and  C_19
REMARK    8  A    between atoms: C_30  and  C_31
REMARK    9  A    between atoms: C_31  and  C_32
REMARK                            x       y       z     vdW  Elec       q    Type
REMARK                         _______ _______ _______ _____ _____    ______ ____
ROOT
ATOM      2  O   UNL     1      -2.041   2.620  24.329  0.00  0.00    -0.369 OA
ATOM      3  O   UNL     1      -0.295   5.085  24.909  0.00  0.00    -0.368 OA
ATOM     11  C   UNL     1      -0.106   3.685  25.199  0.00  0.00    +0.171 C 
ATOM     12  C   UNL     1      -1.469   3.120  25.550  0.00  0.00    +0.191 C 
ATOM     13  C   UNL     1       0.280   2.947  23.941  0.00  0.00    +0.133 C 
ATOM     14  C   UNL     1      -2.207   4.337  26.056  0.00  0.00    +0.235 C 
ATOM     15  C   UNL     1      -1.059   2.677  23.283  0.00  0.00    +0.183 C 
ATOM     16  C   UNL     1      -1.664   5.432  25.167  0.00  0.00    +0.207 C 
ENDROOT
BRANCH  13   9
ATOM      9  N   UNL     1       0.936   1.664  24.287  0.00  0.00    -0.186 NA
ATOM     33  H   UNL     1       1.910   1.708  24.609  0.00  0.00    +0.148 HD
BRANCH   9   1
ATOM      1  S   UNL     1       0.366   0.229  23.569  0.00  0.00    +0.034 S 
ATOM      5  O   UNL     1      -0.950   0.446  23.003  0.00  0.00    -0.158 OA
ATOM      6  O   UNL     1       0.605  -0.865  24.492  0.00  0.00    -0.158 OA
BRANCH   1  17
ATOM     17  C   UNL     1       1.518   0.051  22.227  0.00  0.00    +0.220 C 
BRANCH  17  19
ATOM     19  C   UNL     1       2.888  -0.083  22.815  0.00  0.00    -0.025 A 
ATOM     20  C   UNL     1       3.280  -1.286  23.403  0.00  0.00    +0.005 A 
ATOM     21  C   UNL     1       3.773   0.995  22.778  0.00  0.00    +0.005 A 
ATOM     23  C   UNL     1       4.556  -1.412  23.952  0.00  0.00    +0.000 A 
ATOM     24  C   UNL     1       5.048   0.870  23.326  0.00  0.00    +0.000 A 
ATOM     25  C   UNL     1       5.441  -0.334  23.914  0.00  0.00    +0.000 A 
ENDBRANCH  17  19
ENDBRANCH   1  17
ENDBRANCH   9   1
ENDBRANCH  13   9
BRANCH  14   4
ATOM      4  O   UNL     1      -3.609   4.224  25.961  0.00  0.00    -0.442 OA
BRANCH   4  18
ATOM      7  O   UNL     1      -5.015   3.201  24.475  0.00  0.00    -0.226 OA
ATOM     10  N   UNL     1      -3.414   1.994  25.685  0.00  0.00    -0.251 N 
ATOM     18  C   UNL     1      -4.103   3.124  25.290  0.00  0.00    +0.405 C 
ATOM     34  H   UNL     1      -2.683   2.132  26.378  0.00  0.00    +0.158 HD
BRANCH  10  22
ATOM     22  C   UNL     1      -3.601   0.663  25.245  0.00  0.00    +0.036 A 
ATOM     26  C   UNL     1      -2.875  -0.373  25.832  0.00  0.00    +0.024 A 
ATOM     27  C   UNL     1      -4.509   0.387  24.223  0.00  0.00    +0.024 A 
ATOM     28  C   UNL     1      -3.057  -1.686  25.397  0.00  0.00    +0.013 A 
ATOM     29  C   UNL     1      -4.693  -0.925  23.789  0.00  0.00    +0.013 A 
ATOM     30  C   UNL     1      -3.967  -1.962  24.376  0.00  0.00    +0.017 A 
BRANCH  30  31
ATOM      8  O   UNL     1      -3.378  -4.244  24.259  0.00  0.00    -0.292 OA
ATOM     31  C   UNL     1      -4.158  -3.331  23.923  0.00  0.00    +0.160 C 
ATOM     32  C   UNL     1      -5.333  -3.682  23.016  0.00  0.00    +0.091 C 
ENDBRANCH  30  31
ENDBRANCH  10  22
ENDBRANCH   4  18
ENDBRANCH  14   4
TORSDOF 8
ENDMDL
