MODEL 1
REMARK VINA RESULT:       9.1      0.000      0.000
REMARK  Name = 40777705
REMARK  13 active torsions:
REMARK  status: ('A' for Active; 'I' for Inactive)
REMARK    1  A    between atoms: S_1  and  N_5
REMARK    2  A    between atoms: S_1  and  C_22
REMARK    3  A    between atoms: N_5  and  C_11
REMARK    4  A    between atoms: N_6  and  C_18
REMARK    5  A    between atoms: N_8  and  C_34
REMARK    6  A    between atoms: C_9  and  C_12
REMARK    7  A    between atoms: C_15  and  C_17
REMARK    8  A    between atoms: C_16  and  C_20
REMARK    9  A    between atoms: C_19  and  C_21
REMARK   10  A    between atoms: C_19  and  C_27
REMARK   11  A    between atoms: C_19  and  C_28
REMARK   12  A    between atoms: C_19  and  C_29
REMARK   13  A    between atoms: C_35  and  C_36
REMARK                            x       y       z     vdW  Elec       q    Type
REMARK                         _______ _______ _______ _____ _____    ______ ____
ROOT
ATOM      9  C   UNL     1      -3.039   2.915  24.235  0.00  0.00    +0.047 C 
ATOM     10  C   UNL     1      -3.585   2.121  25.437  0.00  0.00    +0.037 C 
ATOM     11  C   UNL     1      -4.074   3.166  26.455  0.00  0.00    +0.100 C 
ATOM     13  C   UNL     1      -2.734   4.250  24.849  0.00  0.00    -0.021 C 
ATOM     14  C   UNL     1      -3.305   4.385  26.051  0.00  0.00    -0.010 C 
ENDROOT
BRANCH   9  12
ATOM      6  N   UNL     1       0.081   1.354  23.119  0.00  0.00    -0.236 N 
ATOM      7  N   UNL     1      -0.588   1.234  21.959  0.00  0.00    -0.171 NA
ATOM     12  C   UNL     1      -1.862   2.246  23.563  0.00  0.00    +0.003 A 
ATOM     15  C   UNL     1      -0.638   1.953  24.110  0.00  0.00    +0.046 A 
ATOM     16  C   UNL     1      -1.775   1.780  22.237  0.00  0.00    +0.064 A 
ATOM     17  C   UNL     1      -0.106   2.189  25.468  0.00  0.00    +0.066 C 
ATOM     20  C   UNL     1      -2.810   1.835  21.189  0.00  0.00    +0.068 C 
BRANCH   6  18
ATOM     18  C   UNL     1       1.391   0.882  23.213  0.00  0.00    +0.066 A 
ATOM     21  C   UNL     1       4.010  -0.059  23.409  0.00  0.00    -0.042 A 
ATOM     23  C   UNL     1       1.630  -0.471  23.454  0.00  0.00    +0.028 A 
ATOM     24  C   UNL     1       2.461   1.765  23.071  0.00  0.00    +0.028 A 
ATOM     25  C   UNL     1       2.939  -0.941  23.551  0.00  0.00    +0.006 A 
ATOM     26  C   UNL     1       3.770   1.295  23.169  0.00  0.00    +0.006 A 
BRANCH  21  19
ATOM     19  C   UNL     1       5.410  -0.561  23.514  0.00  0.00    -0.013 C 
ATOM     27  C   UNL     1       5.442  -2.061  23.942  0.00  0.00    +0.015 C 
ATOM     28  C   UNL     1       6.223   0.247  24.574  0.00  0.00    +0.015 C 
ATOM     29  C   UNL     1       6.253  -0.485  22.198  0.00  0.00    +0.015 C 
ENDBRANCH  21  19
ENDBRANCH   6  18
ENDBRANCH   9  12
BRANCH  11   5
ATOM      5  N   UNL     1      -5.512   3.389  26.364  0.00  0.00    -0.183 NA
ATOM     37  H   UNL     1      -5.888   4.272  26.728  0.00  0.00    +0.149 HD
BRANCH   5   1
ATOM      1  S   UNL     1      -6.557   2.087  26.031  0.00  0.00    +0.059 S 
ATOM      2  O   UNL     1      -7.387   2.419  24.887  0.00  0.00    -0.153 OA
ATOM      3  O   UNL     1      -7.166   1.641  27.269  0.00  0.00    -0.153 OA
BRANCH   1  22
ATOM     22  C   UNL     1      -5.420   0.830  25.531  0.00  0.00    +0.105 A 
ATOM     30  C   UNL     1      -4.679   0.138  26.490  0.00  0.00    +0.030 A 
ATOM     31  C   UNL     1      -5.262   0.530  24.178  0.00  0.00    +0.030 A 
ATOM     32  C   UNL     1      -3.781  -0.854  26.095  0.00  0.00    +0.025 A 
ATOM     33  C   UNL     1      -4.364  -0.462  23.784  0.00  0.00    +0.025 A 
ATOM     34  C   UNL     1      -3.624  -1.154  24.742  0.00  0.00    +0.033 A 
BRANCH  34   8
ATOM      4  O   UNL     1      -0.702  -1.511  25.375  0.00  0.00    -0.276 OA
ATOM      8  N   UNL     1      -2.726  -2.147  24.348  0.00  0.00    -0.286 N 
ATOM     35  C   UNL     1      -1.369  -2.264  24.673  0.00  0.00    +0.214 C 
ATOM     36  C   UNL     1      -0.746  -3.486  24.045  0.00  0.00    +0.109 C 
ATOM     38  H   UNL     1      -3.117  -2.873  23.750  0.00  0.00    +0.155 HD
ENDBRANCH  34   8
ENDBRANCH   1  22
ENDBRANCH   5   1
ENDBRANCH  11   5
TORSDOF 7
ENDMDL
MODEL 2
REMARK VINA RESULT:      10.1      1.809      3.756
REMARK  Name = 40777705
REMARK  13 active torsions:
REMARK  status: ('A' for Active; 'I' for Inactive)
REMARK    1  A    between atoms: S_1  and  N_5
REMARK    2  A    between atoms: S_1  and  C_22
REMARK    3  A    between atoms: N_5  and  C_11
REMARK    4  A    between atoms: N_6  and  C_18
REMARK    5  A    between atoms: N_8  and  C_34
REMARK    6  A    between atoms: C_9  and  C_12
REMARK    7  A    between atoms: C_15  and  C_17
REMARK    8  A    between atoms: C_16  and  C_20
REMARK    9  A    between atoms: C_19  and  C_21
REMARK   10  A    between atoms: C_19  and  C_27
REMARK   11  A    between atoms: C_19  and  C_28
REMARK   12  A    between atoms: C_19  and  C_29
REMARK   13  A    between atoms: C_35  and  C_36
REMARK                            x       y       z     vdW  Elec       q    Type
REMARK                         _______ _______ _______ _____ _____    ______ ____
ROOT
ATOM      9  C   UNL     1      -2.751  -0.123  24.635  0.00  0.00    +0.047 C 
ATOM     10  C   UNL     1      -3.904   0.734  24.080  0.00  0.00    +0.037 C 
ATOM     11  C   UNL     1      -5.162  -0.150  24.140  0.00  0.00    +0.100 C 
ATOM     13  C   UNL     1      -3.268  -1.518  24.437  0.00  0.00    -0.021 C 
ATOM     14  C   UNL     1      -4.579  -1.528  24.176  0.00  0.00    -0.010 C 
ENDROOT
BRANCH   9  12
ATOM      6  N   UNL     1       0.695   0.233  23.445  0.00  0.00    -0.236 N 
ATOM      7  N   UNL     1       0.112   0.971  22.485  0.00  0.00    -0.171 NA
ATOM     12  C   UNL     1      -1.423   0.159  23.969  0.00  0.00    +0.003 A 
ATOM     15  C   UNL     1      -0.181  -0.276  24.358  0.00  0.00    +0.046 A 
ATOM     16  C   UNL     1      -1.183   0.921  22.811  0.00  0.00    +0.064 A 
ATOM     17  C   UNL     1       0.235  -1.118  25.498  0.00  0.00    +0.066 C 
ATOM     20  C   UNL     1      -2.168   1.628  21.973  0.00  0.00    +0.068 C 
BRANCH   6  18
ATOM     18  C   UNL     1       2.079   0.054  23.435  0.00  0.00    +0.066 A 
ATOM     21  C   UNL     1       4.847  -0.299  23.420  0.00  0.00    -0.042 A 
ATOM     23  C   UNL     1       2.627  -1.179  23.791  0.00  0.00    +0.028 A 
ATOM     24  C   UNL     1       2.915   1.110  23.072  0.00  0.00    +0.028 A 
ATOM     25  C   UNL     1       4.011  -1.355  23.783  0.00  0.00    +0.006 A 
ATOM     26  C   UNL     1       4.298   0.934  23.065  0.00  0.00    +0.006 A 
BRANCH  21  19
ATOM     19  C   UNL     1       6.326  -0.487  23.413  0.00  0.00    -0.013 C 
ATOM     27  C   UNL     1       6.771  -1.511  24.503  0.00  0.00    +0.015 C 
ATOM     28  C   UNL     1       7.068   0.856  23.699  0.00  0.00    +0.015 C 
ATOM     29  C   UNL     1       6.930  -1.019  22.071  0.00  0.00    +0.015 C 
ENDBRANCH  21  19
ENDBRANCH   6  18
ENDBRANCH   9  12
BRANCH  11   5
ATOM      5  N   UNL     1      -5.965   0.121  25.326  0.00  0.00    -0.183 NA
ATOM     37  H   UNL     1      -6.306  -0.680  25.871  0.00  0.00    +0.149 HD
BRANCH   5   1
ATOM      1  S   UNL     1      -6.630   1.669  25.572  0.00  0.00    +0.059 S 
ATOM      2  O   UNL     1      -7.100   1.777  26.941  0.00  0.00    -0.153 OA
ATOM      3  O   UNL     1      -7.518   1.982  24.469  0.00  0.00    -0.153 OA
BRANCH   1  22
ATOM     22  C   UNL     1      -5.207   2.703  25.401  0.00  0.00    +0.105 A 
ATOM     30  C   UNL     1      -4.888   3.252  24.159  0.00  0.00    +0.030 A 
ATOM     31  C   UNL     1      -4.402   2.970  26.508  0.00  0.00    +0.030 A 
ATOM     32  C   UNL     1      -3.765   4.068  24.024  0.00  0.00    +0.025 A 
ATOM     33  C   UNL     1      -3.279   3.787  26.374  0.00  0.00    +0.025 A 
ATOM     34  C   UNL     1      -2.961   4.335  25.131  0.00  0.00    +0.033 A 
BRANCH  34   8
ATOM      4  O   UNL     1      -0.139   3.662  24.327  0.00  0.00    -0.276 OA
ATOM      8  N   UNL     1      -1.837   5.153  24.997  0.00  0.00    -0.286 N 
ATOM     35  C   UNL     1      -0.540   4.784  24.618  0.00  0.00    +0.214 C 
ATOM     36  C   UNL     1       0.393   5.969  24.591  0.00  0.00    +0.109 C 
ATOM     38  H   UNL     1      -1.991   6.139  25.200  0.00  0.00    +0.155 HD
ENDBRANCH  34   8
ENDBRANCH   1  22
ENDBRANCH   5   1
ENDBRANCH  11   5
TORSDOF 7
ENDMDL
MODEL 3
REMARK VINA RESULT:      10.7      1.132      1.642
REMARK  Name = 40777705
REMARK  13 active torsions:
REMARK  status: ('A' for Active; 'I' for Inactive)
REMARK    1  A    between atoms: S_1  and  N_5
REMARK    2  A    between atoms: S_1  and  C_22
REMARK    3  A    between atoms: N_5  and  C_11
REMARK    4  A    between atoms: N_6  and  C_18
REMARK    5  A    between atoms: N_8  and  C_34
REMARK    6  A    between atoms: C_9  and  C_12
REMARK    7  A    between atoms: C_15  and  C_17
REMARK    8  A    between atoms: C_16  and  C_20
REMARK    9  A    between atoms: C_19  and  C_21
REMARK   10  A    between atoms: C_19  and  C_27
REMARK   11  A    between atoms: C_19  and  C_28
REMARK   12  A    between atoms: C_19  and  C_29
REMARK   13  A    between atoms: C_35  and  C_36
REMARK                            x       y       z     vdW  Elec       q    Type
REMARK                         _______ _______ _______ _____ _____    ______ ____
ROOT
ATOM      9  C   UNL     1      -3.015   2.606  24.116  0.00  0.00    +0.047 C 
ATOM     10  C   UNL     1      -3.609   3.328  25.340  0.00  0.00    +0.037 C 
ATOM     11  C   UNL     1      -4.904   4.001  24.855  0.00  0.00    +0.100 C 
ATOM     13  C   UNL     1      -3.645   3.347  22.974  0.00  0.00    -0.021 C 
ATOM     14  C   UNL     1      -4.676   4.097  23.378  0.00  0.00    -0.010 C 
ENDROOT
BRANCH   9  12
ATOM      6  N   UNL     1       0.597   2.022  23.937  0.00  0.00    -0.236 N 
ATOM      7  N   UNL     1       0.656   3.321  24.278  0.00  0.00    -0.171 NA
ATOM     12  C   UNL     1      -1.503   2.596  24.104  0.00  0.00    +0.003 A 
ATOM     15  C   UNL     1      -0.673   1.540  23.820  0.00  0.00    +0.046 A 
ATOM     16  C   UNL     1      -0.630   3.666  24.378  0.00  0.00    +0.064 A 
ATOM     17  C   UNL     1      -0.980   0.142  23.454  0.00  0.00    +0.066 C 
ATOM     20  C   UNL     1      -0.982   5.050  24.743  0.00  0.00    +0.068 C 
BRANCH   6  18
ATOM     18  C   UNL     1       1.778   1.304  23.740  0.00  0.00    +0.066 A 
ATOM     21  C   UNL     1       4.140  -0.128  23.352  0.00  0.00    -0.042 A 
ATOM     23  C   UNL     1       1.812  -0.067  23.996  0.00  0.00    +0.028 A 
ATOM     24  C   UNL     1       2.924   1.959  23.291  0.00  0.00    +0.028 A 
ATOM     25  C   UNL     1       2.994  -0.783  23.801  0.00  0.00    +0.006 A 
ATOM     26  C   UNL     1       4.105   1.244  23.097  0.00  0.00    +0.006 A 
BRANCH  21  19
ATOM     19  C   UNL     1       5.404  -0.893  23.145  0.00  0.00    -0.013 C 
ATOM     27  C   UNL     1       5.186  -2.418  23.385  0.00  0.00    +0.015 C 
ATOM     28  C   UNL     1       6.520  -0.417  24.128  0.00  0.00    +0.015 C 
ATOM     29  C   UNL     1       6.032  -0.780  21.717  0.00  0.00    +0.015 C 
ENDBRANCH  21  19
ENDBRANCH   6  18
ENDBRANCH   9  12
BRANCH  11   5
ATOM      5  N   UNL     1      -6.085   3.202  25.161  0.00  0.00    -0.183 NA
ATOM     37  H   UNL     1      -6.983   3.493  24.757  0.00  0.00    +0.149 HD
BRANCH   5   1
ATOM      1  S   UNL     1      -6.045   2.075  26.436  0.00  0.00    +0.059 S 
ATOM      2  O   UNL     1      -7.396   1.631  26.726  0.00  0.00    -0.153 OA
ATOM      3  O   UNL     1      -5.203   2.592  27.498  0.00  0.00    -0.153 OA
BRANCH   1  22
ATOM     22  C   UNL     1      -5.175   0.725  25.697  0.00  0.00    +0.105 A 
ATOM     30  C   UNL     1      -4.252  -0.004  26.447  0.00  0.00    +0.030 A 
ATOM     31  C   UNL     1      -5.410   0.390  24.363  0.00  0.00    +0.030 A 
ATOM     32  C   UNL     1      -3.566  -1.069  25.864  0.00  0.00    +0.025 A 
ATOM     33  C   UNL     1      -4.723  -0.675  23.780  0.00  0.00    +0.025 A 
ATOM     34  C   UNL     1      -3.802  -1.404  24.531  0.00  0.00    +0.033 A 
BRANCH  34   8
ATOM      4  O   UNL     1      -1.027  -2.456  25.042  0.00  0.00    -0.276 OA
ATOM      8  N   UNL     1      -3.115  -2.471  23.948  0.00  0.00    -0.286 N 
ATOM     35  C   UNL     1      -1.817  -2.918  24.224  0.00  0.00    +0.214 C 
ATOM     36  C   UNL     1      -1.441  -4.106  23.374  0.00  0.00    +0.109 C 
ATOM     38  H   UNL     1      -3.631  -2.981  23.234  0.00  0.00    +0.155 HD
ENDBRANCH  34   8
ENDBRANCH   1  22
ENDBRANCH   5   1
ENDBRANCH  11   5
TORSDOF 7
ENDMDL
