MODEL 1
REMARK VINA RESULT:      -5.0      0.000      0.000
REMARK  Name = 75536787
REMARK  6 active torsions:
REMARK  status: ('A' for Active; 'I' for Inactive)
REMARK    1  A    between atoms: O_3  and  C_9
REMARK    2  A    between atoms: N_5  and  C_8
REMARK    3  A    between atoms: N_5  and  C_11
REMARK    4  A    between atoms: N_6  and  C_15
REMARK    5  A    between atoms: C_10  and  C_15
REMARK    6  A    between atoms: C_16  and  C_17
REMARK                            x       y       z     vdW  Elec       q    Type
REMARK                         _______ _______ _______ _____ _____    ______ ____
ROOT
ATOM      1  O   UNL     1      -0.394   4.059  23.962  0.00  0.00    -0.371 OA
ATOM      8  C   UNL     1      -1.726   4.097  25.928  0.00  0.00    +0.111 C 
ATOM      9  C   UNL     1      -1.012   2.761  25.840  0.00  0.00    +0.164 C 
ATOM     10  C   UNL     1       0.133   3.102  24.895  0.00  0.00    +0.165 C 
ATOM     12  C   UNL     1      -1.620   4.589  24.494  0.00  0.00    +0.181 C 
ENDROOT
BRANCH   9   3
ATOM      3  O   UNL     1      -0.543   2.309  27.094  0.00  0.00    -0.388 OA
ATOM     23  H   UNL     1       0.199   1.700  26.943  0.00  0.00    +0.210 HD
ENDBRANCH   9   3
BRANCH   8   5
ATOM      5  N   UNL     1      -3.100   3.996  26.392  0.00  0.00    -0.302 NA
ATOM     22  H   UNL     1      -3.155   3.345  27.175  0.00  0.00    +0.123 HD
BRANCH   5  11
ATOM      2  O   UNL     1      -5.673   2.573  25.973  0.00  0.00    -0.377 OA
ATOM     11  C   UNL     1      -3.977   3.657  25.264  0.00  0.00    +0.106 C 
ATOM     13  C   UNL     1      -4.402   2.194  25.386  0.00  0.00    +0.180 C 
ATOM     14  C   UNL     1      -5.425   3.965  25.645  0.00  0.00    +0.180 C 
ENDBRANCH   5  11
ENDBRANCH   8   5
BRANCH  10  15
ATOM     15  C   UNL     1       0.673   1.897  24.146  0.00  0.00    +0.138 C 
BRANCH  15   6
ATOM      4  O   UNL     1      -1.887   1.465  22.919  0.00  0.00    -0.270 OA
ATOM      6  N   UNL     1      -0.178   0.754  24.318  0.00  0.00    -0.309 N 
ATOM     16  C   UNL     1      -1.408   0.628  23.680  0.00  0.00    +0.244 C 
ATOM     24  H   UNL     1       0.128   0.055  24.986  0.00  0.00    +0.149 HD
BRANCH  16  17
ATOM      7  N   UNL     1      -3.637  -2.923  24.545  0.00  0.00    -0.263 NA
ATOM     17  C   UNL     1      -2.181  -0.603  23.982  0.00  0.00    +0.040 A 
ATOM     18  C   UNL     1      -1.536  -1.729  24.483  0.00  0.00    +0.033 A 
ATOM     19  C   UNL     1      -3.555  -0.637  23.762  0.00  0.00    +0.033 A 
ATOM     20  C   UNL     1      -2.302  -2.853  24.745  0.00  0.00    +0.111 A 
ATOM     21  C   UNL     1      -4.230  -1.810  24.057  0.00  0.00    +0.111 A 
ENDBRANCH  16  17
ENDBRANCH  15   6
ENDBRANCH  10  15
TORSDOF 6
ENDMDL
MODEL 2
REMARK VINA RESULT:      -4.8      1.831      4.939
REMARK  Name = 75536787
REMARK  6 active torsions:
REMARK  status: ('A' for Active; 'I' for Inactive)
REMARK    1  A    between atoms: O_3  and  C_9
REMARK    2  A    between atoms: N_5  and  C_8
REMARK    3  A    between atoms: N_5  and  C_11
REMARK    4  A    between atoms: N_6  and  C_15
REMARK    5  A    between atoms: C_10  and  C_15
REMARK    6  A    between atoms: C_16  and  C_17
REMARK                            x       y       z     vdW  Elec       q    Type
REMARK                         _______ _______ _______ _____ _____    ______ ____
ROOT
ATOM      1  O   UNL     1      -1.426  -1.995  23.565  0.00  0.00    -0.371 OA
ATOM      8  C   UNL     1       0.017  -0.471  24.677  0.00  0.00    +0.111 C 
ATOM      9  C   UNL     1      -1.243  -0.653  25.504  0.00  0.00    +0.164 C 
ATOM     10  C   UNL     1      -1.760  -1.980  24.962  0.00  0.00    +0.165 C 
ATOM     12  C   UNL     1      -0.439  -0.978  23.319  0.00  0.00    +0.181 C 
ENDROOT
BRANCH   9   3
ATOM      3  O   UNL     1      -0.981  -0.717  26.892  0.00  0.00    -0.388 OA
ATOM     23  H   UNL     1      -0.058  -0.992  27.017  0.00  0.00    +0.210 HD
ENDBRANCH   9   3
BRANCH   8   5
ATOM      5  N   UNL     1       0.496   0.901  24.638  0.00  0.00    -0.302 NA
ATOM     22  H   UNL     1       1.246   1.027  25.319  0.00  0.00    +0.123 HD
BRANCH   5  11
ATOM      2  O   UNL     1       0.095   3.781  25.240  0.00  0.00    -0.377 OA
ATOM     11  C   UNL     1      -0.633   1.822  24.808  0.00  0.00    +0.106 C 
ATOM     13  C   UNL     1      -0.393   2.681  26.050  0.00  0.00    +0.180 C 
ATOM     14  C   UNL     1      -0.351   3.110  24.034  0.00  0.00    +0.180 C 
ENDBRANCH   5  11
ENDBRANCH   8   5
BRANCH  10  15
ATOM     15  C   UNL     1      -3.258  -2.155  25.135  0.00  0.00    +0.138 C 
BRANCH  15   6
ATOM      4  O   UNL     1      -3.763  -0.001  23.305  0.00  0.00    -0.270 OA
ATOM      6  N   UNL     1      -3.897  -0.907  25.438  0.00  0.00    -0.309 N 
ATOM     16  C   UNL     1      -4.102   0.085  24.483  0.00  0.00    +0.244 C 
ATOM     24  H   UNL     1      -4.142  -0.744  26.408  0.00  0.00    +0.149 HD
BRANCH  16  17
ATOM      7  N   UNL     1      -5.982   3.674  25.865  0.00  0.00    -0.263 NA
ATOM     17  C   UNL     1      -4.755   1.331  24.961  0.00  0.00    +0.040 A 
ATOM     18  C   UNL     1      -4.233   2.572  24.612  0.00  0.00    +0.033 A 
ATOM     19  C   UNL     1      -5.890   1.261  25.762  0.00  0.00    +0.033 A 
ATOM     20  C   UNL     1      -4.878   3.703  25.085  0.00  0.00    +0.111 A 
ATOM     21  C   UNL     1      -6.460   2.451  26.184  0.00  0.00    +0.111 A 
ENDBRANCH  16  17
ENDBRANCH  15   6
ENDBRANCH  10  15
TORSDOF 6
ENDMDL
MODEL 3
REMARK VINA RESULT:      -4.7      1.937      5.057
REMARK  Name = 75536787
REMARK  6 active torsions:
REMARK  status: ('A' for Active; 'I' for Inactive)
REMARK    1  A    between atoms: O_3  and  C_9
REMARK    2  A    between atoms: N_5  and  C_8
REMARK    3  A    between atoms: N_5  and  C_11
REMARK    4  A    between atoms: N_6  and  C_15
REMARK    5  A    between atoms: C_10  and  C_15
REMARK    6  A    between atoms: C_16  and  C_17
REMARK                            x       y       z     vdW  Elec       q    Type
REMARK                         _______ _______ _______ _____ _____    ______ ____
ROOT
ATOM      1  O   UNL     1      -0.436   0.842  26.038  0.00  0.00    -0.371 OA
ATOM      8  C   UNL     1      -0.489  -1.137  24.726  0.00  0.00    +0.111 C 
ATOM      9  C   UNL     1      -0.452   0.067  23.803  0.00  0.00    +0.164 C 
ATOM     10  C   UNL     1       0.101   1.136  24.738  0.00  0.00    +0.165 C 
ATOM     12  C   UNL     1      -0.945  -0.503  26.030  0.00  0.00    +0.181 C 
ENDROOT
BRANCH   9   3
ATOM      3  O   UNL     1       0.382  -0.132  22.679  0.00  0.00    -0.388 OA
ATOM     23  H   UNL     1       1.191  -0.583  22.974  0.00  0.00    +0.210 HD
ENDBRANCH   9   3
BRANCH   8   5
ATOM      5  N   UNL     1      -1.376  -2.195  24.270  0.00  0.00    -0.302 NA
ATOM     22  H   UNL     1      -1.445  -2.177  23.252  0.00  0.00    +0.123 HD
BRANCH   5  11
ATOM      2  O   UNL     1      -4.252  -2.504  23.598  0.00  0.00    -0.377 OA
ATOM     11  C   UNL     1      -2.665  -2.089  24.964  0.00  0.00    +0.106 C 
ATOM     13  C   UNL     1      -3.634  -1.288  24.094  0.00  0.00    +0.180 C 
ATOM     14  C   UNL     1      -3.536  -3.288  24.588  0.00  0.00    +0.180 C 
ENDBRANCH   5  11
ENDBRANCH   8   5
BRANCH  10  15
ATOM     15  C   UNL     1      -0.282   2.547  24.329  0.00  0.00    +0.138 C 
BRANCH  15   6
ATOM      4  O   UNL     1      -2.761   1.989  22.991  0.00  0.00    -0.270 OA
ATOM      6  N   UNL     1      -1.599   2.883  24.790  0.00  0.00    -0.309 N 
ATOM     16  C   UNL     1      -2.750   2.572  24.072  0.00  0.00    +0.244 C 
ATOM     24  H   UNL     1      -1.658   3.424  25.645  0.00  0.00    +0.149 HD
BRANCH  16  17
ATOM      7  N   UNL     1      -6.455   3.834  25.806  0.00  0.00    -0.263 NA
ATOM     17  C   UNL     1      -4.036   3.010  24.672  0.00  0.00    +0.040 A 
ATOM     18  C   UNL     1      -4.267   4.359  24.921  0.00  0.00    +0.033 A 
ATOM     19  C   UNL     1      -5.013   2.073  24.990  0.00  0.00    +0.033 A 
ATOM     20  C   UNL     1      -5.481   4.716  25.483  0.00  0.00    +0.111 A 
ATOM     21  C   UNL     1      -6.194   2.533  25.549  0.00  0.00    +0.111 A 
ENDBRANCH  16  17
ENDBRANCH  15   6
ENDBRANCH  10  15
TORSDOF 6
ENDMDL
MODEL 4
REMARK VINA RESULT:      -4.6      1.761      4.018
REMARK  Name = 75536787
REMARK  6 active torsions:
REMARK  status: ('A' for Active; 'I' for Inactive)
REMARK    1  A    between atoms: O_3  and  C_9
REMARK    2  A    between atoms: N_5  and  C_8
REMARK    3  A    between atoms: N_5  and  C_11
REMARK    4  A    between atoms: N_6  and  C_15
REMARK    5  A    between atoms: C_10  and  C_15
REMARK    6  A    between atoms: C_16  and  C_17
REMARK                            x       y       z     vdW  Elec       q    Type
REMARK                         _______ _______ _______ _____ _____    ______ ____
ROOT
ATOM      1  O   UNL     1      -4.938   3.545  26.286  0.00  0.00    -0.371 OA
ATOM      8  C   UNL     1      -2.948   4.174  25.151  0.00  0.00    +0.111 C 
ATOM      9  C   UNL     1      -3.668   3.114  24.337  0.00  0.00    +0.164 C 
ATOM     10  C   UNL     1      -5.083   3.230  24.892  0.00  0.00    +0.165 C 
ATOM     12  C   UNL     1      -3.590   3.992  26.516  0.00  0.00    +0.181 C 
ENDROOT
BRANCH   9   3
ATOM      3  O   UNL     1      -3.625   3.370  22.947  0.00  0.00    -0.388 OA
ATOM     23  H   UNL     1      -4.537   3.441  22.620  0.00  0.00    +0.210 HD
ENDBRANCH   9   3
BRANCH   8   5
ATOM      5  N   UNL     1      -1.504   4.008  25.177  0.00  0.00    -0.302 NA
ATOM     22  H   UNL     1      -1.096   4.377  24.319  0.00  0.00    +0.123 HD
BRANCH   5  11
ATOM      2  O   UNL     1       0.879   2.245  24.986  0.00  0.00    -0.377 OA
ATOM     11  C   UNL     1      -1.175   2.603  25.445  0.00  0.00    +0.106 C 
ATOM     13  C   UNL     1      -0.369   2.048  24.271  0.00  0.00    +0.180 C 
ATOM     14  C   UNL     1       0.149   2.535  26.207  0.00  0.00    +0.180 C 
ENDBRANCH   5  11
ENDBRANCH   8   5
BRANCH  10  15
ATOM     15  C   UNL     1      -5.895   1.957  24.734  0.00  0.00    +0.138 C 
BRANCH  15   6
ATOM      4  O   UNL     1      -4.619   0.186  26.599  0.00  0.00    -0.270 OA
ATOM      6  N   UNL     1      -5.054   0.839  24.415  0.00  0.00    -0.309 N 
ATOM     16  C   UNL     1      -4.475   0.031  25.389  0.00  0.00    +0.244 C 
ATOM     24  H   UNL     1      -4.840   0.695  23.435  0.00  0.00    +0.149 HD
BRANCH  16  17
ATOM      7  N   UNL     1      -1.980  -3.148  23.977  0.00  0.00    -0.263 NA
ATOM     17  C   UNL     1      -3.610  -1.072  24.898  0.00  0.00    +0.040 A 
ATOM     18  C   UNL     1      -4.165  -2.139  24.200  0.00  0.00    +0.033 A 
ATOM     19  C   UNL     1      -2.239  -1.042  25.136  0.00  0.00    +0.033 A 
ATOM     20  C   UNL     1      -3.315  -3.142  23.765  0.00  0.00    +0.111 A 
ATOM     21  C   UNL     1      -1.476  -2.095  24.659  0.00  0.00    +0.111 A 
ENDBRANCH  16  17
ENDBRANCH  15   6
ENDBRANCH  10  15
TORSDOF 6
ENDMDL
MODEL 5
REMARK VINA RESULT:      -4.0      3.025      4.818
REMARK  Name = 75536787
REMARK  6 active torsions:
REMARK  status: ('A' for Active; 'I' for Inactive)
REMARK    1  A    between atoms: O_3  and  C_9
REMARK    2  A    between atoms: N_5  and  C_8
REMARK    3  A    between atoms: N_5  and  C_11
REMARK    4  A    between atoms: N_6  and  C_15
REMARK    5  A    between atoms: C_10  and  C_15
REMARK    6  A    between atoms: C_16  and  C_17
REMARK                            x       y       z     vdW  Elec       q    Type
REMARK                         _______ _______ _______ _____ _____    ______ ____
ROOT
ATOM      1  O   UNL     1      -0.611   1.571  24.677  0.00  0.00    -0.371 OA
ATOM      8  C   UNL     1      -2.898   2.199  24.554  0.00  0.00    +0.111 C 
ATOM      9  C   UNL     1      -2.732   0.816  23.952  0.00  0.00    +0.164 C 
ATOM     10  C   UNL     1      -1.411   0.382  24.575  0.00  0.00    +0.165 C 
ATOM     12  C   UNL     1      -1.469   2.715  24.522  0.00  0.00    +0.181 C 
ENDROOT
BRANCH   9   3
ATOM      3  O   UNL     1      -3.788  -0.059  24.295  0.00  0.00    -0.388 OA
ATOM     23  H   UNL     1      -4.386   0.406  24.904  0.00  0.00    +0.210 HD
ENDBRANCH   9   3
BRANCH   8   5
ATOM      5  N   UNL     1      -3.823   3.047  23.821  0.00  0.00    -0.302 NA
ATOM     22  H   UNL     1      -3.319   3.824  23.393  0.00  0.00    +0.123 HD
BRANCH   5  11
ATOM      2  O   UNL     1      -5.457   1.836  25.986  0.00  0.00    -0.377 OA
ATOM     11  C   UNL     1      -4.921   3.457  24.705  0.00  0.00    +0.106 C 
ATOM     13  C   UNL     1      -5.977   2.352  24.733  0.00  0.00    +0.180 C 
ATOM     14  C   UNL     1      -4.611   3.006  26.132  0.00  0.00    +0.180 C 
ENDBRANCH   5  11
ENDBRANCH   8   5
BRANCH  10  15
ATOM     15  C   UNL     1      -0.677  -0.664  23.756  0.00  0.00    +0.138 C 
BRANCH  15   6
ATOM      4  O   UNL     1       1.226  -0.338  21.630  0.00  0.00    -0.270 OA
ATOM      6  N   UNL     1       0.745  -0.529  23.893  0.00  0.00    -0.309 N 
ATOM     16  C   UNL     1       1.595  -0.374  22.801  0.00  0.00    +0.244 C 
ATOM     24  H   UNL     1       1.124  -0.616  24.829  0.00  0.00    +0.149 HD
BRANCH  16  17
ATOM      7  N   UNL     1       5.775  -0.085  23.680  0.00  0.00    -0.263 NA
ATOM     17  C   UNL     1       3.045  -0.272  23.107  0.00  0.00    +0.040 A 
ATOM     18  C   UNL     1       3.742   0.894  22.811  0.00  0.00    +0.033 A 
ATOM     19  C   UNL     1       3.712  -1.346  23.690  0.00  0.00    +0.033 A 
ATOM     20  C   UNL     1       5.093   0.937  23.115  0.00  0.00    +0.111 A 
ATOM     21  C   UNL     1       5.064  -1.202  23.954  0.00  0.00    +0.111 A 
ENDBRANCH  16  17
ENDBRANCH  15   6
ENDBRANCH  10  15
TORSDOF 6
ENDMDL
MODEL 6
REMARK VINA RESULT:      -3.6      2.194      5.946
REMARK  Name = 75536787
REMARK  6 active torsions:
REMARK  status: ('A' for Active; 'I' for Inactive)
REMARK    1  A    between atoms: O_3  and  C_9
REMARK    2  A    between atoms: N_5  and  C_8
REMARK    3  A    between atoms: N_5  and  C_11
REMARK    4  A    between atoms: N_6  and  C_15
REMARK    5  A    between atoms: C_10  and  C_15
REMARK    6  A    between atoms: C_16  and  C_17
REMARK                            x       y       z     vdW  Elec       q    Type
REMARK                         _______ _______ _______ _____ _____    ______ ____
ROOT
ATOM      1  O   UNL     1      -2.809  -2.415  24.284  0.00  0.00    -0.371 OA
ATOM      8  C   UNL     1      -0.574  -1.924  24.919  0.00  0.00    +0.111 C 
ATOM      9  C   UNL     1      -1.498  -0.878  25.514  0.00  0.00    +0.164 C 
ATOM     10  C   UNL     1      -2.834  -1.610  25.474  0.00  0.00    +0.165 C 
ATOM     12  C   UNL     1      -1.450  -2.511  23.825  0.00  0.00    +0.181 C 
ENDROOT
BRANCH   9   3
ATOM      3  O   UNL     1      -1.136  -0.515  26.832  0.00  0.00    -0.388 OA
ATOM     23  H   UNL     1      -0.305  -0.013  26.794  0.00  0.00    +0.210 HD
ENDBRANCH   9   3
BRANCH   8   5
ATOM      5  N   UNL     1       0.675  -1.378  24.413  0.00  0.00    -0.302 NA
ATOM     22  H   UNL     1       1.264  -1.077  25.189  0.00  0.00    +0.123 HD
BRANCH   5  11
ATOM      2  O   UNL     1       2.135   0.864  23.124  0.00  0.00    -0.377 OA
ATOM     11  C   UNL     1       0.390  -0.326  23.430  0.00  0.00    +0.106 C 
ATOM     13  C   UNL     1       0.947   1.001  23.945  0.00  0.00    +0.180 C 
ATOM     14  C   UNL     1       1.538  -0.257  22.422  0.00  0.00    +0.180 C 
ENDBRANCH   5  11
ENDBRANCH   8   5
BRANCH  10  15
ATOM     15  C   UNL     1      -4.030  -0.676  25.439  0.00  0.00    +0.138 C 
BRANCH  15   6
ATOM      4  O   UNL     1      -3.259   0.993  23.233  0.00  0.00    -0.270 OA
ATOM      6  N   UNL     1      -3.619   0.698  25.507  0.00  0.00    -0.309 N 
ATOM     16  C   UNL     1      -3.262   1.433  24.380  0.00  0.00    +0.244 C 
ATOM     24  H   UNL     1      -3.535   1.103  26.432  0.00  0.00    +0.149 HD
BRANCH  16  17
ATOM      7  N   UNL     1      -2.037   5.475  25.074  0.00  0.00    -0.263 NA
ATOM     17  C   UNL     1      -2.836   2.835  24.619  0.00  0.00    +0.040 A 
ATOM     18  C   UNL     1      -1.537   3.110  25.032  0.00  0.00    +0.033 A 
ATOM     19  C   UNL     1      -3.737   3.879  24.435  0.00  0.00    +0.033 A 
ATOM     20  C   UNL     1      -1.190   4.435  25.243  0.00  0.00    +0.111 A 
ATOM     21  C   UNL     1      -3.291   5.169  24.673  0.00  0.00    +0.111 A 
ENDBRANCH  16  17
ENDBRANCH  15   6
ENDBRANCH  10  15
TORSDOF 6
ENDMDL
MODEL 7
REMARK VINA RESULT:      -3.4      2.533      6.032
REMARK  Name = 75536787
REMARK  6 active torsions:
REMARK  status: ('A' for Active; 'I' for Inactive)
REMARK    1  A    between atoms: O_3  and  C_9
REMARK    2  A    between atoms: N_5  and  C_8
REMARK    3  A    between atoms: N_5  and  C_11
REMARK    4  A    between atoms: N_6  and  C_15
REMARK    5  A    between atoms: C_10  and  C_15
REMARK    6  A    between atoms: C_16  and  C_17
REMARK                            x       y       z     vdW  Elec       q    Type
REMARK                         _______ _______ _______ _____ _____    ______ ____
ROOT
ATOM      1  O   UNL     1      -1.679  -2.599  23.866  0.00  0.00    -0.371 OA
ATOM      8  C   UNL     1       0.031  -1.040  24.401  0.00  0.00    +0.111 C 
ATOM      9  C   UNL     1      -1.160  -0.799  25.310  0.00  0.00    +0.164 C 
ATOM     10  C   UNL     1      -1.879  -2.139  25.212  0.00  0.00    +0.165 C 
ATOM     12  C   UNL     1      -0.605  -1.844  23.279  0.00  0.00    +0.181 C 
ENDROOT
BRANCH   9   3
ATOM      3  O   UNL     1      -0.780  -0.501  26.639  0.00  0.00    -0.388 OA
ATOM     23  H   UNL     1      -0.834   0.461  26.765  0.00  0.00    +0.210 HD
ENDBRANCH   9   3
BRANCH   8   5
ATOM      5  N   UNL     1       0.665   0.182  23.933  0.00  0.00    -0.302 NA
ATOM     22  H   UNL     1      -0.044   0.886  23.730  0.00  0.00    +0.123 HD
BRANCH   5  11
ATOM      2  O   UNL     1       3.575   0.286  23.346  0.00  0.00    -0.377 OA
ATOM     11  C   UNL     1       1.552  -0.124  22.804  0.00  0.00    +0.106 C 
ATOM     13  C   UNL     1       2.549   1.021  22.629  0.00  0.00    +0.180 C 
ATOM     14  C   UNL     1       2.758  -0.913  23.313  0.00  0.00    +0.180 C 
ENDBRANCH   5  11
ENDBRANCH   8   5
BRANCH  10  15
ATOM     15  C   UNL     1      -3.365  -2.045  25.509  0.00  0.00    +0.138 C 
BRANCH  15   6
ATOM      4  O   UNL     1      -3.946  -0.240  23.353  0.00  0.00    -0.270 OA
ATOM      6  N   UNL     1      -3.787  -0.679  25.627  0.00  0.00    -0.309 N 
ATOM     16  C   UNL     1      -4.048   0.126  24.522  0.00  0.00    +0.244 C 
ATOM     24  H   UNL     1      -3.827  -0.293  26.563  0.00  0.00    +0.149 HD
BRANCH  16  17
ATOM      7  N   UNL     1      -5.213   4.161  25.349  0.00  0.00    -0.263 NA
ATOM     17  C   UNL     1      -4.452   1.526  24.810  0.00  0.00    +0.040 A 
ATOM     18  C   UNL     1      -5.624   1.785  25.513  0.00  0.00    +0.033 A 
ATOM     19  C   UNL     1      -3.660   2.584  24.376  0.00  0.00    +0.033 A 
ATOM     20  C   UNL     1      -5.957   3.108  25.755  0.00  0.00    +0.111 A 
ATOM     21  C   UNL     1      -4.081   3.871  24.669  0.00  0.00    +0.111 A 
ENDBRANCH  16  17
ENDBRANCH  15   6
ENDBRANCH  10  15
TORSDOF 6
ENDMDL
MODEL 8
REMARK VINA RESULT:      -2.5      3.248      6.465
REMARK  Name = 75536787
REMARK  6 active torsions:
REMARK  status: ('A' for Active; 'I' for Inactive)
REMARK    1  A    between atoms: O_3  and  C_9
REMARK    2  A    between atoms: N_5  and  C_8
REMARK    3  A    between atoms: N_5  and  C_11
REMARK    4  A    between atoms: N_6  and  C_15
REMARK    5  A    between atoms: C_10  and  C_15
REMARK    6  A    between atoms: C_16  and  C_17
REMARK                            x       y       z     vdW  Elec       q    Type
REMARK                         _______ _______ _______ _____ _____    ______ ____
ROOT
ATOM      1  O   UNL     1       0.649   1.342  24.152  0.00  0.00    -0.371 OA
ATOM      8  C   UNL     1       2.321   0.838  22.543  0.00  0.00    +0.111 C 
ATOM      9  C   UNL     1       1.267  -0.254  22.521  0.00  0.00    +0.164 C 
ATOM     10  C   UNL     1       0.087   0.463  23.164  0.00  0.00    +0.165 C 
ATOM     12  C   UNL     1       2.056   1.484  23.893  0.00  0.00    +0.181 C 
ENDROOT
BRANCH   9   3
ATOM      3  O   UNL     1       0.965  -0.695  21.212  0.00  0.00    -0.388 OA
ATOM     23  H   UNL     1       1.411  -1.546  21.065  0.00  0.00    +0.210 HD
ENDBRANCH   9   3
BRANCH   8   5
ATOM      5  N   UNL     1       3.680   0.341  22.409  0.00  0.00    -0.302 NA
ATOM     22  H   UNL     1       3.690  -0.492  21.820  0.00  0.00    +0.123 HD
BRANCH   5  11
ATOM      2  O   UNL     1       6.124  -0.890  23.564  0.00  0.00    -0.377 OA
ATOM     11  C   UNL     1       4.265   0.144  23.741  0.00  0.00    +0.106 C 
ATOM     13  C   UNL     1       4.763  -1.297  23.858  0.00  0.00    +0.180 C 
ATOM     14  C   UNL     1       5.750   0.506  23.695  0.00  0.00    +0.180 C 
ENDBRANCH   5  11
ENDBRANCH   8   5
BRANCH  10  15
ATOM     15  C   UNL     1      -0.904  -0.481  23.819  0.00  0.00    +0.138 C 
BRANCH  15   6
ATOM      4  O   UNL     1      -2.563   1.496  22.560  0.00  0.00    -0.270 OA
ATOM      6  N   UNL     1      -1.988   0.239  24.424  0.00  0.00    -0.309 N 
ATOM     16  C   UNL     1      -2.742   1.184  23.735  0.00  0.00    +0.244 C 
ATOM     24  H   UNL     1      -2.147   0.078  25.413  0.00  0.00    +0.149 HD
BRANCH  16  17
ATOM      7  N   UNL     1      -5.830   3.139  25.963  0.00  0.00    -0.263 NA
ATOM     17  C   UNL     1      -3.813   1.861  24.509  0.00  0.00    +0.040 A 
ATOM     18  C   UNL     1      -4.908   1.137  24.969  0.00  0.00    +0.033 A 
ATOM     19  C   UNL     1      -3.726   3.224  24.776  0.00  0.00    +0.033 A 
ATOM     20  C   UNL     1      -5.880   1.817  25.685  0.00  0.00    +0.111 A 
ATOM     21  C   UNL     1      -4.751   3.809  25.500  0.00  0.00    +0.111 A 
ENDBRANCH  16  17
ENDBRANCH  15   6
ENDBRANCH  10  15
TORSDOF 6
ENDMDL
