MODEL 1
REMARK VINA RESULT:      -5.1      0.000      0.000
REMARK  Name = 75536614
REMARK  6 active torsions:
REMARK  status: ('A' for Active; 'I' for Inactive)
REMARK    1  A    between atoms: O_2  and  C_8
REMARK    2  A    between atoms: N_5  and  C_7
REMARK    3  A    between atoms: N_5  and  C_10
REMARK    4  A    between atoms: N_6  and  C_14
REMARK    5  A    between atoms: C_9  and  C_14
REMARK    6  A    between atoms: C_17  and  C_18
REMARK                            x       y       z     vdW  Elec       q    Type
REMARK                         _______ _______ _______ _____ _____    ______ ____
ROOT
ATOM      1  O   UNL     1       0.356   3.553  23.524  0.00  0.00    -0.371 OA
ATOM      7  C   UNL     1      -0.961   4.204  25.391  0.00  0.00    +0.111 C 
ATOM      8  C   UNL     1      -0.672   2.716  25.484  0.00  0.00    +0.164 C 
ATOM      9  C   UNL     1       0.549   2.599  24.581  0.00  0.00    +0.165 C 
ATOM     11  C   UNL     1      -0.675   4.475  23.923  0.00  0.00    +0.181 C 
ENDROOT
BRANCH   8   2
ATOM      2  O   UNL     1      -0.394   2.296  26.805  0.00  0.00    -0.388 OA
ATOM     25  H   UNL     1      -0.127   3.074  27.324  0.00  0.00    +0.210 HD
ENDBRANCH   8   2
BRANCH   7   5
ATOM      5  N   UNL     1      -2.317   4.559  25.778  0.00  0.00    -0.306 NA
ATOM     24  H   UNL     1      -2.616   5.395  25.275  0.00  0.00    +0.123 HD
BRANCH   5  10
ATOM      3  O   UNL     1      -5.868   2.596  24.702  0.00  0.00    -0.380 OA
ATOM     10  C   UNL     1      -3.245   3.463  25.511  0.00  0.00    +0.058 C 
ATOM     12  C   UNL     1      -3.697   3.468  24.046  0.00  0.00    +0.047 C 
ATOM     13  C   UNL     1      -4.462   3.558  26.435  0.00  0.00    +0.047 C 
ATOM     15  C   UNL     1      -4.764   2.403  23.818  0.00  0.00    +0.161 C 
ATOM     16  C   UNL     1      -5.486   2.488  26.074  0.00  0.00    +0.161 C 
ENDBRANCH   5  10
ENDBRANCH   7   5
BRANCH   9  14
ATOM     14  C   UNL     1       0.729   1.210  23.994  0.00  0.00    +0.138 C 
BRANCH  14   6
ATOM      4  O   UNL     1       0.193  -1.373  25.127  0.00  0.00    -0.270 OA
ATOM      6  N   UNL     1      -0.516   0.497  23.952  0.00  0.00    -0.309 N 
ATOM     17  C   UNL     1      -0.686  -0.756  24.531  0.00  0.00    +0.244 C 
ATOM     26  H   UNL     1      -1.263   0.921  23.413  0.00  0.00    +0.149 HD
BRANCH  17  18
ATOM     18  C   UNL     1      -2.029  -1.373  24.377  0.00  0.00    +0.037 A 
ATOM     19  C   UNL     1      -3.145  -0.567  24.154  0.00  0.00    +0.013 A 
ATOM     20  C   UNL     1      -2.173  -2.758  24.454  0.00  0.00    +0.013 A 
ATOM     21  C   UNL     1      -4.405  -1.146  24.008  0.00  0.00    +0.001 A 
ATOM     22  C   UNL     1      -3.433  -3.338  24.309  0.00  0.00    +0.001 A 
ATOM     23  C   UNL     1      -4.550  -2.531  24.085  0.00  0.00    +0.000 A 
ENDBRANCH  17  18
ENDBRANCH  14   6
ENDBRANCH   9  14
TORSDOF 6
ENDMDL
MODEL 2
REMARK VINA RESULT:      -4.9      1.901      4.783
REMARK  Name = 75536614
REMARK  6 active torsions:
REMARK  status: ('A' for Active; 'I' for Inactive)
REMARK    1  A    between atoms: O_2  and  C_8
REMARK    2  A    between atoms: N_5  and  C_7
REMARK    3  A    between atoms: N_5  and  C_10
REMARK    4  A    between atoms: N_6  and  C_14
REMARK    5  A    between atoms: C_9  and  C_14
REMARK    6  A    between atoms: C_17  and  C_18
REMARK                            x       y       z     vdW  Elec       q    Type
REMARK                         _______ _______ _______ _____ _____    ______ ____
ROOT
ATOM      1  O   UNL     1      -1.448  -2.095  23.562  0.00  0.00    -0.371 OA
ATOM      7  C   UNL     1       0.083  -0.666  24.684  0.00  0.00    +0.111 C 
ATOM      8  C   UNL     1      -1.194  -0.763  25.500  0.00  0.00    +0.164 C 
ATOM      9  C   UNL     1      -1.792  -2.055  24.956  0.00  0.00    +0.165 C 
ATOM     11  C   UNL     1      -0.394  -1.145  23.323  0.00  0.00    +0.181 C 
ENDROOT
BRANCH   8   2
ATOM      2  O   UNL     1      -0.948  -0.840  26.890  0.00  0.00    -0.388 OA
ATOM     25  H   UNL     1      -1.309  -0.042  27.310  0.00  0.00    +0.210 HD
ENDBRANCH   8   2
BRANCH   7   5
ATOM      5  N   UNL     1       0.650   0.671  24.647  0.00  0.00    -0.306 NA
ATOM     24  H   UNL     1       1.172   0.806  23.780  0.00  0.00    +0.123 HD
BRANCH   5  10
ATOM      3  O   UNL     1      -1.123   4.419  25.305  0.00  0.00    -0.380 OA
ATOM     10  C   UNL     1      -0.392   1.688  24.760  0.00  0.00    +0.058 C 
ATOM     12  C   UNL     1      -0.175   2.815  23.744  0.00  0.00    +0.047 C 
ATOM     13  C   UNL     1      -0.425   2.262  26.179  0.00  0.00    +0.047 C 
ATOM     15  C   UNL     1      -1.191   3.931  23.965  0.00  0.00    +0.161 C 
ATOM     16  C   UNL     1      -1.428   3.408  26.265  0.00  0.00    +0.161 C 
ENDBRANCH   5  10
ENDBRANCH   7   5
BRANCH   9  14
ATOM     14  C   UNL     1      -3.299  -2.131  25.116  0.00  0.00    +0.138 C 
BRANCH  14   6
ATOM      4  O   UNL     1      -3.811  -0.084  23.168  0.00  0.00    -0.270 OA
ATOM      6  N   UNL     1      -3.864  -0.835  25.362  0.00  0.00    -0.309 N 
ATOM     17  C   UNL     1      -4.077   0.098  24.353  0.00  0.00    +0.244 C 
ATOM     26  H   UNL     1      -4.041  -0.594  26.332  0.00  0.00    +0.149 HD
BRANCH  17  18
ATOM     18  C   UNL     1      -4.645   1.405  24.777  0.00  0.00    +0.037 A 
ATOM     19  C   UNL     1      -5.653   1.448  25.740  0.00  0.00    +0.013 A 
ATOM     20  C   UNL     1      -4.168   2.588  24.213  0.00  0.00    +0.013 A 
ATOM     21  C   UNL     1      -6.184   2.674  26.139  0.00  0.00    +0.001 A 
ATOM     22  C   UNL     1      -4.700   3.814  24.612  0.00  0.00    +0.001 A 
ATOM     23  C   UNL     1      -5.708   3.857  25.575  0.00  0.00    +0.000 A 
ENDBRANCH  17  18
ENDBRANCH  14   6
ENDBRANCH   9  14
TORSDOF 6
ENDMDL
MODEL 3
REMARK VINA RESULT:      -4.7      1.781      4.320
REMARK  Name = 75536614
REMARK  6 active torsions:
REMARK  status: ('A' for Active; 'I' for Inactive)
REMARK    1  A    between atoms: O_2  and  C_8
REMARK    2  A    between atoms: N_5  and  C_7
REMARK    3  A    between atoms: N_5  and  C_10
REMARK    4  A    between atoms: N_6  and  C_14
REMARK    5  A    between atoms: C_9  and  C_14
REMARK    6  A    between atoms: C_17  and  C_18
REMARK                            x       y       z     vdW  Elec       q    Type
REMARK                         _______ _______ _______ _____ _____    ______ ____
ROOT
ATOM      1  O   UNL     1      -3.574   3.995  25.989  0.00  0.00    -0.371 OA
ATOM      7  C   UNL     1      -1.420   3.809  25.004  0.00  0.00    +0.111 C 
ATOM      8  C   UNL     1      -2.434   3.110  24.115  0.00  0.00    +0.164 C 
ATOM      9  C   UNL     1      -3.730   3.763  24.580  0.00  0.00    +0.165 C 
ATOM     11  C   UNL     1      -2.178   3.886  26.320  0.00  0.00    +0.181 C 
ENDROOT
BRANCH   8   2
ATOM      2  O   UNL     1      -2.195   3.332  22.739  0.00  0.00    -0.388 OA
ATOM     25  H   UNL     1      -2.448   2.530  22.251  0.00  0.00    +0.210 HD
ENDBRANCH   8   2
BRANCH   7   5
ATOM      5  N   UNL     1      -0.158   3.098  25.120  0.00  0.00    -0.306 NA
ATOM     24  H   UNL     1       0.051   2.913  26.101  0.00  0.00    +0.123 HD
BRANCH   5  10
ATOM      3  O   UNL     1       0.804  -0.836  24.011  0.00  0.00    -0.380 OA
ATOM     10  C   UNL     1      -0.192   1.841  24.376  0.00  0.00    +0.058 C 
ATOM     12  C   UNL     1      -0.614   0.677  25.279  0.00  0.00    +0.047 C 
ATOM     13  C   UNL     1       1.177   1.552  23.754  0.00  0.00    +0.047 C 
ATOM     15  C   UNL     1      -0.515  -0.643  24.523  0.00  0.00    +0.161 C 
ATOM     16  C   UNL     1       1.177   0.183  23.083  0.00  0.00    +0.161 C 
ENDBRANCH   5  10
ENDBRANCH   7   5
BRANCH   9  14
ATOM     14  C   UNL     1      -4.955   2.902  24.333  0.00  0.00    +0.138 C 
BRANCH  14   6
ATOM      4  O   UNL     1      -5.082   0.906  26.394  0.00  0.00    -0.270 OA
ATOM      6  N   UNL     1      -4.603   1.516  24.208  0.00  0.00    -0.309 N 
ATOM     17  C   UNL     1      -4.696   0.616  25.264  0.00  0.00    +0.244 C 
ATOM     26  H   UNL     1      -4.209   1.227  23.319  0.00  0.00    +0.149 HD
BRANCH  17  18
ATOM     18  C   UNL     1      -4.267  -0.778  24.978  0.00  0.00    +0.037 A 
ATOM     19  C   UNL     1      -4.552  -1.355  23.741  0.00  0.00    +0.013 A 
ATOM     20  C   UNL     1      -3.579  -1.508  25.947  0.00  0.00    +0.013 A 
ATOM     21  C   UNL     1      -4.147  -2.662  23.473  0.00  0.00    +0.001 A 
ATOM     22  C   UNL     1      -3.175  -2.815  25.679  0.00  0.00    +0.001 A 
ATOM     23  C   UNL     1      -3.459  -3.393  24.441  0.00  0.00    +0.000 A 
ENDBRANCH  17  18
ENDBRANCH  14   6
ENDBRANCH   9  14
TORSDOF 6
ENDMDL
MODEL 4
REMARK VINA RESULT:      -4.3      1.707      4.387
REMARK  Name = 75536614
REMARK  6 active torsions:
REMARK  status: ('A' for Active; 'I' for Inactive)
REMARK    1  A    between atoms: O_2  and  C_8
REMARK    2  A    between atoms: N_5  and  C_7
REMARK    3  A    between atoms: N_5  and  C_10
REMARK    4  A    between atoms: N_6  and  C_14
REMARK    5  A    between atoms: C_9  and  C_14
REMARK    6  A    between atoms: C_17  and  C_18
REMARK                            x       y       z     vdW  Elec       q    Type
REMARK                         _______ _______ _______ _____ _____    ______ ____
ROOT
ATOM      1  O   UNL     1      -4.981   3.310  26.728  0.00  0.00    -0.371 OA
ATOM      7  C   UNL     1      -3.290   4.620  25.694  0.00  0.00    +0.111 C 
ATOM      8  C   UNL     1      -4.001   3.801  24.631  0.00  0.00    +0.164 C 
ATOM      9  C   UNL     1      -5.311   3.477  25.339  0.00  0.00    +0.165 C 
ATOM     11  C   UNL     1      -3.675   3.870  26.959  0.00  0.00    +0.181 C 
ENDROOT
BRANCH   8   2
ATOM      2  O   UNL     1      -4.213   4.527  23.436  0.00  0.00    -0.388 OA
ATOM     25  H   UNL     1      -4.617   3.931  22.783  0.00  0.00    +0.210 HD
ENDBRANCH   8   2
BRANCH   7   5
ATOM      5  N   UNL     1      -1.851   4.701  25.501  0.00  0.00    -0.306 NA
ATOM     24  H   UNL     1      -1.409   5.102  26.328  0.00  0.00    +0.123 HD
BRANCH   5  10
ATOM      3  O   UNL     1       1.042   1.754  24.750  0.00  0.00    -0.380 OA
ATOM     10  C   UNL     1      -1.282   3.384  25.226  0.00  0.00    +0.058 C 
ATOM     12  C   UNL     1      -0.343   2.943  26.354  0.00  0.00    +0.047 C 
ATOM     13  C   UNL     1      -0.530   3.396  23.892  0.00  0.00    +0.047 C 
ATOM     15  C   UNL     1       0.344   1.631  25.989  0.00  0.00    +0.161 C 
ATOM     16  C   UNL     1       0.167   2.060  23.664  0.00  0.00    +0.161 C 
ENDBRANCH   5  10
ENDBRANCH   7   5
BRANCH   9  14
ATOM     14  C   UNL     1      -5.980   2.220  24.815  0.00  0.00    +0.138 C 
BRANCH  14   6
ATOM      4  O   UNL     1      -3.756   1.491  23.152  0.00  0.00    -0.270 OA
ATOM      6  N   UNL     1      -5.131   1.073  24.972  0.00  0.00    -0.309 N 
ATOM     17  C   UNL     1      -4.071   0.798  24.115  0.00  0.00    +0.244 C 
ATOM     26  H   UNL     1      -5.382   0.421  25.708  0.00  0.00    +0.149 HD
BRANCH  17  18
ATOM     18  C   UNL     1      -3.304  -0.443  24.398  0.00  0.00    +0.037 A 
ATOM     19  C   UNL     1      -1.956  -0.366  24.747  0.00  0.00    +0.013 A 
ATOM     20  C   UNL     1      -3.933  -1.685  24.319  0.00  0.00    +0.013 A 
ATOM     21  C   UNL     1      -1.237  -1.530  25.015  0.00  0.00    +0.001 A 
ATOM     22  C   UNL     1      -3.215  -2.850  24.586  0.00  0.00    +0.001 A 
ATOM     23  C   UNL     1      -1.866  -2.773  24.934  0.00  0.00    +0.000 A 
ENDBRANCH  17  18
ENDBRANCH  14   6
ENDBRANCH   9  14
TORSDOF 6
ENDMDL
MODEL 5
REMARK VINA RESULT:      -3.8      2.087      4.661
REMARK  Name = 75536614
REMARK  6 active torsions:
REMARK  status: ('A' for Active; 'I' for Inactive)
REMARK    1  A    between atoms: O_2  and  C_8
REMARK    2  A    between atoms: N_5  and  C_7
REMARK    3  A    between atoms: N_5  and  C_10
REMARK    4  A    between atoms: N_6  and  C_14
REMARK    5  A    between atoms: C_9  and  C_14
REMARK    6  A    between atoms: C_17  and  C_18
REMARK                            x       y       z     vdW  Elec       q    Type
REMARK                         _______ _______ _______ _____ _____    ______ ____
ROOT
ATOM      1  O   UNL     1      -2.689   3.502  23.323  0.00  0.00    -0.371 OA
ATOM      7  C   UNL     1      -4.269   2.497  24.786  0.00  0.00    +0.111 C 
ATOM      8  C   UNL     1      -3.097   3.013  25.602  0.00  0.00    +0.164 C 
ATOM      9  C   UNL     1      -2.502   4.038  24.644  0.00  0.00    +0.165 C 
ATOM     11  C   UNL     1      -3.666   2.447  23.392  0.00  0.00    +0.181 C 
ENDROOT
BRANCH   8   2
ATOM      2  O   UNL     1      -3.501   3.604  26.822  0.00  0.00    -0.388 OA
ATOM     25  H   UNL     1      -3.376   2.954  27.533  0.00  0.00    +0.210 HD
ENDBRANCH   8   2
BRANCH   7   5
ATOM      5  N   UNL     1      -4.767   1.207  25.233  0.00  0.00    -0.306 NA
ATOM     24  H   UNL     1      -5.744   1.096  24.962  0.00  0.00    +0.123 HD
BRANCH   5  10
ATOM      3  O   UNL     1      -3.128  -2.635  24.810  0.00  0.00    -0.380 OA
ATOM     10  C   UNL     1      -3.972   0.115  24.678  0.00  0.00    +0.058 C 
ATOM     12  C   UNL     1      -4.867  -1.042  24.221  0.00  0.00    +0.047 C 
ATOM     13  C   UNL     1      -2.957  -0.384  25.711  0.00  0.00    +0.047 C 
ATOM     15  C   UNL     1      -4.016  -2.224  23.770  0.00  0.00    +0.161 C 
ATOM     16  C   UNL     1      -2.212  -1.603  25.177  0.00  0.00    +0.161 C 
ENDBRANCH   5  10
ENDBRANCH   7   5
BRANCH   9  14
ATOM     14  C   UNL     1      -1.027   4.299  24.887  0.00  0.00    +0.138 C 
BRANCH  14   6
ATOM      4  O   UNL     1      -0.114   1.716  25.745  0.00  0.00    -0.270 OA
ATOM      6  N   UNL     1      -0.206   3.389  24.141  0.00  0.00    -0.309 N 
ATOM     17  C   UNL     1       0.190   2.151  24.638  0.00  0.00    +0.244 C 
ATOM     26  H   UNL     1       0.139   3.718  23.246  0.00  0.00    +0.149 HD
BRANCH  17  18
ATOM     18  C   UNL     1       1.062   1.337  23.751  0.00  0.00    +0.037 A 
ATOM     19  C   UNL     1       0.545   0.213  23.106  0.00  0.00    +0.013 A 
ATOM     20  C   UNL     1       2.395   1.698  23.562  0.00  0.00    +0.013 A 
ATOM     21  C   UNL     1       1.362  -0.549  22.273  0.00  0.00    +0.001 A 
ATOM     22  C   UNL     1       3.213   0.935  22.729  0.00  0.00    +0.001 A 
ATOM     23  C   UNL     1       2.696  -0.189  22.084  0.00  0.00    +0.000 A 
ENDBRANCH  17  18
ENDBRANCH  14   6
ENDBRANCH   9  14
TORSDOF 6
ENDMDL
MODEL 6
REMARK VINA RESULT:      -3.8      2.159      5.565
REMARK  Name = 75536614
REMARK  6 active torsions:
REMARK  status: ('A' for Active; 'I' for Inactive)
REMARK    1  A    between atoms: O_2  and  C_8
REMARK    2  A    between atoms: N_5  and  C_7
REMARK    3  A    between atoms: N_5  and  C_10
REMARK    4  A    between atoms: N_6  and  C_14
REMARK    5  A    between atoms: C_9  and  C_14
REMARK    6  A    between atoms: C_17  and  C_18
REMARK                            x       y       z     vdW  Elec       q    Type
REMARK                         _______ _______ _______ _____ _____    ______ ____
ROOT
ATOM      1  O   UNL     1      -2.541  -3.215  23.538  0.00  0.00    -0.371 OA
ATOM      7  C   UNL     1      -1.308  -2.317  25.360  0.00  0.00    +0.111 C 
ATOM      8  C   UNL     1      -2.693  -1.694  25.344  0.00  0.00    +0.164 C 
ATOM      9  C   UNL     1      -3.464  -2.717  24.521  0.00  0.00    +0.165 C 
ATOM     11  C   UNL     1      -1.207  -2.860  23.944  0.00  0.00    +0.181 C 
ENDROOT
BRANCH   8   2
ATOM      2  O   UNL     1      -3.236  -1.542  26.641  0.00  0.00    -0.388 OA
ATOM     25  H   UNL     1      -3.235  -0.596  26.865  0.00  0.00    +0.210 HD
ENDBRANCH   8   2
BRANCH   7   5
ATOM      5  N   UNL     1      -0.249  -1.375  25.682  0.00  0.00    -0.306 NA
ATOM     24  H   UNL     1       0.638  -1.699  25.295  0.00  0.00    +0.123 HD
BRANCH   5  10
ATOM      3  O   UNL     1       0.269   2.681  24.731  0.00  0.00    -0.380 OA
ATOM     10  C   UNL     1      -0.555  -0.043  25.167  0.00  0.00    +0.058 C 
ATOM     12  C   UNL     1       0.415   0.353  24.049  0.00  0.00    +0.047 C 
ATOM     13  C   UNL     1      -0.502   0.990  26.297  0.00  0.00    +0.047 C 
ATOM     15  C   UNL     1       0.166   1.794  23.617  0.00  0.00    +0.161 C 
ATOM     16  C   UNL     1      -0.700   2.395  25.740  0.00  0.00    +0.161 C 
ENDBRANCH   5  10
ENDBRANCH   7   5
BRANCH   9  14
ATOM     14  C   UNL     1      -4.684  -2.133  23.830  0.00  0.00    +0.138 C 
BRANCH  14   6
ATOM      4  O   UNL     1      -3.190   0.196  23.064  0.00  0.00    -0.270 OA
ATOM      6  N   UNL     1      -4.925  -0.783  24.252  0.00  0.00    -0.309 N 
ATOM     17  C   UNL     1      -4.147   0.289  23.828  0.00  0.00    +0.244 C 
ATOM     26  H   UNL     1      -5.658  -0.647  24.940  0.00  0.00    +0.149 HD
BRANCH  17  18
ATOM     18  C   UNL     1      -4.511   1.621  24.378  0.00  0.00    +0.037 A 
ATOM     19  C   UNL     1      -5.613   1.750  25.223  0.00  0.00    +0.013 A 
ATOM     20  C   UNL     1      -3.749   2.742  24.050  0.00  0.00    +0.013 A 
ATOM     21  C   UNL     1      -5.952   3.000  25.739  0.00  0.00    +0.001 A 
ATOM     22  C   UNL     1      -4.089   3.993  24.566  0.00  0.00    +0.001 A 
ATOM     23  C   UNL     1      -5.191   4.121  25.411  0.00  0.00    +0.000 A 
ENDBRANCH  17  18
ENDBRANCH  14   6
ENDBRANCH   9  14
TORSDOF 6
ENDMDL
MODEL 7
REMARK VINA RESULT:      -3.2      2.676      4.859
REMARK  Name = 75536614
REMARK  6 active torsions:
REMARK  status: ('A' for Active; 'I' for Inactive)
REMARK    1  A    between atoms: O_2  and  C_8
REMARK    2  A    between atoms: N_5  and  C_7
REMARK    3  A    between atoms: N_5  and  C_10
REMARK    4  A    between atoms: N_6  and  C_14
REMARK    5  A    between atoms: C_9  and  C_14
REMARK    6  A    between atoms: C_17  and  C_18
REMARK                            x       y       z     vdW  Elec       q    Type
REMARK                         _______ _______ _______ _____ _____    ______ ____
ROOT
ATOM      1  O   UNL     1      -0.534   0.377  25.434  0.00  0.00    -0.371 OA
ATOM      7  C   UNL     1      -2.573   1.307  24.645  0.00  0.00    +0.111 C 
ATOM      8  C   UNL     1      -2.368  -0.054  24.004  0.00  0.00    +0.164 C 
ATOM      9  C   UNL     1      -1.380  -0.689  24.975  0.00  0.00    +0.165 C 
ATOM     11  C   UNL     1      -1.165   1.631  25.118  0.00  0.00    +0.181 C 
ENDROOT
BRANCH   8   2
ATOM      2  O   UNL     1      -3.568  -0.798  23.910  0.00  0.00    -0.388 OA
ATOM     25  H   UNL     1      -3.846  -0.814  22.980  0.00  0.00    +0.210 HD
ENDBRANCH   8   2
BRANCH   7   5
ATOM      5  N   UNL     1      -3.108   2.305  23.735  0.00  0.00    -0.306 NA
ATOM     24  H   UNL     1      -3.166   1.924  22.790  0.00  0.00    +0.123 HD
BRANCH   5  10
ATOM      3  O   UNL     1      -6.307   3.194  26.305  0.00  0.00    -0.380 OA
ATOM     10  C   UNL     1      -4.429   2.757  24.167  0.00  0.00    +0.058 C 
ATOM     12  C   UNL     1      -4.317   3.945  25.128  0.00  0.00    +0.047 C 
ATOM     13  C   UNL     1      -5.191   1.610  24.837  0.00  0.00    +0.047 C 
ATOM     15  C   UNL     1      -5.692   4.317  25.673  0.00  0.00    +0.161 C 
ATOM     16  C   UNL     1      -6.517   2.112  25.397  0.00  0.00    +0.161 C 
ENDBRANCH   5  10
ENDBRANCH   7   5
BRANCH   9  14
ATOM     14  C   UNL     1      -0.535  -1.779  24.341  0.00  0.00    +0.138 C 
BRANCH  14   6
ATOM      4  O   UNL     1       0.706  -0.276  22.233  0.00  0.00    -0.270 OA
ATOM      6  N   UNL     1       0.844  -1.389  24.263  0.00  0.00    -0.309 N 
ATOM     17  C   UNL     1       1.361  -0.658  23.198  0.00  0.00    +0.244 C 
ATOM     26  H   UNL     1       1.455  -1.734  24.995  0.00  0.00    +0.149 HD
BRANCH  17  18
ATOM     18  C   UNL     1       2.815  -0.357  23.254  0.00  0.00    +0.037 A 
ATOM     19  C   UNL     1       3.293   0.868  22.786  0.00  0.00    +0.013 A 
ATOM     20  C   UNL     1       3.702  -1.297  23.777  0.00  0.00    +0.013 A 
ATOM     21  C   UNL     1       4.657   1.150  22.841  0.00  0.00    +0.001 A 
ATOM     22  C   UNL     1       5.067  -1.015  23.831  0.00  0.00    +0.001 A 
ATOM     23  C   UNL     1       5.545   0.209  23.363  0.00  0.00    +0.000 A 
ENDBRANCH  17  18
ENDBRANCH  14   6
ENDBRANCH   9  14
TORSDOF 6
ENDMDL
MODEL 8
REMARK VINA RESULT:      -3.0      1.812      5.116
REMARK  Name = 75536614
REMARK  6 active torsions:
REMARK  status: ('A' for Active; 'I' for Inactive)
REMARK    1  A    between atoms: O_2  and  C_8
REMARK    2  A    between atoms: N_5  and  C_7
REMARK    3  A    between atoms: N_5  and  C_10
REMARK    4  A    between atoms: N_6  and  C_14
REMARK    5  A    between atoms: C_9  and  C_14
REMARK    6  A    between atoms: C_17  and  C_18
REMARK                            x       y       z     vdW  Elec       q    Type
REMARK                         _______ _______ _______ _____ _____    ______ ____
ROOT
ATOM      1  O   UNL     1      -0.309   1.363  25.883  0.00  0.00    -0.371 OA
ATOM      7  C   UNL     1       0.125  -0.527  24.510  0.00  0.00    +0.111 C 
ATOM      8  C   UNL     1       0.017   0.707  23.633  0.00  0.00    +0.164 C 
ATOM      9  C   UNL     1       0.277   1.812  24.650  0.00  0.00    +0.165 C 
ATOM     11  C   UNL     1      -0.555  -0.052  25.783  0.00  0.00    +0.181 C 
ENDROOT
BRANCH   8   2
ATOM      2  O   UNL     1       0.970   0.718  22.588  0.00  0.00    -0.388 OA
ATOM     25  H   UNL     1       0.556   1.108  21.800  0.00  0.00    +0.210 HD
ENDBRANCH   8   2
BRANCH   7   5
ATOM      5  N   UNL     1      -0.506  -1.705  23.938  0.00  0.00    -0.306 NA
ATOM     24  H   UNL     1       0.032  -2.539  24.171  0.00  0.00    +0.123 HD
BRANCH   5  10
ATOM      3  O   UNL     1      -4.630  -2.487  23.859  0.00  0.00    -0.380 OA
ATOM     10  C   UNL     1      -1.878  -1.852  24.418  0.00  0.00    +0.058 C 
ATOM     12  C   UNL     1      -2.371  -3.293  24.246  0.00  0.00    +0.047 C 
ATOM     13  C   UNL     1      -2.809  -0.889  23.675  0.00  0.00    +0.047 C 
ATOM     15  C   UNL     1      -3.844  -3.398  24.626  0.00  0.00    +0.161 C 
ATOM     16  C   UNL     1      -4.257  -1.127  24.087  0.00  0.00    +0.161 C 
ENDBRANCH   5  10
ENDBRANCH   7   5
BRANCH   9  14
ATOM     14  C   UNL     1      -0.326   3.147  24.251  0.00  0.00    +0.138 C 
BRANCH  14   6
ATOM      4  O   UNL     1      -2.691   2.277  22.875  0.00  0.00    -0.270 OA
ATOM      6  N   UNL     1      -1.679   3.266  24.713  0.00  0.00    -0.309 N 
ATOM     17  C   UNL     1      -2.769   2.814  23.976  0.00  0.00    +0.244 C 
ATOM     26  H   UNL     1      -1.818   3.765  25.585  0.00  0.00    +0.149 HD
BRANCH  17  18
ATOM     18  C   UNL     1      -4.108   3.036  24.583  0.00  0.00    +0.037 A 
ATOM     19  C   UNL     1      -5.012   1.979  24.684  0.00  0.00    +0.013 A 
ATOM     20  C   UNL     1      -4.459   4.301  25.053  0.00  0.00    +0.013 A 
ATOM     21  C   UNL     1      -6.267   2.187  25.254  0.00  0.00    +0.001 A 
ATOM     22  C   UNL     1      -5.715   4.510  25.624  0.00  0.00    +0.001 A 
ATOM     23  C   UNL     1      -6.619   3.452  25.724  0.00  0.00    +0.000 A 
ENDBRANCH  17  18
ENDBRANCH  14   6
ENDBRANCH   9  14
TORSDOF 6
ENDMDL
MODEL 9
REMARK VINA RESULT:      -3.0      2.510      6.452
REMARK  Name = 75536614
REMARK  6 active torsions:
REMARK  status: ('A' for Active; 'I' for Inactive)
REMARK    1  A    between atoms: O_2  and  C_8
REMARK    2  A    between atoms: N_5  and  C_7
REMARK    3  A    between atoms: N_5  and  C_10
REMARK    4  A    between atoms: N_6  and  C_14
REMARK    5  A    between atoms: C_9  and  C_14
REMARK    6  A    between atoms: C_17  and  C_18
REMARK                            x       y       z     vdW  Elec       q    Type
REMARK                         _______ _______ _______ _____ _____    ______ ____
ROOT
ATOM      1  O   UNL     1      -1.589  -2.704  23.884  0.00  0.00    -0.371 OA
ATOM      7  C   UNL     1       0.089  -1.043  24.145  0.00  0.00    +0.111 C 
ATOM      8  C   UNL     1      -1.058  -0.741  25.092  0.00  0.00    +0.164 C 
ATOM      9  C   UNL     1      -1.730  -2.105  25.183  0.00  0.00    +0.165 C 
ATOM     11  C   UNL     1      -0.578  -1.985  23.156  0.00  0.00    +0.181 C 
ENDROOT
BRANCH   8   2
ATOM      2  O   UNL     1      -0.616  -0.285  26.355  0.00  0.00    -0.388 OA
ATOM     25  H   UNL     1       0.320  -0.526  26.457  0.00  0.00    +0.210 HD
ENDBRANCH   8   2
BRANCH   7   5
ATOM      5  N   UNL     1       0.649   0.139  23.510  0.00  0.00    -0.306 NA
ATOM     24  H   UNL     1       0.666   0.916  24.171  0.00  0.00    +0.123 HD
BRANCH   5  10
ATOM      3  O   UNL     1       4.844  -0.014  23.446  0.00  0.00    -0.380 OA
ATOM     10  C   UNL     1       1.999  -0.120  23.016  0.00  0.00    +0.058 C 
ATOM     12  C   UNL     1       2.733  -1.122  23.914  0.00  0.00    +0.047 C 
ATOM     13  C   UNL     1       2.795   1.186  22.931  0.00  0.00    +0.047 C 
ATOM     15  C   UNL     1       4.181  -1.278  23.462  0.00  0.00    +0.161 C 
ATOM     16  C   UNL     1       4.239   0.903  22.533  0.00  0.00    +0.161 C 
ENDBRANCH   5  10
ENDBRANCH   7   5
BRANCH   9  14
ATOM     14  C   UNL     1      -3.200  -2.025  25.554  0.00  0.00    +0.138 C 
BRANCH  14   6
ATOM      4  O   UNL     1      -4.031  -0.339  23.384  0.00  0.00    -0.270 OA
ATOM      6  N   UNL     1      -3.640  -0.662  25.647  0.00  0.00    -0.309 N 
ATOM     17  C   UNL     1      -4.027   0.082  24.537  0.00  0.00    +0.244 C 
ATOM     26  H   UNL     1      -3.593  -0.232  26.564  0.00  0.00    +0.149 HD
BRANCH  17  18
ATOM     18  C   UNL     1      -4.432   1.488  24.799  0.00  0.00    +0.037 A 
ATOM     19  C   UNL     1      -5.608   1.756  25.500  0.00  0.00    +0.013 A 
ATOM     20  C   UNL     1      -3.635   2.539  24.346  0.00  0.00    +0.013 A 
ATOM     21  C   UNL     1      -5.987   3.075  25.746  0.00  0.00    +0.001 A 
ATOM     22  C   UNL     1      -4.014   3.858  24.592  0.00  0.00    +0.001 A 
ATOM     23  C   UNL     1      -5.190   4.126  25.293  0.00  0.00    +0.000 A 
ENDBRANCH  17  18
ENDBRANCH  14   6
ENDBRANCH   9  14
TORSDOF 6
ENDMDL
MODEL 10
REMARK VINA RESULT:      -2.9      2.939      5.440
REMARK  Name = 75536614
REMARK  6 active torsions:
REMARK  status: ('A' for Active; 'I' for Inactive)
REMARK    1  A    between atoms: O_2  and  C_8
REMARK    2  A    between atoms: N_5  and  C_7
REMARK    3  A    between atoms: N_5  and  C_10
REMARK    4  A    between atoms: N_6  and  C_14
REMARK    5  A    between atoms: C_9  and  C_14
REMARK    6  A    between atoms: C_17  and  C_18
REMARK                            x       y       z     vdW  Elec       q    Type
REMARK                         _______ _______ _______ _____ _____    ______ ____
ROOT
ATOM      1  O   UNL     1      -1.181   3.260  25.139  0.00  0.00    -0.371 OA
ATOM      7  C   UNL     1      -2.692   1.426  25.136  0.00  0.00    +0.111 C 
ATOM      8  C   UNL     1      -1.600   1.171  24.111  0.00  0.00    +0.164 C 
ATOM      9  C   UNL     1      -0.506   2.106  24.610  0.00  0.00    +0.165 C 
ATOM     11  C   UNL     1      -2.566   2.927  25.340  0.00  0.00    +0.181 C 
ENDROOT
BRANCH   8   2
ATOM      2  O   UNL     1      -1.174  -0.178  24.094  0.00  0.00    -0.388 OA
ATOM     25  H   UNL     1      -1.298  -0.527  23.196  0.00  0.00    +0.210 HD
ENDBRANCH   8   2
BRANCH   7   5
ATOM      5  N   UNL     1      -4.015   1.025  24.690  0.00  0.00    -0.306 NA
ATOM     24  H   UNL     1      -4.136   1.251  23.702  0.00  0.00    +0.123 HD
BRANCH   5  10
ATOM      3  O   UNL     1      -3.240  -3.101  24.696  0.00  0.00    -0.380 OA
ATOM     10  C   UNL     1      -4.230  -0.405  24.899  0.00  0.00    +0.058 C 
ATOM     12  C   UNL     1      -3.201  -0.979  25.879  0.00  0.00    +0.047 C 
ATOM     13  C   UNL     1      -4.157  -1.155  23.565  0.00  0.00    +0.047 C 
ATOM     15  C   UNL     1      -3.354  -2.493  25.983  0.00  0.00    +0.161 C 
ATOM     16  C   UNL     1      -4.257  -2.659  23.797  0.00  0.00    +0.161 C 
ENDBRANCH   5  10
ENDBRANCH   7   5
BRANCH   9  14
ATOM     14  C   UNL     1       0.460   2.532  23.519  0.00  0.00    +0.138 C 
BRANCH  14   6
ATOM      4  O   UNL     1       1.222   0.042  22.311  0.00  0.00    -0.270 OA
ATOM      6  N   UNL     1       1.724   1.866  23.653  0.00  0.00    -0.309 N 
ATOM     17  C   UNL     1       2.007   0.655  23.028  0.00  0.00    +0.244 C 
ATOM     26  H   UNL     1       2.393   2.285  24.289  0.00  0.00    +0.149 HD
BRANCH  17  18
ATOM     18  C   UNL     1       3.353   0.082  23.289  0.00  0.00    +0.037 A 
ATOM     19  C   UNL     1       4.488   0.882  23.164  0.00  0.00    +0.013 A 
ATOM     20  C   UNL     1       3.481  -1.256  23.661  0.00  0.00    +0.013 A 
ATOM     21  C   UNL     1       5.751   0.344  23.410  0.00  0.00    +0.001 A 
ATOM     22  C   UNL     1       4.743  -1.794  23.907  0.00  0.00    +0.001 A 
ATOM     23  C   UNL     1       5.879  -0.994  23.782  0.00  0.00    +0.000 A 
ENDBRANCH  17  18
ENDBRANCH  14   6
ENDBRANCH   9  14
TORSDOF 6
ENDMDL
