MODEL 1
REMARK VINA RESULT:      -4.4      0.000      0.000
REMARK  Name = 71694075
REMARK  8 active torsions:
REMARK  status: ('A' for Active; 'I' for Inactive)
REMARK    1  A    between atoms: N_4  and  C_6
REMARK    2  A    between atoms: N_4  and  C_10
REMARK    3  A    between atoms: C_6  and  C_9
REMARK    4  A    between atoms: C_9  and  C_12
REMARK    5  A    between atoms: C_10  and  C_11
REMARK    6  A    between atoms: C_11  and  C_13
REMARK    7  A    between atoms: C_11  and  C_14
REMARK    8  A    between atoms: C_16  and  C_17
REMARK                            x       y       z     vdW  Elec       q    Type
REMARK                         _______ _______ _______ _____ _____    ______ ____
ROOT
ATOM      3  O   UNL     1      17.364  -4.517  27.167  0.00  0.00    -0.354 OA
ATOM      5  N   UNL     1      17.405  -5.650  27.968  0.00  0.00    -0.083 NA
ATOM     12  C   UNL     1      17.208  -6.673  27.132  0.00  0.00    +0.086 A 
ATOM     15  C   UNL     1      17.039  -6.250  25.803  0.00  0.00    +0.076 A 
ATOM     16  C   UNL     1      17.145  -4.886  25.879  0.00  0.00    +0.167 A 
ENDROOT
BRANCH  16  17
ATOM      1  F   UNL     1      16.882  -0.735  22.185  0.00  0.00    -0.205 F 
ATOM     17  C   UNL     1      17.079  -3.816  24.927  0.00  0.00    +0.020 A 
ATOM     18  C   UNL     1      17.066  -2.492  25.365  0.00  0.00    +0.014 A 
ATOM     19  C   UNL     1      17.025  -4.098  23.562  0.00  0.00    +0.014 A 
ATOM     20  C   UNL     1      17.000  -1.451  24.439  0.00  0.00    +0.039 A 
ATOM     21  C   UNL     1      16.958  -3.058  22.636  0.00  0.00    +0.039 A 
ATOM     22  C   UNL     1      16.946  -1.734  23.075  0.00  0.00    +0.123 A 
ENDBRANCH  16  17
BRANCH  12   9
ATOM      9  C   UNL     1      17.189  -8.088  27.661  0.00  0.00    +0.085 C 
BRANCH   9   6
ATOM      2  O   UNL     1      16.508  -9.579  30.445  0.00  0.00    -0.376 OA
ATOM      6  C   UNL     1      16.248  -8.202  28.832  0.00  0.00    +0.072 C 
ATOM      7  C   UNL     1      16.812  -8.171  30.259  0.00  0.00    +0.184 C 
ATOM      8  C   UNL     1      15.713  -9.584  29.230  0.00  0.00    +0.184 C 
BRANCH   6   4
ATOM      4  N   UNL     1      15.116  -7.273  28.758  0.00  0.00    -0.306 NA
ATOM     23  H   UNL     1      14.576  -7.329  27.896  0.00  0.00    +0.123 HD
BRANCH   4  10
ATOM     10  C   UNL     1      14.241  -7.485  29.906  0.00  0.00    +0.084 C 
BRANCH  10  11
ATOM     11  C   UNL     1      13.455  -6.219  30.287  0.00  0.00    -0.003 C 
ATOM     13  C   UNL     1      12.099  -6.612  30.880  0.00  0.00    +0.008 C 
ATOM     14  C   UNL     1      14.212  -5.333  31.279  0.00  0.00    +0.008 C 
ENDBRANCH  10  11
ENDBRANCH   4  10
ENDBRANCH   6   4
ENDBRANCH   9   6
ENDBRANCH  12   9
TORSDOF 6
ENDMDL
MODEL 2
REMARK VINA RESULT:      -4.2     16.715     18.492
REMARK  Name = 71694075
REMARK  8 active torsions:
REMARK  status: ('A' for Active; 'I' for Inactive)
REMARK    1  A    between atoms: N_4  and  C_6
REMARK    2  A    between atoms: N_4  and  C_10
REMARK    3  A    between atoms: C_6  and  C_9
REMARK    4  A    between atoms: C_9  and  C_12
REMARK    5  A    between atoms: C_10  and  C_11
REMARK    6  A    between atoms: C_11  and  C_13
REMARK    7  A    between atoms: C_11  and  C_14
REMARK    8  A    between atoms: C_16  and  C_17
REMARK                            x       y       z     vdW  Elec       q    Type
REMARK                         _______ _______ _______ _____ _____    ______ ____
ROOT
ATOM      3  O   UNL     1       0.769   2.003  24.238  0.00  0.00    -0.354 OA
ATOM      5  N   UNL     1      -0.596   2.257  24.262  0.00  0.00    -0.083 NA
ATOM     12  C   UNL     1      -1.138   1.307  23.496  0.00  0.00    +0.086 A 
ATOM     15  C   UNL     1      -0.173   0.433  22.967  0.00  0.00    +0.076 A 
ATOM     16  C   UNL     1       1.009   0.914  23.464  0.00  0.00    +0.167 A 
ENDROOT
BRANCH  16  17
ATOM      1  F   UNL     1       6.345  -0.589  23.005  0.00  0.00    -0.205 F 
ATOM     17  C   UNL     1       2.384   0.526  23.344  0.00  0.00    +0.020 A 
ATOM     18  C   UNL     1       2.771  -0.777  23.656  0.00  0.00    +0.014 A 
ATOM     19  C   UNL     1       3.337   1.452  22.918  0.00  0.00    +0.014 A 
ATOM     20  C   UNL     1       4.109  -1.154  23.541  0.00  0.00    +0.039 A 
ATOM     21  C   UNL     1       4.674   1.075  22.804  0.00  0.00    +0.039 A 
ATOM     22  C   UNL     1       5.061  -0.228  23.114  0.00  0.00    +0.123 A 
ENDBRANCH  16  17
BRANCH  12   9
ATOM      9  C   UNL     1      -2.634   1.268  23.287  0.00  0.00    +0.085 C 
BRANCH   9   6
ATOM      2  O   UNL     1      -5.036   2.367  25.146  0.00  0.00    -0.376 OA
ATOM      6  C   UNL     1      -3.350   1.170  24.609  0.00  0.00    +0.072 C 
ATOM      7  C   UNL     1      -4.877   1.019  24.631  0.00  0.00    +0.184 C 
ATOM      8  C   UNL     1      -3.612   2.451  25.414  0.00  0.00    +0.184 C 
BRANCH   6   4
ATOM      4  N   UNL     1      -2.769   0.170  25.510  0.00  0.00    -0.306 NA
ATOM     23  H   UNL     1      -2.461   0.535  26.410  0.00  0.00    +0.123 HD
BRANCH   4  10
ATOM     10  C   UNL     1      -3.729  -0.910  25.714  0.00  0.00    +0.084 C 
BRANCH  10  11
ATOM     11  C   UNL     1      -3.289  -2.223  25.043  0.00  0.00    -0.003 C 
ATOM     13  C   UNL     1      -4.131  -2.468  23.787  0.00  0.00    +0.008 C 
ATOM     14  C   UNL     1      -1.803  -2.224  24.674  0.00  0.00    +0.008 C 
ENDBRANCH  10  11
ENDBRANCH   4  10
ENDBRANCH   6   4
ENDBRANCH   9   6
ENDBRANCH  12   9
TORSDOF 6
ENDMDL
MODEL 3
REMARK VINA RESULT:      -4.2     18.045     19.902
REMARK  Name = 71694075
REMARK  8 active torsions:
REMARK  status: ('A' for Active; 'I' for Inactive)
REMARK    1  A    between atoms: N_4  and  C_6
REMARK    2  A    between atoms: N_4  and  C_10
REMARK    3  A    between atoms: C_6  and  C_9
REMARK    4  A    between atoms: C_9  and  C_12
REMARK    5  A    between atoms: C_10  and  C_11
REMARK    6  A    between atoms: C_11  and  C_13
REMARK    7  A    between atoms: C_11  and  C_14
REMARK    8  A    between atoms: C_16  and  C_17
REMARK                            x       y       z     vdW  Elec       q    Type
REMARK                         _______ _______ _______ _____ _____    ______ ____
ROOT
ATOM      3  O   UNL     1      -0.945  -0.309  25.185  0.00  0.00    -0.354 OA
ATOM      5  N   UNL     1      -2.276  -0.322  25.580  0.00  0.00    -0.083 NA
ATOM     12  C   UNL     1      -2.938   0.275  24.585  0.00  0.00    +0.086 A 
ATOM     15  C   UNL     1      -2.085   0.681  23.545  0.00  0.00    +0.076 A 
ATOM     16  C   UNL     1      -0.843   0.291  23.971  0.00  0.00    +0.167 A 
ENDROOT
BRANCH  16  17
ATOM      1  F   UNL     1       4.297   0.624  21.871  0.00  0.00    -0.205 F 
ATOM     17  C   UNL     1       0.481   0.377  23.429  0.00  0.00    +0.020 A 
ATOM     18  C   UNL     1       0.881  -0.499  22.419  0.00  0.00    +0.014 A 
ATOM     19  C   UNL     1       1.372   1.336  23.912  0.00  0.00    +0.014 A 
ATOM     20  C   UNL     1       2.169  -0.415  21.892  0.00  0.00    +0.039 A 
ATOM     21  C   UNL     1       2.661   1.419  23.385  0.00  0.00    +0.039 A 
ATOM     22  C   UNL     1       3.059   0.544  22.375  0.00  0.00    +0.123 A 
ENDBRANCH  16  17
BRANCH  12   9
ATOM      9  C   UNL     1      -4.438   0.443  24.670  0.00  0.00    +0.085 C 
BRANCH   9   6
ATOM      2  O   UNL     1      -6.320   2.495  26.307  0.00  0.00    -0.376 OA
ATOM      6  C   UNL     1      -4.794   1.881  24.943  0.00  0.00    +0.072 C 
ATOM      7  C   UNL     1      -4.875   2.374  26.394  0.00  0.00    +0.184 C 
ATOM      8  C   UNL     1      -6.264   2.314  24.867  0.00  0.00    +0.184 C 
BRANCH   6   4
ATOM      4  N   UNL     1      -3.990   2.833  24.171  0.00  0.00    -0.306 NA
ATOM     23  H   UNL     1      -4.492   3.299  23.416  0.00  0.00    +0.123 HD
BRANCH   4  10
ATOM     10  C   UNL     1      -3.420   3.827  25.075  0.00  0.00    +0.084 C 
BRANCH  10  11
ATOM     11  C   UNL     1      -1.885   3.890  24.985  0.00  0.00    -0.003 C 
ATOM     13  C   UNL     1      -1.426   5.351  25.010  0.00  0.00    +0.008 C 
ATOM     14  C   UNL     1      -1.199   3.115  26.112  0.00  0.00    +0.008 C 
ENDBRANCH  10  11
ENDBRANCH   4  10
ENDBRANCH   6   4
ENDBRANCH   9   6
ENDBRANCH  12   9
TORSDOF 6
ENDMDL
MODEL 4
REMARK VINA RESULT:      -4.1     16.873     18.637
REMARK  Name = 71694075
REMARK  8 active torsions:
REMARK  status: ('A' for Active; 'I' for Inactive)
REMARK    1  A    between atoms: N_4  and  C_6
REMARK    2  A    between atoms: N_4  and  C_10
REMARK    3  A    between atoms: C_6  and  C_9
REMARK    4  A    between atoms: C_9  and  C_12
REMARK    5  A    between atoms: C_10  and  C_11
REMARK    6  A    between atoms: C_11  and  C_13
REMARK    7  A    between atoms: C_11  and  C_14
REMARK    8  A    between atoms: C_16  and  C_17
REMARK                            x       y       z     vdW  Elec       q    Type
REMARK                         _______ _______ _______ _____ _____    ______ ____
ROOT
ATOM      3  O   UNL     1       0.087  -0.776  24.280  0.00  0.00    -0.354 OA
ATOM      5  N   UNL     1      -1.289  -0.584  24.281  0.00  0.00    -0.083 NA
ATOM     12  C   UNL     1      -1.497   0.435  23.442  0.00  0.00    +0.086 A 
ATOM     15  C   UNL     1      -0.301   0.920  22.886  0.00  0.00    +0.076 A 
ATOM     16  C   UNL     1       0.664   0.126  23.446  0.00  0.00    +0.167 A 
ENDROOT
BRANCH  16  17
ATOM      1  F   UNL     1       6.204  -0.170  23.034  0.00  0.00    -0.205 F 
ATOM     17  C   UNL     1       2.092   0.049  23.338  0.00  0.00    +0.020 A 
ATOM     18  C   UNL     1       2.757  -1.123  23.698  0.00  0.00    +0.014 A 
ATOM     19  C   UNL     1       2.818   1.147  22.876  0.00  0.00    +0.014 A 
ATOM     20  C   UNL     1       4.146  -1.198  23.594  0.00  0.00    +0.039 A 
ATOM     21  C   UNL     1       4.206   1.073  22.773  0.00  0.00    +0.039 A 
ATOM     22  C   UNL     1       4.870  -0.100  23.132  0.00  0.00    +0.123 A 
ENDBRANCH  16  17
BRANCH  12   9
ATOM      9  C   UNL     1      -2.902   0.930  23.190  0.00  0.00    +0.085 C 
BRANCH   9   6
ATOM      2  O   UNL     1      -5.571   1.918  24.718  0.00  0.00    -0.376 OA
ATOM      6  C   UNL     1      -3.490   1.515  24.447  0.00  0.00    +0.072 C 
ATOM      7  C   UNL     1      -4.693   0.828  25.107  0.00  0.00    +0.184 C 
ATOM      8  C   UNL     1      -4.426   2.727  24.341  0.00  0.00    +0.184 C 
BRANCH   6   4
ATOM      4  N   UNL     1      -2.488   1.794  25.480  0.00  0.00    -0.306 NA
ATOM     23  H   UNL     1      -1.562   1.414  25.287  0.00  0.00    +0.123 HD
BRANCH   4  10
ATOM     10  C   UNL     1      -2.399   3.235  25.690  0.00  0.00    +0.084 C 
BRANCH  10  11
ATOM     11  C   UNL     1      -0.946   3.741  25.684  0.00  0.00    -0.003 C 
ATOM     13  C   UNL     1      -0.004   2.611  26.107  0.00  0.00    +0.008 C 
ATOM     14  C   UNL     1      -0.518   4.284  24.318  0.00  0.00    +0.008 C 
ENDBRANCH  10  11
ENDBRANCH   4  10
ENDBRANCH   6   4
ENDBRANCH   9   6
ENDBRANCH  12   9
TORSDOF 6
ENDMDL
MODEL 5
REMARK VINA RESULT:      -3.7     16.889     18.530
REMARK  Name = 71694075
REMARK  8 active torsions:
REMARK  status: ('A' for Active; 'I' for Inactive)
REMARK    1  A    between atoms: N_4  and  C_6
REMARK    2  A    between atoms: N_4  and  C_10
REMARK    3  A    between atoms: C_6  and  C_9
REMARK    4  A    between atoms: C_9  and  C_12
REMARK    5  A    between atoms: C_10  and  C_11
REMARK    6  A    between atoms: C_11  and  C_13
REMARK    7  A    between atoms: C_11  and  C_14
REMARK    8  A    between atoms: C_16  and  C_17
REMARK                            x       y       z     vdW  Elec       q    Type
REMARK                         _______ _______ _______ _____ _____    ______ ____
ROOT
ATOM      3  O   UNL     1       0.631   1.658  24.150  0.00  0.00    -0.354 OA
ATOM      5  N   UNL     1      -0.754   1.746  24.184  0.00  0.00    -0.083 NA
ATOM     12  C   UNL     1      -1.186   0.668  23.523  0.00  0.00    +0.086 A 
ATOM     15  C   UNL     1      -0.128  -0.129  23.055  0.00  0.00    +0.076 A 
ATOM     16  C   UNL     1       0.993   0.537  23.475  0.00  0.00    +0.167 A 
ENDROOT
BRANCH  16  17
ATOM      1  F   UNL     1       6.467  -0.346  23.025  0.00  0.00    -0.205 F 
ATOM     17  C   UNL     1       2.404   0.309  23.358  0.00  0.00    +0.020 A 
ATOM     18  C   UNL     1       2.943  -0.927  23.714  0.00  0.00    +0.014 A 
ATOM     19  C   UNL     1       3.239   1.324  22.889  0.00  0.00    +0.014 A 
ATOM     20  C   UNL     1       4.315  -1.149  23.601  0.00  0.00    +0.039 A 
ATOM     21  C   UNL     1       4.611   1.102  22.776  0.00  0.00    +0.039 A 
ATOM     22  C   UNL     1       5.149  -0.134  23.132  0.00  0.00    +0.123 A 
ENDBRANCH  16  17
BRANCH  12   9
ATOM      9  C   UNL     1      -2.669   0.428  23.357  0.00  0.00    +0.085 C 
BRANCH   9   6
ATOM      2  O   UNL     1      -2.719  -2.395  24.926  0.00  0.00    -0.376 OA
ATOM      6  C   UNL     1      -3.211  -0.356  24.524  0.00  0.00    +0.072 C 
ATOM      7  C   UNL     1      -2.241  -1.122  25.434  0.00  0.00    +0.184 C 
ATOM      8  C   UNL     1      -3.835  -1.735  24.273  0.00  0.00    +0.184 C 
BRANCH   6   4
ATOM      4  N   UNL     1      -4.127   0.420  25.366  0.00  0.00    -0.306 NA
ATOM     23  H   UNL     1      -3.714   0.775  26.227  0.00  0.00    +0.123 HD
BRANCH   4  10
ATOM     10  C   UNL     1      -4.680   1.524  24.588  0.00  0.00    +0.084 C 
BRANCH  10  11
ATOM     11  C   UNL     1      -4.420   2.892  25.243  0.00  0.00    -0.003 C 
ATOM     13  C   UNL     1      -3.684   3.804  24.257  0.00  0.00    +0.008 C 
ATOM     14  C   UNL     1      -5.707   3.573  25.712  0.00  0.00    +0.008 C 
ENDBRANCH  10  11
ENDBRANCH   4  10
ENDBRANCH   6   4
ENDBRANCH   9   6
ENDBRANCH  12   9
TORSDOF 6
ENDMDL
MODEL 6
REMARK VINA RESULT:      -3.5     17.736     19.800
REMARK  Name = 71694075
REMARK  8 active torsions:
REMARK  status: ('A' for Active; 'I' for Inactive)
REMARK    1  A    between atoms: N_4  and  C_6
REMARK    2  A    between atoms: N_4  and  C_10
REMARK    3  A    between atoms: C_6  and  C_9
REMARK    4  A    between atoms: C_9  and  C_12
REMARK    5  A    between atoms: C_10  and  C_11
REMARK    6  A    between atoms: C_11  and  C_13
REMARK    7  A    between atoms: C_11  and  C_14
REMARK    8  A    between atoms: C_16  and  C_17
REMARK                            x       y       z     vdW  Elec       q    Type
REMARK                         _______ _______ _______ _____ _____    ______ ____
ROOT
ATOM      3  O   UNL     1      -1.163   2.406  25.897  0.00  0.00    -0.354 OA
ATOM      5  N   UNL     1       0.186   2.325  25.577  0.00  0.00    -0.083 NA
ATOM     12  C   UNL     1       0.217   1.953  24.295  0.00  0.00    +0.086 A 
ATOM     15  C   UNL     1      -1.071   1.786  23.758  0.00  0.00    +0.076 A 
ATOM     16  C   UNL     1      -1.902   2.083  24.805  0.00  0.00    +0.167 A 
ENDROOT
BRANCH  16  17
ATOM      1  F   UNL     1      -7.421   2.244  25.488  0.00  0.00    -0.205 F 
ATOM     17  C   UNL     1      -3.324   2.124  24.983  0.00  0.00    +0.020 A 
ATOM     18  C   UNL     1      -4.085   0.969  24.795  0.00  0.00    +0.014 A 
ATOM     19  C   UNL     1      -3.949   3.319  25.341  0.00  0.00    +0.014 A 
ATOM     20  C   UNL     1      -5.468   1.010  24.966  0.00  0.00    +0.039 A 
ATOM     21  C   UNL     1      -5.333   3.359  25.512  0.00  0.00    +0.039 A 
ATOM     22  C   UNL     1      -6.092   2.204  25.325  0.00  0.00    +0.123 A 
ENDBRANCH  16  17
BRANCH  12   9
ATOM      9  C   UNL     1       1.542   1.762  23.595  0.00  0.00    +0.085 C 
BRANCH   9   6
ATOM      2  O   UNL     1       2.599  -0.262  21.310  0.00  0.00    -0.376 OA
ATOM      6  C   UNL     1       1.708   0.329  23.160  0.00  0.00    +0.072 C 
ATOM      7  C   UNL     1       3.080  -0.158  22.677  0.00  0.00    +0.184 C 
ATOM      8  C   UNL     1       1.231  -0.088  21.762  0.00  0.00    +0.184 C 
BRANCH   6   4
ATOM      4  N   UNL     1       1.186  -0.636  24.132  0.00  0.00    -0.306 NA
ATOM     23  H   UNL     1       1.111  -0.281  25.084  0.00  0.00    +0.123 HD
BRANCH   4  10
ATOM     10  C   UNL     1      -0.113  -1.124  23.680  0.00  0.00    +0.084 C 
BRANCH  10  11
ATOM     11  C   UNL     1      -0.869  -1.888  24.780  0.00  0.00    -0.003 C 
ATOM     13  C   UNL     1      -0.942  -1.032  26.047  0.00  0.00    +0.008 C 
ATOM     14  C   UNL     1      -2.281  -2.293  24.350  0.00  0.00    +0.008 C 
ENDBRANCH  10  11
ENDBRANCH   4  10
ENDBRANCH   6   4
ENDBRANCH   9   6
ENDBRANCH  12   9
TORSDOF 6
ENDMDL
MODEL 7
REMARK VINA RESULT:      -3.4     18.028     19.864
REMARK  Name = 71694075
REMARK  8 active torsions:
REMARK  status: ('A' for Active; 'I' for Inactive)
REMARK    1  A    between atoms: N_4  and  C_6
REMARK    2  A    between atoms: N_4  and  C_10
REMARK    3  A    between atoms: C_6  and  C_9
REMARK    4  A    between atoms: C_9  and  C_12
REMARK    5  A    between atoms: C_10  and  C_11
REMARK    6  A    between atoms: C_11  and  C_13
REMARK    7  A    between atoms: C_11  and  C_14
REMARK    8  A    between atoms: C_16  and  C_17
REMARK                            x       y       z     vdW  Elec       q    Type
REMARK                         _______ _______ _______ _____ _____    ______ ____
ROOT
ATOM      3  O   UNL     1      -0.636   2.219  25.087  0.00  0.00    -0.354 OA
ATOM      5  N   UNL     1      -1.929   2.666  25.327  0.00  0.00    -0.083 NA
ATOM     12  C   UNL     1      -2.602   2.395  24.206  0.00  0.00    +0.086 A 
ATOM     15  C   UNL     1      -1.794   1.782  23.233  0.00  0.00    +0.076 A 
ATOM     16  C   UNL     1      -0.568   1.695  23.837  0.00  0.00    +0.167 A 
ENDROOT
BRANCH  16  17
ATOM      1  F   UNL     1       4.405  -0.274  22.307  0.00  0.00    -0.205 F 
ATOM     17  C   UNL     1       0.715   1.187  23.444  0.00  0.00    +0.020 A 
ATOM     18  C   UNL     1       1.849   1.991  23.558  0.00  0.00    +0.014 A 
ATOM     19  C   UNL     1       0.829  -0.111  22.944  0.00  0.00    +0.014 A 
ATOM     20  C   UNL     1       3.096   1.498  23.175  0.00  0.00    +0.039 A 
ATOM     21  C   UNL     1       2.075  -0.604  22.560  0.00  0.00    +0.039 A 
ATOM     22  C   UNL     1       3.209   0.200  22.676  0.00  0.00    +0.123 A 
ENDBRANCH  16  17
BRANCH  12   9
ATOM      9  C   UNL     1      -4.068   2.749  24.100  0.00  0.00    +0.085 C 
BRANCH   9   6
ATOM      2  O   UNL     1      -6.894   2.301  25.598  0.00  0.00    -0.376 OA
ATOM      6  C   UNL     1      -4.891   1.863  24.999  0.00  0.00    +0.072 C 
ATOM      7  C   UNL     1      -6.308   1.462  24.569  0.00  0.00    +0.184 C 
ATOM      8  C   UNL     1      -5.593   2.480  26.217  0.00  0.00    +0.184 C 
BRANCH   6   4
ATOM      4  N   UNL     1      -4.178   0.660  25.438  0.00  0.00    -0.306 NA
ATOM     23  H   UNL     1      -4.377   0.373  26.395  0.00  0.00    +0.123 HD
BRANCH   4  10
ATOM     10  C   UNL     1      -4.470  -0.436  24.519  0.00  0.00    +0.084 C 
BRANCH  10  11
ATOM     11  C   UNL     1      -3.280  -1.396  24.353  0.00  0.00    -0.003 C 
ATOM     13  C   UNL     1      -2.253  -1.143  25.460  0.00  0.00    +0.008 C 
ATOM     14  C   UNL     1      -3.705  -2.866  24.371  0.00  0.00    +0.008 C 
ENDBRANCH  10  11
ENDBRANCH   4  10
ENDBRANCH   6   4
ENDBRANCH   9   6
ENDBRANCH  12   9
TORSDOF 6
ENDMDL
MODEL 8
REMARK VINA RESULT:      -3.1     24.425     25.660
REMARK  Name = 71694075
REMARK  8 active torsions:
REMARK  status: ('A' for Active; 'I' for Inactive)
REMARK    1  A    between atoms: N_4  and  C_6
REMARK    2  A    between atoms: N_4  and  C_10
REMARK    3  A    between atoms: C_6  and  C_9
REMARK    4  A    between atoms: C_9  and  C_12
REMARK    5  A    between atoms: C_10  and  C_11
REMARK    6  A    between atoms: C_11  and  C_13
REMARK    7  A    between atoms: C_11  and  C_14
REMARK    8  A    between atoms: C_16  and  C_17
REMARK                            x       y       z     vdW  Elec       q    Type
REMARK                         _______ _______ _______ _____ _____    ______ ____
ROOT
ATOM      3  O   UNL     1      -2.159 -10.141  12.510  0.00  0.00    -0.354 OA
ATOM      5  N   UNL     1      -3.395 -10.726  12.269  0.00  0.00    -0.083 NA
ATOM     12  C   UNL     1      -3.732 -10.330  11.039  0.00  0.00    +0.086 A 
ATOM     15  C   UNL     1      -2.755  -9.501  10.459  0.00  0.00    +0.076 A 
ATOM     16  C   UNL     1      -1.788  -9.414  11.425  0.00  0.00    +0.167 A 
ENDROOT
BRANCH  16  17
ATOM      1  F   UNL     1       3.122  -6.830  11.819  0.00  0.00    -0.205 F 
ATOM     17  C   UNL     1      -0.523  -8.747  11.526  0.00  0.00    +0.020 A 
ATOM     18  C   UNL     1       0.509  -9.070  10.644  0.00  0.00    +0.014 A 
ATOM     19  C   UNL     1      -0.321  -7.776  12.507  0.00  0.00    +0.014 A 
ATOM     20  C   UNL     1       1.740  -8.422  10.742  0.00  0.00    +0.039 A 
ATOM     21  C   UNL     1       0.910  -7.129  12.606  0.00  0.00    +0.039 A 
ATOM     22  C   UNL     1       1.940  -7.451  11.723  0.00  0.00    +0.123 A 
ENDBRANCH  16  17
BRANCH  12   9
ATOM      9  C   UNL     1      -5.040 -10.781  10.431  0.00  0.00    +0.085 C 
BRANCH   9   6
ATOM      2  O   UNL     1      -7.279  -8.934   9.013  0.00  0.00    -0.376 OA
ATOM      6  C   UNL     1      -6.098  -9.724  10.609  0.00  0.00    +0.072 C 
ATOM      7  C   UNL     1      -7.498  -9.953  10.025  0.00  0.00    +0.184 C 
ATOM      8  C   UNL     1      -6.080  -8.487   9.701  0.00  0.00    +0.184 C 
BRANCH   6   4
ATOM      4  N   UNL     1      -6.240  -9.275  11.998  0.00  0.00    -0.306 NA
ATOM     23  H   UNL     1      -6.154  -8.269  12.130  0.00  0.00    +0.123 HD
BRANCH   4  10
ATOM     10  C   UNL     1      -7.519  -9.738  12.526  0.00  0.00    +0.084 C 
BRANCH  10  11
ATOM     11  C   UNL     1      -7.402 -10.273  13.964  0.00  0.00    -0.003 C 
ATOM     13  C   UNL     1      -6.015  -9.945  14.526  0.00  0.00    +0.008 C 
ATOM     14  C   UNL     1      -8.479  -9.706  14.891  0.00  0.00    +0.008 C 
ENDBRANCH  10  11
ENDBRANCH   4  10
ENDBRANCH   6   4
ENDBRANCH   9   6
ENDBRANCH  12   9
TORSDOF 6
ENDMDL
MODEL 9
REMARK VINA RESULT:      -2.4     24.871     26.216
REMARK  Name = 71694075
REMARK  8 active torsions:
REMARK  status: ('A' for Active; 'I' for Inactive)
REMARK    1  A    between atoms: N_4  and  C_6
REMARK    2  A    between atoms: N_4  and  C_10
REMARK    3  A    between atoms: C_6  and  C_9
REMARK    4  A    between atoms: C_9  and  C_12
REMARK    5  A    between atoms: C_10  and  C_11
REMARK    6  A    between atoms: C_11  and  C_13
REMARK    7  A    between atoms: C_11  and  C_14
REMARK    8  A    between atoms: C_16  and  C_17
REMARK                            x       y       z     vdW  Elec       q    Type
REMARK                         _______ _______ _______ _____ _____    ______ ____
ROOT
ATOM      3  O   UNL     1      -1.818 -10.143  12.350  0.00  0.00    -0.354 OA
ATOM      5  N   UNL     1      -3.016 -10.781  12.055  0.00  0.00    -0.083 NA
ATOM     12  C   UNL     1      -3.386 -10.291  10.869  0.00  0.00    +0.086 A 
ATOM     15  C   UNL     1      -2.469  -9.349  10.371  0.00  0.00    +0.076 A 
ATOM     16  C   UNL     1      -1.503  -9.292  11.341  0.00  0.00    +0.167 A 
ENDROOT
BRANCH  16  17
ATOM      1  F   UNL     1       3.233  -6.445  11.980  0.00  0.00    -0.205 F 
ATOM     17  C   UNL     1      -0.282  -8.558  11.504  0.00  0.00    +0.020 A 
ATOM     18  C   UNL     1       0.837  -8.883  10.738  0.00  0.00    +0.014 A 
ATOM     19  C   UNL     1      -0.212  -7.518  12.432  0.00  0.00    +0.014 A 
ATOM     20  C   UNL     1       2.024  -8.169  10.898  0.00  0.00    +0.039 A 
ATOM     21  C   UNL     1       0.975  -6.805  12.593  0.00  0.00    +0.039 A 
ATOM     22  C   UNL     1       2.093  -7.130  11.825  0.00  0.00    +0.123 A 
ENDBRANCH  16  17
BRANCH  12   9
ATOM      9  C   UNL     1      -4.666 -10.766  10.221  0.00  0.00    +0.085 C 
BRANCH   9   6
ATOM      2  O   UNL     1      -5.427  -7.782  11.196  0.00  0.00    -0.376 OA
ATOM      6  C   UNL     1      -5.731  -9.705  10.316  0.00  0.00    +0.072 C 
ATOM      7  C   UNL     1      -5.423  -8.282   9.832  0.00  0.00    +0.184 C 
ATOM      8  C   UNL     1      -5.997  -9.031  11.669  0.00  0.00    +0.184 C 
BRANCH   6   4
ATOM      4  N   UNL     1      -7.016 -10.123   9.748  0.00  0.00    -0.306 NA
ATOM     23  H   UNL     1      -7.803 -10.074  10.394  0.00  0.00    +0.123 HD
BRANCH   4  10
ATOM     10  C   UNL     1      -7.301  -9.325   8.559  0.00  0.00    +0.084 C 
BRANCH  10  11
ATOM     11  C   UNL     1      -8.783  -8.928   8.459  0.00  0.00    -0.003 C 
ATOM     13  C   UNL     1      -9.628  -9.863   9.329  0.00  0.00    +0.008 C 
ATOM     14  C   UNL     1      -9.032  -7.476   8.871  0.00  0.00    +0.008 C 
ENDBRANCH  10  11
ENDBRANCH   4  10
ENDBRANCH   6   4
ENDBRANCH   9   6
ENDBRANCH  12   9
TORSDOF 6
ENDMDL
MODEL 10
REMARK VINA RESULT:      -2.4     17.346     19.394
REMARK  Name = 71694075
REMARK  8 active torsions:
REMARK  status: ('A' for Active; 'I' for Inactive)
REMARK    1  A    between atoms: N_4  and  C_6
REMARK    2  A    between atoms: N_4  and  C_10
REMARK    3  A    between atoms: C_6  and  C_9
REMARK    4  A    between atoms: C_9  and  C_12
REMARK    5  A    between atoms: C_10  and  C_11
REMARK    6  A    between atoms: C_11  and  C_13
REMARK    7  A    between atoms: C_11  and  C_14
REMARK    8  A    between atoms: C_16  and  C_17
REMARK                            x       y       z     vdW  Elec       q    Type
REMARK                         _______ _______ _______ _____ _____    ______ ____
ROOT
ATOM      3  O   UNL     1      -2.721  -0.420  24.690  0.00  0.00    -0.354 OA
ATOM      5  N   UNL     1      -1.594  -1.194  24.444  0.00  0.00    -0.083 NA
ATOM     12  C   UNL     1      -0.587  -0.322  24.356  0.00  0.00    +0.086 A 
ATOM     15  C   UNL     1      -1.014   1.005  24.537  0.00  0.00    +0.076 A 
ATOM     16  C   UNL     1      -2.363   0.888  24.743  0.00  0.00    +0.167 A 
ENDROOT
BRANCH  16  17
ATOM      1  F   UNL     1      -6.493   4.484  25.721  0.00  0.00    -0.205 F 
ATOM     17  C   UNL     1      -3.427   1.816  24.994  0.00  0.00    +0.020 A 
ATOM     18  C   UNL     1      -3.142   3.164  25.210  0.00  0.00    +0.014 A 
ATOM     19  C   UNL     1      -4.749   1.370  25.024  0.00  0.00    +0.014 A 
ATOM     20  C   UNL     1      -4.178   4.065  25.454  0.00  0.00    +0.039 A 
ATOM     21  C   UNL     1      -5.784   2.271  25.270  0.00  0.00    +0.039 A 
ATOM     22  C   UNL     1      -5.499   3.619  25.484  0.00  0.00    +0.123 A 
ENDBRANCH  16  17
BRANCH  12   9
ATOM      9  C   UNL     1       0.817  -0.813  24.089  0.00  0.00    +0.085 C 
BRANCH   9   6
ATOM      2  O   UNL     1       0.942  -0.579  20.870  0.00  0.00    -0.376 OA
ATOM      6  C   UNL     1       1.408  -0.103  22.900  0.00  0.00    +0.072 C 
ATOM      7  C   UNL     1       0.479   0.433  21.803  0.00  0.00    +0.184 C 
ATOM      8  C   UNL     1       2.028  -0.931  21.766  0.00  0.00    +0.184 C 
BRANCH   6   4
ATOM      4  N   UNL     1       2.353   0.956  23.269  0.00  0.00    -0.306 NA
ATOM     23  H   UNL     1       2.407   1.149  24.268  0.00  0.00    +0.123 HD
BRANCH   4  10
ATOM     10  C   UNL     1       3.678   0.621  22.756  0.00  0.00    +0.084 C 
BRANCH  10  11
ATOM     11  C   UNL     1       4.620   0.104  23.857  0.00  0.00    -0.003 C 
ATOM     13  C   UNL     1       4.582  -1.426  23.894  0.00  0.00    +0.008 C 
ATOM     14  C   UNL     1       6.063   0.579  23.666  0.00  0.00    +0.008 C 
ENDBRANCH  10  11
ENDBRANCH   4  10
ENDBRANCH   6   4
ENDBRANCH   9   6
ENDBRANCH  12   9
TORSDOF 6
ENDMDL
