MODEL 1
REMARK VINA RESULT:      -1.1      0.000      0.000
REMARK  Name = 11867156
REMARK  5 active torsions:
REMARK  status: ('A' for Active; 'I' for Inactive)
REMARK    1  A    between atoms: S_1  and  N_10
REMARK    2  A    between atoms: S_1  and  C_24
REMARK    3  A    between atoms: O_4  and  C_23
REMARK    4  A    between atoms: N_10  and  C_21
REMARK    5  A    between atoms: C_20  and  C_23
REMARK                            x       y       z     vdW  Elec       q    Type
REMARK                         _______ _______ _______ _____ _____    ______ ____
ROOT
ATOM      2  O   UNL     1      -0.237   1.040  26.655  0.00  0.00    -0.266 OA
ATOM      3  O   UNL     1      -5.292   1.727  24.356  0.00  0.00    -0.263 OA
ATOM      8  N   UNL     1      -1.143   2.561  25.120  0.00  0.00    -0.310 N 
ATOM      9  N   UNL     1      -4.141   3.701  24.846  0.00  0.00    -0.291 N 
ATOM     11  C   UNL     1      -2.119   4.824  25.806  0.00  0.00    +0.027 C 
ATOM     12  C   UNL     1      -2.136   4.157  23.441  0.00  0.00    +0.054 C 
ATOM     13  C   UNL     1      -1.724   5.266  24.403  0.00  0.00    +0.018 C 
ATOM     14  C   UNL     1      -1.318   3.568  26.173  0.00  0.00    +0.130 C 
ATOM     15  C   UNL     1      -3.638   4.585  25.900  0.00  0.00    +0.113 C 
ATOM     16  C   UNL     1      -3.664   3.981  23.490  0.00  0.00    +0.118 C 
ATOM     17  C   UNL     1      -1.454   2.846  23.784  0.00  0.00    +0.027 A 
ATOM     18  C   UNL     1      -1.176   1.954  22.815  0.00  0.00    +0.024 A 
ATOM     19  C   UNL     1      -0.549   1.340  25.503  0.00  0.00    +0.274 A 
ATOM     20  C   UNL     1      -5.115   2.728  25.041  0.00  0.00    +0.324 C 
ATOM     21  C   UNL     1      -0.288   0.389  24.393  0.00  0.00    +0.112 A 
ATOM     22  C   UNL     1      -0.575   0.685  23.125  0.00  0.00    +0.031 A 
ENDROOT
BRANCH  20  23
ATOM      5  O   UNL     1      -6.301   1.855  26.898  0.00  0.00    -0.240 OA
ATOM     23  C   UNL     1      -6.113   2.786  26.141  0.00  0.00    +0.392 C 
BRANCH  23   4
ATOM      4  O   UNL     1      -6.714   3.983  26.132  0.00  0.00    -0.474 OA
ATOM     31  H   UNL     1      -6.070   4.722  26.165  0.00  0.00    +0.296 HD
ENDBRANCH  23   4
ENDBRANCH  20  23
BRANCH  21  10
ATOM     10  N   UNL     1       0.293  -0.864  24.656  0.00  0.00    -0.211 N 
ATOM     30  H   UNL     1       0.645  -1.327  23.807  0.00  0.00    +0.174 HD
BRANCH  10   1
ATOM      1  S   UNL     1      -0.528  -1.885  25.727  0.00  0.00    +0.072 S 
ATOM      6  O   UNL     1       0.028  -3.223  25.651  0.00  0.00    -0.150 OA
ATOM      7  O   UNL     1      -0.678  -1.228  27.012  0.00  0.00    -0.150 OA
BRANCH   1  24
ATOM     24  C   UNL     1      -2.127  -1.936  24.971  0.00  0.00    +0.108 A 
ATOM     25  C   UNL     1      -2.438  -2.981  24.120  0.00  0.00    +0.029 A 
ATOM     26  C   UNL     1      -3.035  -0.928  25.246  0.00  0.00    +0.029 A 
ATOM     27  C   UNL     1      -3.698  -3.020  23.523  0.00  0.00    +0.002 A 
ATOM     28  C   UNL     1      -4.295  -0.967  24.649  0.00  0.00    +0.002 A 
ATOM     29  C   UNL     1      -4.627  -2.014  23.788  0.00  0.00    +0.000 A 
ENDBRANCH   1  24
ENDBRANCH  10   1
ENDBRANCH  21  10
TORSDOF 5
ENDMDL
MODEL 2
REMARK VINA RESULT:      -0.8     17.040     19.902
REMARK  Name = 11867156
REMARK  5 active torsions:
REMARK  status: ('A' for Active; 'I' for Inactive)
REMARK    1  A    between atoms: S_1  and  N_10
REMARK    2  A    between atoms: S_1  and  C_24
REMARK    3  A    between atoms: O_4  and  C_23
REMARK    4  A    between atoms: N_10  and  C_21
REMARK    5  A    between atoms: C_20  and  C_23
REMARK                            x       y       z     vdW  Elec       q    Type
REMARK                         _______ _______ _______ _____ _____    ______ ____
ROOT
ATOM      2  O   UNL     1      13.330  -6.101  29.178  0.00  0.00    -0.266 OA
ATOM      3  O   UNL     1       9.740  -8.285  32.873  0.00  0.00    -0.263 OA
ATOM      8  N   UNL     1      13.388  -7.946  30.621  0.00  0.00    -0.310 N 
ATOM      9  N   UNL     1      11.006  -9.839  31.671  0.00  0.00    -0.291 N 
ATOM     11  C   UNL     1      12.712 -10.306  29.900  0.00  0.00    +0.027 C 
ATOM     12  C   UNL     1      13.436  -9.900  32.213  0.00  0.00    +0.054 C 
ATOM     13  C   UNL     1      13.680 -10.767  30.981  0.00  0.00    +0.018 C 
ATOM     14  C   UNL     1      13.046  -8.856  29.522  0.00  0.00    +0.130 C 
ATOM     15  C   UNL     1      11.252 -10.457  30.366  0.00  0.00    +0.113 C 
ATOM     16  C   UNL     1      11.997 -10.118  32.713  0.00  0.00    +0.118 C 
ATOM     17  C   UNL     1      13.659  -8.431  31.908  0.00  0.00    +0.027 A 
ATOM     18  C   UNL     1      14.087  -7.596  32.873  0.00  0.00    +0.024 A 
ATOM     19  C   UNL     1      13.535  -6.582  30.292  0.00  0.00    +0.274 A 
ATOM     20  C   UNL     1       9.852  -9.135  31.997  0.00  0.00    +0.324 C 
ATOM     21  C   UNL     1      13.987  -5.710  31.404  0.00  0.00    +0.112 A 
ATOM     22  C   UNL     1      14.257  -6.192  32.618  0.00  0.00    +0.031 A 
ENDROOT
BRANCH  20  23
ATOM      5  O   UNL     1       7.836  -8.414  30.979  0.00  0.00    -0.240 OA
ATOM     23  C   UNL     1       8.552  -9.339  31.305  0.00  0.00    +0.392 C 
BRANCH  23   4
ATOM      4  O   UNL     1       8.349 -10.651  31.123  0.00  0.00    -0.474 OA
ATOM     31  H   UNL     1       8.372 -11.150  31.967  0.00  0.00    +0.296 HD
ENDBRANCH  23   4
ENDBRANCH  20  23
BRANCH  21  10
ATOM     10  N   UNL     1      14.161  -4.330  31.197  0.00  0.00    -0.211 N 
ATOM     30  H   UNL     1      13.737  -4.002  30.319  0.00  0.00    +0.174 HD
BRANCH  10   1
ATOM      1  S   UNL     1      15.694  -3.689  31.522  0.00  0.00    +0.072 S 
ATOM      6  O   UNL     1      15.560  -2.332  32.018  0.00  0.00    -0.150 OA
ATOM      7  O   UNL     1      16.484  -4.660  32.255  0.00  0.00    -0.150 OA
BRANCH   1  24
ATOM     24  C   UNL     1      16.361  -3.588  29.887  0.00  0.00    +0.108 A 
ATOM     25  C   UNL     1      16.666  -2.348  29.358  0.00  0.00    +0.029 A 
ATOM     26  C   UNL     1      16.566  -4.754  29.171  0.00  0.00    +0.029 A 
ATOM     27  C   UNL     1      17.191  -2.269  28.069  0.00  0.00    +0.002 A 
ATOM     28  C   UNL     1      17.093  -4.676  27.881  0.00  0.00    +0.002 A 
ATOM     29  C   UNL     1      17.405  -3.432  27.330  0.00  0.00    +0.000 A 
ENDBRANCH   1  24
ENDBRANCH  10   1
ENDBRANCH  21  10
TORSDOF 5
ENDMDL
MODEL 3
REMARK VINA RESULT:      -0.5     17.033     20.097
REMARK  Name = 11867156
REMARK  5 active torsions:
REMARK  status: ('A' for Active; 'I' for Inactive)
REMARK    1  A    between atoms: S_1  and  N_10
REMARK    2  A    between atoms: S_1  and  C_24
REMARK    3  A    between atoms: O_4  and  C_23
REMARK    4  A    between atoms: N_10  and  C_21
REMARK    5  A    between atoms: C_20  and  C_23
REMARK                            x       y       z     vdW  Elec       q    Type
REMARK                         _______ _______ _______ _____ _____    ______ ____
ROOT
ATOM      2  O   UNL     1      14.036  -6.522  28.852  0.00  0.00    -0.266 OA
ATOM      3  O   UNL     1       9.906  -7.337  32.539  0.00  0.00    -0.263 OA
ATOM      8  N   UNL     1      13.664  -8.063  30.578  0.00  0.00    -0.310 N 
ATOM      9  N   UNL     1      10.912  -9.282  31.719  0.00  0.00    -0.291 N 
ATOM     11  C   UNL     1      12.589 -10.352  30.199  0.00  0.00    +0.027 C 
ATOM     12  C   UNL     1      13.254  -9.680  32.467  0.00  0.00    +0.054 C 
ATOM     13  C   UNL     1      13.392 -10.781  31.420  0.00  0.00    +0.018 C 
ATOM     14  C   UNL     1      13.212  -9.077  29.619  0.00  0.00    +0.130 C 
ATOM     15  C   UNL     1      11.104 -10.155  30.559  0.00  0.00    +0.113 C 
ATOM     16  C   UNL     1      11.776  -9.545  32.873  0.00  0.00    +0.118 C 
ATOM     17  C   UNL     1      13.769  -8.352  31.945  0.00  0.00    +0.027 A 
ATOM     18  C   UNL     1      14.299  -7.451  32.793  0.00  0.00    +0.024 A 
ATOM     19  C   UNL     1      14.086  -6.827  30.043  0.00  0.00    +0.274 A 
ATOM     20  C   UNL     1       9.899  -8.335  31.826  0.00  0.00    +0.324 C 
ATOM     21  C   UNL     1      14.638  -5.867  31.031  0.00  0.00    +0.112 A 
ATOM     22  C   UNL     1      14.747  -6.167  32.326  0.00  0.00    +0.031 A 
ENDROOT
BRANCH  20  23
ATOM      5  O   UNL     1       8.444  -7.830  30.024  0.00  0.00    -0.240 OA
ATOM     23  C   UNL     1       8.622  -8.422  31.070  0.00  0.00    +0.392 C 
BRANCH  23   4
ATOM      4  O   UNL     1       7.775  -9.228  31.723  0.00  0.00    -0.474 OA
ATOM     31  H   UNL     1       8.151 -10.121  31.872  0.00  0.00    +0.296 HD
ENDBRANCH  23   4
ENDBRANCH  20  23
BRANCH  21  10
ATOM     10  N   UNL     1      15.083  -4.600  30.615  0.00  0.00    -0.211 N 
ATOM     30  H   UNL     1      14.576  -4.249  29.792  0.00  0.00    +0.174 HD
BRANCH  10   1
ATOM      1  S   UNL     1      16.757  -4.346  30.575  0.00  0.00    +0.072 S 
ATOM      6  O   UNL     1      17.399  -5.164  31.586  0.00  0.00    -0.150 OA
ATOM      7  O   UNL     1      17.223  -4.379  29.202  0.00  0.00    -0.150 OA
BRANCH   1  24
ATOM     24  C   UNL     1      16.847  -2.666  31.123  0.00  0.00    +0.108 A 
ATOM     25  C   UNL     1      16.550  -2.369  32.440  0.00  0.00    +0.029 A 
ATOM     26  C   UNL     1      17.213  -1.682  30.221  0.00  0.00    +0.029 A 
ATOM     27  C   UNL     1      16.620  -1.045  32.872  0.00  0.00    +0.002 A 
ATOM     28  C   UNL     1      17.284  -0.358  30.652  0.00  0.00    +0.002 A 
ATOM     29  C   UNL     1      16.987  -0.038  31.978  0.00  0.00    +0.000 A 
ENDBRANCH   1  24
ENDBRANCH  10   1
ENDBRANCH  21  10
TORSDOF 5
ENDMDL
MODEL 4
REMARK VINA RESULT:       0.6     17.577     20.148
REMARK  Name = 11867156
REMARK  5 active torsions:
REMARK  status: ('A' for Active; 'I' for Inactive)
REMARK    1  A    between atoms: S_1  and  N_10
REMARK    2  A    between atoms: S_1  and  C_24
REMARK    3  A    between atoms: O_4  and  C_23
REMARK    4  A    between atoms: N_10  and  C_21
REMARK    5  A    between atoms: C_20  and  C_23
REMARK                            x       y       z     vdW  Elec       q    Type
REMARK                         _______ _______ _______ _____ _____    ______ ____
ROOT
ATOM      2  O   UNL     1      12.798  -6.493  29.661  0.00  0.00    -0.266 OA
ATOM      3  O   UNL     1      15.528 -10.781  27.321  0.00  0.00    -0.263 OA
ATOM      8  N   UNL     1      15.016  -6.853  28.996  0.00  0.00    -0.310 N 
ATOM      9  N   UNL     1      16.204  -8.659  26.611  0.00  0.00    -0.291 N 
ATOM     11  C   UNL     1      15.914  -6.174  26.700  0.00  0.00    +0.027 C 
ATOM     12  C   UNL     1      17.402  -7.286  28.309  0.00  0.00    +0.054 C 
ATOM     13  C   UNL     1      17.257  -6.062  27.409  0.00  0.00    +0.018 C 
ATOM     14  C   UNL     1      14.795  -6.116  27.747  0.00  0.00    +0.130 C 
ATOM     15  C   UNL     1      15.844  -7.459  25.853  0.00  0.00    +0.113 C 
ATOM     16  C   UNL     1      17.405  -8.559  27.443  0.00  0.00    +0.118 C 
ATOM     17  C   UNL     1      16.280  -7.358  29.328  0.00  0.00    +0.027 A 
ATOM     18  C   UNL     1      16.493  -7.926  30.529  0.00  0.00    +0.024 A 
ATOM     19  C   UNL     1      13.925  -6.932  29.887  0.00  0.00    +0.274 A 
ATOM     20  C   UNL     1      15.562  -9.886  26.484  0.00  0.00    +0.324 C 
ATOM     21  C   UNL     1      14.216  -7.590  31.185  0.00  0.00    +0.112 A 
ATOM     22  C   UNL     1      15.431  -8.049  31.490  0.00  0.00    +0.031 A 
ENDROOT
BRANCH  20  23
ATOM      5  O   UNL     1      13.612 -10.168  25.166  0.00  0.00    -0.240 OA
ATOM     23  C   UNL     1      14.816 -10.291  25.263  0.00  0.00    +0.392 C 
BRANCH  23   4
ATOM      4  O   UNL     1      15.677 -10.776  24.359  0.00  0.00    -0.474 OA
ATOM     31  H   UNL     1      15.288 -10.816  23.460  0.00  0.00    +0.296 HD
ENDBRANCH  23   4
ENDBRANCH  20  23
BRANCH  21  10
ATOM     10  N   UNL     1      13.203  -7.734  32.150  0.00  0.00    -0.211 N 
ATOM     30  H   UNL     1      13.135  -8.693  32.518  0.00  0.00    +0.174 HD
BRANCH  10   1
ATOM      1  S   UNL     1      11.715  -6.998  31.820  0.00  0.00    +0.072 S 
ATOM      6  O   UNL     1      11.459  -5.956  32.795  0.00  0.00    -0.150 OA
ATOM      7  O   UNL     1      11.615  -6.713  30.401  0.00  0.00    -0.150 OA
BRANCH   1  24
ATOM     24  C   UNL     1      10.605  -8.331  32.169  0.00  0.00    +0.108 A 
ATOM     25  C   UNL     1      11.081  -9.629  32.147  0.00  0.00    +0.029 A 
ATOM     26  C   UNL     1       9.282  -8.047  32.459  0.00  0.00    +0.029 A 
ATOM     27  C   UNL     1      10.206 -10.679  32.422  0.00  0.00    +0.002 A 
ATOM     28  C   UNL     1       8.406  -9.098  32.734  0.00  0.00    +0.002 A 
ATOM     29  C   UNL     1       8.869 -10.415  32.716  0.00  0.00    +0.000 A 
ENDBRANCH   1  24
ENDBRANCH  10   1
ENDBRANCH  21  10
TORSDOF 5
ENDMDL
MODEL 5
REMARK VINA RESULT:       1.5      1.702      2.193
REMARK  Name = 11867156
REMARK  5 active torsions:
REMARK  status: ('A' for Active; 'I' for Inactive)
REMARK    1  A    between atoms: S_1  and  N_10
REMARK    2  A    between atoms: S_1  and  C_24
REMARK    3  A    between atoms: O_4  and  C_23
REMARK    4  A    between atoms: N_10  and  C_21
REMARK    5  A    between atoms: C_20  and  C_23
REMARK                            x       y       z     vdW  Elec       q    Type
REMARK                         _______ _______ _______ _____ _____    ______ ____
ROOT
ATOM      2  O   UNL     1      -0.143   1.530  26.729  0.00  0.00    -0.266 OA
ATOM      3  O   UNL     1      -4.667   1.795  23.446  0.00  0.00    -0.263 OA
ATOM      8  N   UNL     1      -1.346   3.280  25.740  0.00  0.00    -0.310 N 
ATOM      9  N   UNL     1      -4.476   3.508  25.026  0.00  0.00    -0.291 N 
ATOM     11  C   UNL     1      -3.226   4.534  26.937  0.00  0.00    +0.027 C 
ATOM     12  C   UNL     1      -2.636   5.139  24.630  0.00  0.00    +0.054 C 
ATOM     13  C   UNL     1      -2.841   5.699  26.034  0.00  0.00    +0.018 C 
ATOM     14  C   UNL     1      -2.055   3.545  26.996  0.00  0.00    +0.130 C 
ATOM     15  C   UNL     1      -4.523   3.863  26.446  0.00  0.00    +0.113 C 
ATOM     16  C   UNL     1      -3.959   4.538  24.122  0.00  0.00    +0.118 C 
ATOM     17  C   UNL     1      -1.548   4.082  24.609  0.00  0.00    +0.027 A 
ATOM     18  C   UNL     1      -0.802   3.901  23.503  0.00  0.00    +0.024 A 
ATOM     19  C   UNL     1      -0.378   2.254  25.763  0.00  0.00    +0.274 A 
ATOM     20  C   UNL     1      -5.001   2.335  24.495  0.00  0.00    +0.324 C 
ATOM     21  C   UNL     1       0.395   2.088  24.506  0.00  0.00    +0.112 A 
ATOM     22  C   UNL     1       0.201   2.872  23.446  0.00  0.00    +0.031 A 
ENDROOT
BRANCH  20  23
ATOM      5  O   UNL     1      -5.882   0.821  26.092  0.00  0.00    -0.240 OA
ATOM     23  C   UNL     1      -6.088   1.561  25.151  0.00  0.00    +0.392 C 
BRANCH  23   4
ATOM      4  O   UNL     1      -7.252   1.830  24.545  0.00  0.00    -0.474 OA
ATOM     31  H   UNL     1      -7.245   1.574  23.598  0.00  0.00    +0.296 HD
ENDBRANCH  23   4
ENDBRANCH  20  23
BRANCH  21  10
ATOM     10  N   UNL     1       1.381   1.090  24.408  0.00  0.00    -0.211 N 
ATOM     30  H   UNL     1       2.319   1.472  24.222  0.00  0.00    +0.174 HD
BRANCH  10   1
ATOM      1  S   UNL     1       0.992  -0.293  23.513  0.00  0.00    +0.072 S 
ATOM      6  O   UNL     1       0.751   0.073  22.130  0.00  0.00    -0.150 OA
ATOM      7  O   UNL     1       1.918  -1.361  23.835  0.00  0.00    -0.150 OA
BRANCH   1  24
ATOM     24  C   UNL     1      -0.571  -0.716  24.225  0.00  0.00    +0.108 A 
ATOM     25  C   UNL     1      -1.731  -0.248  23.635  0.00  0.00    +0.029 A 
ATOM     26  C   UNL     1      -0.602  -1.507  25.360  0.00  0.00    +0.029 A 
ATOM     27  C   UNL     1      -2.963  -0.580  24.197  0.00  0.00    +0.002 A 
ATOM     28  C   UNL     1      -1.834  -1.840  25.923  0.00  0.00    +0.002 A 
ATOM     29  C   UNL     1      -3.015  -1.377  25.341  0.00  0.00    +0.000 A 
ENDBRANCH   1  24
ENDBRANCH  10   1
ENDBRANCH  21  10
TORSDOF 5
ENDMDL
MODEL 6
REMARK VINA RESULT:       1.8     18.068     20.467
REMARK  Name = 11867156
REMARK  5 active torsions:
REMARK  status: ('A' for Active; 'I' for Inactive)
REMARK    1  A    between atoms: S_1  and  N_10
REMARK    2  A    between atoms: S_1  and  C_24
REMARK    3  A    between atoms: O_4  and  C_23
REMARK    4  A    between atoms: N_10  and  C_21
REMARK    5  A    between atoms: C_20  and  C_23
REMARK                            x       y       z     vdW  Elec       q    Type
REMARK                         _______ _______ _______ _____ _____    ______ ____
ROOT
ATOM      2  O   UNL     1      12.381  -5.134  30.018  0.00  0.00    -0.266 OA
ATOM      3  O   UNL     1      15.749  -9.534  29.237  0.00  0.00    -0.263 OA
ATOM      8  N   UNL     1      14.625  -5.585  30.519  0.00  0.00    -0.310 N 
ATOM      9  N   UNL     1      16.763  -7.442  28.990  0.00  0.00    -0.291 N 
ATOM     11  C   UNL     1      16.558  -4.947  28.971  0.00  0.00    +0.027 C 
ATOM     12  C   UNL     1      17.023  -6.116  31.082  0.00  0.00    +0.054 C 
ATOM     13  C   UNL     1      17.384  -4.889  30.250  0.00  0.00    +0.018 C 
ATOM     14  C   UNL     1      15.072  -4.841  29.337  0.00  0.00    +0.130 C 
ATOM     15  C   UNL     1      16.866  -6.229  28.175  0.00  0.00    +0.113 C 
ATOM     16  C   UNL     1      17.405  -7.389  30.306  0.00  0.00    +0.118 C 
ATOM     17  C   UNL     1      15.545  -6.141  31.419  0.00  0.00    +0.027 A 
ATOM     18  C   UNL     1      15.120  -6.716  32.560  0.00  0.00    +0.024 A 
ATOM     19  C   UNL     1      13.235  -5.618  30.759  0.00  0.00    +0.274 A 
ATOM     20  C   UNL     1      16.222  -8.642  28.541  0.00  0.00    +0.324 C 
ATOM     21  C   UNL     1      12.828  -6.286  32.021  0.00  0.00    +0.112 A 
ATOM     22  C   UNL     1      13.719  -6.794  32.873  0.00  0.00    +0.031 A 
ENDROOT
BRANCH  20  23
ATOM      5  O   UNL     1      15.188  -8.779  26.413  0.00  0.00    -0.240 OA
ATOM     23  C   UNL     1      16.158  -9.017  27.104  0.00  0.00    +0.392 C 
BRANCH  23   4
ATOM      4  O   UNL     1      17.300  -9.622  26.752  0.00  0.00    -0.474 OA
ATOM     31  H   UNL     1      18.091  -9.108  27.024  0.00  0.00    +0.296 HD
ENDBRANCH  23   4
ENDBRANCH  20  23
BRANCH  21  10
ATOM     10  N   UNL     1      11.467  -6.387  32.362  0.00  0.00    -0.211 N 
ATOM     30  H   UNL     1      11.279  -6.115  33.337  0.00  0.00    +0.174 HD
BRANCH  10   1
ATOM      1  S   UNL     1      10.644  -7.773  31.844  0.00  0.00    +0.072 S 
ATOM      6  O   UNL     1       9.714  -8.201  32.871  0.00  0.00    -0.150 OA
ATOM      7  O   UNL     1      10.191  -7.590  30.478  0.00  0.00    -0.150 OA
BRANCH   1  24
ATOM     24  C   UNL     1      11.967  -8.946  31.810  0.00  0.00    +0.108 A 
ATOM     25  C   UNL     1      12.125  -9.817  32.872  0.00  0.00    +0.029 A 
ATOM     26  C   UNL     1      12.819  -8.970  30.719  0.00  0.00    +0.029 A 
ATOM     27  C   UNL     1      13.168 -10.742  32.846  0.00  0.00    +0.002 A 
ATOM     28  C   UNL     1      13.863  -9.894  30.692  0.00  0.00    +0.002 A 
ATOM     29  C   UNL     1      14.038 -10.781  31.756  0.00  0.00    +0.000 A 
ENDBRANCH   1  24
ENDBRANCH  10   1
ENDBRANCH  21  10
TORSDOF 5
ENDMDL
MODEL 7
REMARK VINA RESULT:       2.3      2.073      5.304
REMARK  Name = 11867156
REMARK  5 active torsions:
REMARK  status: ('A' for Active; 'I' for Inactive)
REMARK    1  A    between atoms: S_1  and  N_10
REMARK    2  A    between atoms: S_1  and  C_24
REMARK    3  A    between atoms: O_4  and  C_23
REMARK    4  A    between atoms: N_10  and  C_21
REMARK    5  A    between atoms: C_20  and  C_23
REMARK                            x       y       z     vdW  Elec       q    Type
REMARK                         _______ _______ _______ _____ _____    ______ ____
ROOT
ATOM      2  O   UNL     1      -4.044   3.070  22.898  0.00  0.00    -0.266 OA
ATOM      3  O   UNL     1      -1.097  -0.253  26.302  0.00  0.00    -0.263 OA
ATOM      8  N   UNL     1      -2.241   3.407  24.355  0.00  0.00    -0.310 N 
ATOM      9  N   UNL     1       0.133   1.415  25.221  0.00  0.00    -0.291 N 
ATOM     11  C   UNL     1       0.201   3.322  23.601  0.00  0.00    +0.027 C 
ATOM     12  C   UNL     1      -0.329   3.747  25.962  0.00  0.00    +0.054 C 
ATOM     13  C   UNL     1       0.452   4.274  24.762  0.00  0.00    +0.018 C 
ATOM     14  C   UNL     1      -1.290   3.362  23.240  0.00  0.00    +0.130 C 
ATOM     15  C   UNL     1       0.671   1.896  23.947  0.00  0.00    +0.113 C 
ATOM     16  C   UNL     1       0.201   2.353  26.344  0.00  0.00    +0.118 C 
ATOM     17  C   UNL     1      -1.815   3.670  25.665  0.00  0.00    +0.027 A 
ATOM     18  C   UNL     1      -2.713   3.826  26.655  0.00  0.00    +0.024 A 
ATOM     19  C   UNL     1      -3.608   3.282  24.028  0.00  0.00    +0.274 A 
ATOM     20  C   UNL     1      -0.301   0.112  25.445  0.00  0.00    +0.324 C 
ATOM     21  C   UNL     1      -4.547   3.441  25.167  0.00  0.00    +0.112 A 
ATOM     22  C   UNL     1      -4.123   3.707  26.403  0.00  0.00    +0.031 A 
ENDROOT
BRANCH  20  23
ATOM      5  O   UNL     1       0.256  -1.019  23.438  0.00  0.00    -0.240 OA
ATOM     23  C   UNL     1       0.174  -1.050  24.650  0.00  0.00    +0.392 C 
BRANCH  23   4
ATOM      4  O   UNL     1       0.474  -2.060  25.477  0.00  0.00    -0.474 OA
ATOM     31  H   UNL     1       1.219  -2.604  25.144  0.00  0.00    +0.296 HD
ENDBRANCH  23   4
ENDBRANCH  20  23
BRANCH  21  10
ATOM     10  N   UNL     1      -5.934   3.327  24.963  0.00  0.00    -0.211 N 
ATOM     30  H   UNL     1      -6.449   4.173  25.241  0.00  0.00    +0.174 HD
BRANCH  10   1
ATOM      1  S   UNL     1      -6.664   1.872  25.426  0.00  0.00    +0.072 S 
ATOM      6  O   UNL     1      -6.879   1.869  26.861  0.00  0.00    -0.150 OA
ATOM      7  O   UNL     1      -7.756   1.563  24.523  0.00  0.00    -0.150 OA
BRANCH   1  24
ATOM     24  C   UNL     1      -5.358   0.728  25.088  0.00  0.00    +0.108 A 
ATOM     25  C   UNL     1      -4.995   0.487  23.775  0.00  0.00    +0.029 A 
ATOM     26  C   UNL     1      -4.725   0.095  26.143  0.00  0.00    +0.029 A 
ATOM     27  C   UNL     1      -3.967  -0.416  23.508  0.00  0.00    +0.002 A 
ATOM     28  C   UNL     1      -3.696  -0.807  25.877  0.00  0.00    +0.002 A 
ATOM     29  C   UNL     1      -3.317  -1.063  24.558  0.00  0.00    +0.000 A 
ENDBRANCH   1  24
ENDBRANCH  10   1
ENDBRANCH  21  10
TORSDOF 5
ENDMDL
MODEL 8
REMARK VINA RESULT:       2.3      2.446      4.397
REMARK  Name = 11867156
REMARK  5 active torsions:
REMARK  status: ('A' for Active; 'I' for Inactive)
REMARK    1  A    between atoms: S_1  and  N_10
REMARK    2  A    between atoms: S_1  and  C_24
REMARK    3  A    between atoms: O_4  and  C_23
REMARK    4  A    between atoms: N_10  and  C_21
REMARK    5  A    between atoms: C_20  and  C_23
REMARK                            x       y       z     vdW  Elec       q    Type
REMARK                         _______ _______ _______ _____ _____    ______ ____
ROOT
ATOM      2  O   UNL     1      -3.482   0.293  22.270  0.00  0.00    -0.266 OA
ATOM      3  O   UNL     1      -1.138   2.520  26.838  0.00  0.00    -0.263 OA
ATOM      8  N   UNL     1      -4.185   1.846  23.878  0.00  0.00    -0.310 N 
ATOM      9  N   UNL     1      -2.486   3.971  25.597  0.00  0.00    -0.291 N 
ATOM     11  C   UNL     1      -3.924   4.373  23.587  0.00  0.00    +0.027 C 
ATOM     12  C   UNL     1      -4.927   3.482  25.646  0.00  0.00    +0.054 C 
ATOM     13  C   UNL     1      -5.139   4.467  24.500  0.00  0.00    +0.018 C 
ATOM     14  C   UNL     1      -3.865   2.964  22.984  0.00  0.00    +0.130 C 
ATOM     15  C   UNL     1      -2.633   4.727  24.351  0.00  0.00    +0.113 C 
ATOM     16  C   UNL     1      -3.677   3.890  26.446  0.00  0.00    +0.118 C 
ATOM     17  C   UNL     1      -4.770   2.063  25.133  0.00  0.00    +0.027 A 
ATOM     18  C   UNL     1      -5.167   1.022  25.889  0.00  0.00    +0.024 A 
ATOM     19  C   UNL     1      -3.974   0.547  23.369  0.00  0.00    +0.274 A 
ATOM     20  C   UNL     1      -1.279   3.458  26.062  0.00  0.00    +0.324 C 
ATOM     21  C   UNL     1      -4.410  -0.559  24.259  0.00  0.00    +0.112 A 
ATOM     22  C   UNL     1      -4.981  -0.332  25.442  0.00  0.00    +0.031 A 
ENDROOT
BRANCH  20  23
ATOM      5  O   UNL     1       0.156   4.956  24.915  0.00  0.00    -0.240 OA
ATOM     23  C   UNL     1       0.043   4.012  25.672  0.00  0.00    +0.392 C 
BRANCH  23   4
ATOM      4  O   UNL     1       1.012   3.316  26.281  0.00  0.00    -0.474 OA
ATOM     31  H   UNL     1       0.943   2.354  26.109  0.00  0.00    +0.296 HD
ENDBRANCH  23   4
ENDBRANCH  20  23
BRANCH  21  10
ATOM     10  N   UNL     1      -4.242  -1.897  23.861  0.00  0.00    -0.211 N 
ATOM     30  H   UNL     1      -5.131  -2.414  23.814  0.00  0.00    +0.174 HD
BRANCH  10   1
ATOM      1  S   UNL     1      -2.963  -2.754  24.563  0.00  0.00    +0.072 S 
ATOM      6  O   UNL     1      -3.262  -3.023  25.957  0.00  0.00    -0.150 OA
ATOM      7  O   UNL     1      -2.554  -3.832  23.682  0.00  0.00    -0.150 OA
BRANCH   1  24
ATOM     24  C   UNL     1      -1.687  -1.529  24.525  0.00  0.00    +0.108 A 
ATOM     25  C   UNL     1      -1.528  -0.686  25.610  0.00  0.00    +0.029 A 
ATOM     26  C   UNL     1      -0.873  -1.439  23.410  0.00  0.00    +0.029 A 
ATOM     27  C   UNL     1      -0.524   0.280  25.579  0.00  0.00    +0.002 A 
ATOM     28  C   UNL     1       0.133  -0.472  23.379  0.00  0.00    +0.002 A 
ATOM     29  C   UNL     1       0.308   0.388  24.465  0.00  0.00    +0.000 A 
ENDBRANCH   1  24
ENDBRANCH  10   1
ENDBRANCH  21  10
TORSDOF 5
ENDMDL
MODEL 9
REMARK VINA RESULT:       2.4      3.543      5.388
REMARK  Name = 11867156
REMARK  5 active torsions:
REMARK  status: ('A' for Active; 'I' for Inactive)
REMARK    1  A    between atoms: S_1  and  N_10
REMARK    2  A    between atoms: S_1  and  C_24
REMARK    3  A    between atoms: O_4  and  C_23
REMARK    4  A    between atoms: N_10  and  C_21
REMARK    5  A    between atoms: C_20  and  C_23
REMARK                            x       y       z     vdW  Elec       q    Type
REMARK                         _______ _______ _______ _____ _____    ______ ____
ROOT
ATOM      2  O   UNL     1      -0.460   0.714  22.097  0.00  0.00    -0.266 OA
ATOM      3  O   UNL     1      -1.572   3.497  26.822  0.00  0.00    -0.263 OA
ATOM      8  N   UNL     1      -2.190   0.632  23.675  0.00  0.00    -0.310 N 
ATOM      9  N   UNL     1      -3.435   2.960  25.517  0.00  0.00    -0.291 N 
ATOM     11  C   UNL     1      -4.371   1.947  23.427  0.00  0.00    +0.027 C 
ATOM     12  C   UNL     1      -4.015   0.541  25.411  0.00  0.00    +0.054 C 
ATOM     13  C   UNL     1      -4.980   0.831  24.265  0.00  0.00    +0.018 C 
ATOM     14  C   UNL     1      -3.057   1.445  22.814  0.00  0.00    +0.130 C 
ATOM     15  C   UNL     1      -4.162   3.218  24.272  0.00  0.00    +0.113 C 
ATOM     16  C   UNL     1      -3.875   1.796  26.290  0.00  0.00    +0.118 C 
ATOM     17  C   UNL     1      -2.653   0.118  24.894  0.00  0.00    +0.027 A 
ATOM     18  C   UNL     1      -1.887  -0.723  25.613  0.00  0.00    +0.024 A 
ATOM     19  C   UNL     1      -0.915   0.309  23.166  0.00  0.00    +0.274 A 
ATOM     20  C   UNL     1      -2.470   3.809  26.049  0.00  0.00    +0.324 C 
ATOM     21  C   UNL     1      -0.109  -0.604  24.016  0.00  0.00    +0.112 A 
ATOM     22  C   UNL     1      -0.573  -1.097  25.164  0.00  0.00    +0.031 A 
ENDROOT
BRANCH  20  23
ATOM      5  O   UNL     1      -1.572   5.741  25.011  0.00  0.00    -0.240 OA
ATOM     23  C   UNL     1      -2.412   5.263  25.747  0.00  0.00    +0.392 C 
BRANCH  23   4
ATOM      4  O   UNL     1      -3.401   5.891  26.398  0.00  0.00    -0.474 OA
ATOM     31  H   UNL     1      -3.185   6.044  27.342  0.00  0.00    +0.296 HD
ENDBRANCH  23   4
ENDBRANCH  20  23
BRANCH  21  10
ATOM     10  N   UNL     1       1.183  -0.989  23.614  0.00  0.00    -0.211 N 
ATOM     30  H   UNL     1       1.706  -1.468  24.360  0.00  0.00    +0.174 HD
BRANCH  10   1
ATOM      1  S   UNL     1       2.084   0.140  22.733  0.00  0.00    +0.072 S 
ATOM      6  O   UNL     1       2.016  -0.177  21.319  0.00  0.00    -0.150 OA
ATOM      7  O   UNL     1       1.778   1.480  23.197  0.00  0.00    -0.150 OA
BRANCH   1  24
ATOM     24  C   UNL     1       3.721  -0.247  23.281  0.00  0.00    +0.108 A 
ATOM     25  C   UNL     1       4.700   0.727  23.223  0.00  0.00    +0.029 A 
ATOM     26  C   UNL     1       3.989  -1.518  23.758  0.00  0.00    +0.029 A 
ATOM     27  C   UNL     1       5.991   0.421  23.654  0.00  0.00    +0.002 A 
ATOM     28  C   UNL     1       5.279  -1.825  24.189  0.00  0.00    +0.002 A 
ATOM     29  C   UNL     1       6.281  -0.854  24.138  0.00  0.00    +0.000 A 
ENDBRANCH   1  24
ENDBRANCH  10   1
ENDBRANCH  21  10
TORSDOF 5
ENDMDL
