MODEL 1
REMARK VINA RESULT:      -3.6      0.000      0.000
REMARK  Name = 75536666
REMARK  10 active torsions:
REMARK  status: ('A' for Active; 'I' for Inactive)
REMARK    1  A    between atoms: S_1  and  N_10
REMARK    2  A    between atoms: S_1  and  C_20
REMARK    3  A    between atoms: S_2  and  C_21
REMARK    4  A    between atoms: S_2  and  C_24
REMARK    5  A    between atoms: O_4  and  C_12
REMARK    6  A    between atoms: N_9  and  C_11
REMARK    7  A    between atoms: N_9  and  C_16
REMARK    8  A    between atoms: N_10  and  C_15
REMARK    9  A    between atoms: C_13  and  C_15
REMARK   10  A    between atoms: C_16  and  C_17
REMARK                            x       y       z     vdW  Elec       q    Type
REMARK                         _______ _______ _______ _____ _____    ______ ____
ROOT
ATOM      3  O   UNL     1       0.812  -0.595  23.116  0.00  0.00    -0.371 OA
ATOM     11  C   UNL     1       0.878   1.238  24.625  0.00  0.00    +0.111 C 
ATOM     12  C   UNL     1      -0.380   0.429  24.883  0.00  0.00    +0.164 C 
ATOM     13  C   UNL     1      -0.004  -0.907  24.257  0.00  0.00    +0.164 C 
ATOM     14  C   UNL     1       1.256   0.768  23.230  0.00  0.00    +0.181 C 
ENDROOT
BRANCH  12   4
ATOM      4  O   UNL     1      -0.676   0.302  26.260  0.00  0.00    -0.388 OA
ATOM     26  H   UNL     1      -0.525  -0.623  26.521  0.00  0.00    +0.210 HD
ENDBRANCH  12   4
BRANCH  11   9
ATOM      9  N   UNL     1       0.672   2.675  24.701  0.00  0.00    -0.305 NA
ATOM     25  H   UNL     1       1.562   3.148  24.541  0.00  0.00    +0.123 HD
BRANCH   9  16
ATOM     16  C   UNL     1      -0.287   3.122  23.697  0.00  0.00    +0.116 C 
BRANCH  16  17
ATOM     17  C   UNL     1      -1.696   3.115  24.225  0.00  0.00    -0.033 A 
ATOM     18  C   UNL     1      -1.988   3.725  25.444  0.00  0.00    +0.007 A 
ATOM     19  C   UNL     1      -2.710   2.496  23.494  0.00  0.00    +0.007 A 
ATOM     21  C   UNL     1      -4.309   3.100  25.202  0.00  0.00    +0.088 A 
ATOM     22  C   UNL     1      -3.294   3.718  25.933  0.00  0.00    +0.027 A 
ATOM     23  C   UNL     1      -4.018   2.489  23.983  0.00  0.00    +0.027 A 
BRANCH  21   2
ATOM      2  S   UNL     1      -5.944   3.088  25.815  0.00  0.00    -0.006 S 
ATOM      7  O   UNL     1      -5.950   2.459  27.129  0.00  0.00    -0.170 OA
ATOM      8  O   UNL     1      -6.495   4.425  25.651  0.00  0.00    -0.170 OA
ATOM     24  C   UNL     1      -6.820   1.997  24.717  0.00  0.00    +0.200 C 
ENDBRANCH  21   2
ENDBRANCH  16  17
ENDBRANCH   9  16
ENDBRANCH  11   9
BRANCH  13  15
ATOM     15  C   UNL     1      -1.204  -1.728  23.821  0.00  0.00    +0.139 C 
BRANCH  15  10
ATOM     10  N   UNL     1      -2.419  -0.892  23.868  0.00  0.00    -0.192 NA
ATOM     27  H   UNL     1      -2.642  -0.445  22.968  0.00  0.00    +0.148 HD
BRANCH  10   1
ATOM      1  S   UNL     1      -3.750  -1.411  24.801  0.00  0.00    +0.027 S 
ATOM      5  O   UNL     1      -4.985  -0.949  24.198  0.00  0.00    -0.158 OA
ATOM      6  O   UNL     1      -3.462  -1.146  26.198  0.00  0.00    -0.158 OA
ATOM     20  C   UNL     1      -3.650  -3.170  24.563  0.00  0.00    +0.214 C 
ENDBRANCH  10   1
ENDBRANCH  15  10
ENDBRANCH  13  15
TORSDOF 8
ENDMDL
MODEL 2
REMARK VINA RESULT:      -3.1     14.060     16.811
REMARK  Name = 75536666
REMARK  10 active torsions:
REMARK  status: ('A' for Active; 'I' for Inactive)
REMARK    1  A    between atoms: S_1  and  N_10
REMARK    2  A    between atoms: S_1  and  C_20
REMARK    3  A    between atoms: S_2  and  C_21
REMARK    4  A    between atoms: S_2  and  C_24
REMARK    5  A    between atoms: O_4  and  C_12
REMARK    6  A    between atoms: N_9  and  C_11
REMARK    7  A    between atoms: N_9  and  C_16
REMARK    8  A    between atoms: N_10  and  C_15
REMARK    9  A    between atoms: C_13  and  C_15
REMARK   10  A    between atoms: C_16  and  C_17
REMARK                            x       y       z     vdW  Elec       q    Type
REMARK                         _______ _______ _______ _____ _____    ______ ____
ROOT
ATOM      3  O   UNL     1      -4.147 -10.430  17.369  0.00  0.00    -0.371 OA
ATOM     11  C   UNL     1      -4.238 -10.103  15.018  0.00  0.00    +0.111 C 
ATOM     12  C   UNL     1      -5.650 -10.270  15.550  0.00  0.00    +0.164 C 
ATOM     13  C   UNL     1      -5.451  -9.934  17.022  0.00  0.00    +0.164 C 
ATOM     14  C   UNL     1      -3.418 -10.687  16.157  0.00  0.00    +0.181 C 
ENDROOT
BRANCH  12   4
ATOM      4  O   UNL     1      -6.574  -9.397  14.931  0.00  0.00    -0.388 OA
ATOM     26  H   UNL     1      -6.288  -8.482  15.096  0.00  0.00    +0.210 HD
ENDBRANCH  12   4
BRANCH  11   9
ATOM      9  N   UNL     1      -4.009 -10.778  13.752  0.00  0.00    -0.305 NA
ATOM     25  H   UNL     1      -4.796 -11.399  13.558  0.00  0.00    +0.123 HD
BRANCH   9  16
ATOM     16  C   UNL     1      -3.888  -9.819  12.660  0.00  0.00    +0.116 C 
BRANCH  16  17
ATOM     17  C   UNL     1      -5.120  -9.793  11.796  0.00  0.00    -0.033 A 
ATOM     18  C   UNL     1      -5.200 -10.613  10.671  0.00  0.00    +0.007 A 
ATOM     19  C   UNL     1      -6.181  -8.948  12.120  0.00  0.00    +0.007 A 
ATOM     21  C   UNL     1      -7.404  -9.745  10.195  0.00  0.00    +0.088 A 
ATOM     22  C   UNL     1      -6.342 -10.589   9.870  0.00  0.00    +0.027 A 
ATOM     23  C   UNL     1      -7.324  -8.924  11.319  0.00  0.00    +0.027 A 
BRANCH  21   2
ATOM      2  S   UNL     1      -8.832  -9.712   9.191  0.00  0.00    -0.006 S 
ATOM      7  O   UNL     1      -8.689 -10.705   8.135  0.00  0.00    -0.170 OA
ATOM      8  O   UNL     1      -9.996  -9.749  10.065  0.00  0.00    -0.170 OA
ATOM     24  C   UNL     1      -8.787  -8.116   8.409  0.00  0.00    +0.200 C 
ENDBRANCH  21   2
ENDBRANCH  16  17
ENDBRANCH   9  16
ENDBRANCH  11   9
BRANCH  13  15
ATOM     15  C   UNL     1      -6.496 -10.560  17.928  0.00  0.00    +0.139 C 
BRANCH  15  10
ATOM     10  N   UNL     1      -7.492  -9.542  18.312  0.00  0.00    -0.192 NA
ATOM     27  H   UNL     1      -7.077  -8.624  18.526  0.00  0.00    +0.148 HD
BRANCH  10   1
ATOM      1  S   UNL     1      -9.004  -9.518  17.521  0.00  0.00    +0.027 S 
ATOM      5  O   UNL     1      -8.991 -10.447  16.407  0.00  0.00    -0.158 OA
ATOM      6  O   UNL     1      -9.401  -8.136  17.331  0.00  0.00    -0.158 OA
ATOM     20  C   UNL     1     -10.047 -10.200  18.790  0.00  0.00    +0.214 C 
ENDBRANCH  10   1
ENDBRANCH  15  10
ENDBRANCH  13  15
TORSDOF 8
ENDMDL
MODEL 3
REMARK VINA RESULT:      -2.7      2.624      4.872
REMARK  Name = 75536666
REMARK  10 active torsions:
REMARK  status: ('A' for Active; 'I' for Inactive)
REMARK    1  A    between atoms: S_1  and  N_10
REMARK    2  A    between atoms: S_1  and  C_20
REMARK    3  A    between atoms: S_2  and  C_21
REMARK    4  A    between atoms: S_2  and  C_24
REMARK    5  A    between atoms: O_4  and  C_12
REMARK    6  A    between atoms: N_9  and  C_11
REMARK    7  A    between atoms: N_9  and  C_16
REMARK    8  A    between atoms: N_10  and  C_15
REMARK    9  A    between atoms: C_13  and  C_15
REMARK   10  A    between atoms: C_16  and  C_17
REMARK                            x       y       z     vdW  Elec       q    Type
REMARK                         _______ _______ _______ _____ _____    ______ ____
ROOT
ATOM      3  O   UNL     1      -0.545   5.042  24.440  0.00  0.00    -0.371 OA
ATOM     11  C   UNL     1      -2.275   4.331  25.904  0.00  0.00    +0.111 C 
ATOM     12  C   UNL     1      -1.497   3.117  25.431  0.00  0.00    +0.164 C 
ATOM     13  C   UNL     1      -0.191   3.761  24.986  0.00  0.00    +0.164 C 
ATOM     14  C   UNL     1      -1.881   5.365  24.862  0.00  0.00    +0.181 C 
ENDROOT
BRANCH  12   4
ATOM      4  O   UNL     1      -1.294   2.165  26.456  0.00  0.00    -0.388 OA
ATOM     26  H   UNL     1      -0.408   2.304  26.832  0.00  0.00    +0.210 HD
ENDBRANCH  12   4
BRANCH  11   9
ATOM      9  N   UNL     1      -3.711   4.114  25.970  0.00  0.00    -0.305 NA
ATOM     25  H   UNL     1      -4.174   5.002  26.168  0.00  0.00    +0.123 HD
BRANCH   9  16
ATOM     16  C   UNL     1      -4.221   3.587  24.709  0.00  0.00    +0.116 C 
BRANCH  16  17
ATOM     17  C   UNL     1      -4.064   2.093  24.621  0.00  0.00    -0.033 A 
ATOM     18  C   UNL     1      -4.629   1.272  25.597  0.00  0.00    +0.007 A 
ATOM     19  C   UNL     1      -3.351   1.529  23.563  0.00  0.00    +0.007 A 
ATOM     21  C   UNL     1      -3.770  -0.677  24.456  0.00  0.00    +0.088 A 
ATOM     22  C   UNL     1      -4.483  -0.112  25.515  0.00  0.00    +0.027 A 
ATOM     23  C   UNL     1      -3.205   0.143  23.480  0.00  0.00    +0.027 A 
BRANCH  21   2
ATOM      2  S   UNL     1      -3.584  -2.410  24.354  0.00  0.00    -0.006 S 
ATOM      7  O   UNL     1      -3.625  -2.968  25.699  0.00  0.00    -0.170 OA
ATOM      8  O   UNL     1      -4.505  -2.902  23.340  0.00  0.00    -0.170 OA
ATOM     24  C   UNL     1      -1.929  -2.642  23.748  0.00  0.00    +0.200 C 
ENDBRANCH  21   2
ENDBRANCH  16  17
ENDBRANCH   9  16
ENDBRANCH  11   9
BRANCH  13  15
ATOM     15  C   UNL     1       0.556   2.947  23.945  0.00  0.00    +0.139 C 
BRANCH  15  10
ATOM     10  N   UNL     1       0.872   1.613  24.490  0.00  0.00    -0.192 NA
ATOM     27  H   UNL     1       0.613   1.505  25.480  0.00  0.00    +0.148 HD
BRANCH  10   1
ATOM      1  S   UNL     1       0.658   0.239  23.501  0.00  0.00    +0.027 S 
ATOM      5  O   UNL     1      -0.273   0.542  22.431  0.00  0.00    -0.158 OA
ATOM      6  O   UNL     1       0.455  -0.915  24.357  0.00  0.00    -0.158 OA
ATOM     20  C   UNL     1       2.281   0.093  22.789  0.00  0.00    +0.214 C 
ENDBRANCH  10   1
ENDBRANCH  15  10
ENDBRANCH  13  15
TORSDOF 8
ENDMDL
MODEL 4
REMARK VINA RESULT:      -2.6      2.808      5.092
REMARK  Name = 75536666
REMARK  10 active torsions:
REMARK  status: ('A' for Active; 'I' for Inactive)
REMARK    1  A    between atoms: S_1  and  N_10
REMARK    2  A    between atoms: S_1  and  C_20
REMARK    3  A    between atoms: S_2  and  C_21
REMARK    4  A    between atoms: S_2  and  C_24
REMARK    5  A    between atoms: O_4  and  C_12
REMARK    6  A    between atoms: N_9  and  C_11
REMARK    7  A    between atoms: N_9  and  C_16
REMARK    8  A    between atoms: N_10  and  C_15
REMARK    9  A    between atoms: C_13  and  C_15
REMARK   10  A    between atoms: C_16  and  C_17
REMARK                            x       y       z     vdW  Elec       q    Type
REMARK                         _______ _______ _______ _____ _____    ______ ____
ROOT
ATOM      3  O   UNL     1       0.116   3.654  23.612  0.00  0.00    -0.371 OA
ATOM     11  C   UNL     1      -1.353   4.047  25.437  0.00  0.00    +0.111 C 
ATOM     12  C   UNL     1      -0.851   2.616  25.503  0.00  0.00    +0.164 C 
ATOM     13  C   UNL     1       0.407   2.705  24.651  0.00  0.00    +0.164 C 
ATOM     14  C   UNL     1      -1.052   4.403  23.991  0.00  0.00    +0.181 C 
ENDROOT
BRANCH  12   4
ATOM      4  O   UNL     1      -0.566   2.197  26.824  0.00  0.00    -0.388 OA
ATOM     26  H   UNL     1       0.391   2.287  26.973  0.00  0.00    +0.210 HD
ENDBRANCH  12   4
BRANCH  11   9
ATOM      9  N   UNL     1      -2.759   4.188  25.773  0.00  0.00    -0.305 NA
ATOM     25  H   UNL     1      -2.968   5.175  25.926  0.00  0.00    +0.123 HD
BRANCH   9  16
ATOM     16  C   UNL     1      -3.609   3.687  24.699  0.00  0.00    +0.116 C 
BRANCH  16  17
ATOM     17  C   UNL     1      -3.583   2.184  24.617  0.00  0.00    -0.033 A 
ATOM     18  C   UNL     1      -4.186   1.421  25.615  0.00  0.00    +0.007 A 
ATOM     19  C   UNL     1      -2.954   1.556  23.542  0.00  0.00    +0.007 A 
ATOM     21  C   UNL     1      -3.534  -0.601  24.464  0.00  0.00    +0.088 A 
ATOM     22  C   UNL     1      -4.162   0.028  25.540  0.00  0.00    +0.027 A 
ATOM     23  C   UNL     1      -2.930   0.163  23.465  0.00  0.00    +0.027 A 
BRANCH  21   2
ATOM      2  S   UNL     1      -3.500  -2.344  24.370  0.00  0.00    -0.006 S 
ATOM      7  O   UNL     1      -3.607  -2.891  25.716  0.00  0.00    -0.170 OA
ATOM      8  O   UNL     1      -4.448  -2.756  23.344  0.00  0.00    -0.170 OA
ATOM     24  C   UNL     1      -1.864  -2.724  23.787  0.00  0.00    +0.200 C 
ENDBRANCH  21   2
ENDBRANCH  16  17
ENDBRANCH   9  16
ENDBRANCH  11   9
BRANCH  13  15
ATOM     15  C   UNL     1       0.813   1.378  24.036  0.00  0.00    +0.139 C 
BRANCH  15  10
ATOM     10  N   UNL     1       2.155   1.500  23.435  0.00  0.00    -0.192 NA
ATOM     27  H   UNL     1       2.779   2.132  23.954  0.00  0.00    +0.148 HD
BRANCH  10   1
ATOM      1  S   UNL     1       2.885   0.120  22.745  0.00  0.00    +0.027 S 
ATOM      5  O   UNL     1       2.568   0.050  21.332  0.00  0.00    -0.158 OA
ATOM      6  O   UNL     1       2.641  -1.013  23.618  0.00  0.00    -0.158 OA
ATOM     20  C   UNL     1       4.604   0.548  22.900  0.00  0.00    +0.214 C 
ENDBRANCH  10   1
ENDBRANCH  15  10
ENDBRANCH  13  15
TORSDOF 8
ENDMDL
MODEL 5
REMARK VINA RESULT:      -2.5      2.781      6.590
REMARK  Name = 75536666
REMARK  10 active torsions:
REMARK  status: ('A' for Active; 'I' for Inactive)
REMARK    1  A    between atoms: S_1  and  N_10
REMARK    2  A    between atoms: S_1  and  C_20
REMARK    3  A    between atoms: S_2  and  C_21
REMARK    4  A    between atoms: S_2  and  C_24
REMARK    5  A    between atoms: O_4  and  C_12
REMARK    6  A    between atoms: N_9  and  C_11
REMARK    7  A    between atoms: N_9  and  C_16
REMARK    8  A    between atoms: N_10  and  C_15
REMARK    9  A    between atoms: C_13  and  C_15
REMARK   10  A    between atoms: C_16  and  C_17
REMARK                            x       y       z     vdW  Elec       q    Type
REMARK                         _______ _______ _______ _____ _____    ______ ____
ROOT
ATOM      3  O   UNL     1      -3.828   1.971  23.273  0.00  0.00    -0.371 OA
ATOM     11  C   UNL     1      -4.466   0.021  24.469  0.00  0.00    +0.111 C 
ATOM     12  C   UNL     1      -4.657   1.234  25.361  0.00  0.00    +0.164 C 
ATOM     13  C   UNL     1      -4.727   2.350  24.329  0.00  0.00    +0.164 C 
ATOM     14  C   UNL     1      -3.526   0.572  23.410  0.00  0.00    +0.181 C 
ENDROOT
BRANCH  12   4
ATOM      4  O   UNL     1      -5.836   1.160  26.139  0.00  0.00    -0.388 OA
ATOM     26  H   UNL     1      -6.351   1.972  25.991  0.00  0.00    +0.210 HD
ENDBRANCH  12   4
BRANCH  11   9
ATOM      9  N   UNL     1      -3.922  -1.134  25.164  0.00  0.00    -0.305 NA
ATOM     25  H   UNL     1      -3.597  -1.814  24.475  0.00  0.00    +0.123 HD
BRANCH   9  16
ATOM     16  C   UNL     1      -2.802  -0.754  26.016  0.00  0.00    +0.116 C 
BRANCH  16  17
ATOM     17  C   UNL     1      -1.543  -0.530  25.222  0.00  0.00    -0.033 A 
ATOM     18  C   UNL     1      -0.992  -1.574  24.479  0.00  0.00    +0.007 A 
ATOM     19  C   UNL     1      -0.928   0.722  25.230  0.00  0.00    +0.007 A 
ATOM     21  C   UNL     1       0.790  -0.113  23.750  0.00  0.00    +0.088 A 
ATOM     22  C   UNL     1       0.175  -1.366  23.743  0.00  0.00    +0.027 A 
ATOM     23  C   UNL     1       0.239   0.930  24.493  0.00  0.00    +0.027 A 
BRANCH  21   2
ATOM      2  S   UNL     1       2.252   0.146  22.832  0.00  0.00    -0.006 S 
ATOM      7  O   UNL     1       1.997  -0.184  21.436  0.00  0.00    -0.170 OA
ATOM      8  O   UNL     1       2.774   1.460  23.180  0.00  0.00    -0.170 OA
ATOM     24  C   UNL     1       3.386  -1.075  23.451  0.00  0.00    +0.200 C 
ENDBRANCH  21   2
ENDBRANCH  16  17
ENDBRANCH   9  16
ENDBRANCH  11   9
BRANCH  13  15
ATOM     15  C   UNL     1      -4.327   3.707  24.881  0.00  0.00    +0.139 C 
BRANCH  15  10
ATOM     10  N   UNL     1      -3.090   4.166  24.222  0.00  0.00    -0.192 NA
ATOM     27  H   UNL     1      -3.261   4.789  23.421  0.00  0.00    +0.148 HD
BRANCH  10   1
ATOM      1  S   UNL     1      -1.723   4.526  25.178  0.00  0.00    +0.027 S 
ATOM      5  O   UNL     1      -1.668   3.630  26.317  0.00  0.00    -0.158 OA
ATOM      6  O   UNL     1      -1.658   5.964  25.361  0.00  0.00    -0.158 OA
ATOM     20  C   UNL     1      -0.415   4.073  24.062  0.00  0.00    +0.214 C 
ENDBRANCH  10   1
ENDBRANCH  15  10
ENDBRANCH  13  15
TORSDOF 8
ENDMDL
MODEL 6
REMARK VINA RESULT:      -2.5      2.556      5.905
REMARK  Name = 75536666
REMARK  10 active torsions:
REMARK  status: ('A' for Active; 'I' for Inactive)
REMARK    1  A    between atoms: S_1  and  N_10
REMARK    2  A    between atoms: S_1  and  C_20
REMARK    3  A    between atoms: S_2  and  C_21
REMARK    4  A    between atoms: S_2  and  C_24
REMARK    5  A    between atoms: O_4  and  C_12
REMARK    6  A    between atoms: N_9  and  C_11
REMARK    7  A    between atoms: N_9  and  C_16
REMARK    8  A    between atoms: N_10  and  C_15
REMARK    9  A    between atoms: C_13  and  C_15
REMARK   10  A    between atoms: C_16  and  C_17
REMARK                            x       y       z     vdW  Elec       q    Type
REMARK                         _______ _______ _______ _____ _____    ______ ____
ROOT
ATOM      3  O   UNL     1      -3.467   4.749  24.037  0.00  0.00    -0.371 OA
ATOM     11  C   UNL     1      -4.925   3.898  25.708  0.00  0.00    +0.111 C 
ATOM     12  C   UNL     1      -3.498   3.846  26.223  0.00  0.00    +0.164 C 
ATOM     13  C   UNL     1      -2.821   4.865  25.316  0.00  0.00    +0.164 C 
ATOM     14  C   UNL     1      -4.699   4.029  24.211  0.00  0.00    +0.181 C 
ENDROOT
BRANCH  12   4
ATOM      4  O   UNL     1      -3.396   4.204  27.587  0.00  0.00    -0.388 OA
ATOM     26  H   UNL     1      -3.075   5.121  27.639  0.00  0.00    +0.210 HD
ENDBRANCH  12   4
BRANCH  11   9
ATOM      9  N   UNL     1      -5.715   2.731  26.061  0.00  0.00    -0.305 NA
ATOM     25  H   UNL     1      -6.642   3.035  26.363  0.00  0.00    +0.123 HD
BRANCH   9  16
ATOM     16  C   UNL     1      -5.862   1.831  24.922  0.00  0.00    +0.116 C 
BRANCH  16  17
ATOM     17  C   UNL     1      -4.695   0.888  24.799  0.00  0.00    -0.033 A 
ATOM     18  C   UNL     1      -3.785   1.037  23.754  0.00  0.00    +0.007 A 
ATOM     19  C   UNL     1      -4.526  -0.136  25.731  0.00  0.00    +0.007 A 
ATOM     21  C   UNL     1      -2.534  -0.862  24.572  0.00  0.00    +0.088 A 
ATOM     22  C   UNL     1      -2.704   0.163  23.639  0.00  0.00    +0.027 A 
ATOM     23  C   UNL     1      -3.445  -1.011  25.617  0.00  0.00    +0.027 A 
BRANCH  21   2
ATOM      2  S   UNL     1      -1.184  -1.958  24.428  0.00  0.00    -0.006 S 
ATOM      7  O   UNL     1      -0.477  -2.006  25.701  0.00  0.00    -0.170 OA
ATOM      8  O   UNL     1      -1.669  -3.191  23.824  0.00  0.00    -0.170 OA
ATOM     24  C   UNL     1      -0.096  -1.171  23.262  0.00  0.00    +0.200 C 
ENDBRANCH  21   2
ENDBRANCH  16  17
ENDBRANCH   9  16
ENDBRANCH  11   9
BRANCH  13  15
ATOM     15  C   UNL     1      -1.329   4.634  25.161  0.00  0.00    +0.139 C 
BRANCH  15  10
ATOM     10  N   UNL     1      -1.088   3.272  24.648  0.00  0.00    -0.192 NA
ATOM     27  H   UNL     1      -1.014   3.229  23.623  0.00  0.00    +0.148 HD
BRANCH  10   1
ATOM      1  S   UNL     1      -0.063   2.224  25.521  0.00  0.00    +0.027 S 
ATOM      5  O   UNL     1      -0.836   1.134  26.084  0.00  0.00    -0.158 OA
ATOM      6  O   UNL     1       0.807   3.027  26.359  0.00  0.00    -0.158 OA
ATOM     20  C   UNL     1       0.931   1.566  24.202  0.00  0.00    +0.214 C 
ENDBRANCH  10   1
ENDBRANCH  15  10
ENDBRANCH  13  15
TORSDOF 8
ENDMDL
MODEL 7
REMARK VINA RESULT:      -1.0      2.788      5.023
REMARK  Name = 75536666
REMARK  10 active torsions:
REMARK  status: ('A' for Active; 'I' for Inactive)
REMARK    1  A    between atoms: S_1  and  N_10
REMARK    2  A    between atoms: S_1  and  C_20
REMARK    3  A    between atoms: S_2  and  C_21
REMARK    4  A    between atoms: S_2  and  C_24
REMARK    5  A    between atoms: O_4  and  C_12
REMARK    6  A    between atoms: N_9  and  C_11
REMARK    7  A    between atoms: N_9  and  C_16
REMARK    8  A    between atoms: N_10  and  C_15
REMARK    9  A    between atoms: C_13  and  C_15
REMARK   10  A    between atoms: C_16  and  C_17
REMARK                            x       y       z     vdW  Elec       q    Type
REMARK                         _______ _______ _______ _____ _____    ______ ____
ROOT
ATOM      3  O   UNL     1      -1.232   2.067  22.778  0.00  0.00    -0.371 OA
ATOM     11  C   UNL     1      -2.601   3.780  23.689  0.00  0.00    +0.111 C 
ATOM     12  C   UNL     1      -1.441   3.518  24.633  0.00  0.00    +0.164 C 
ATOM     13  C   UNL     1      -0.447   2.844  23.697  0.00  0.00    +0.164 C 
ATOM     14  C   UNL     1      -2.597   2.513  22.850  0.00  0.00    +0.181 C 
ENDROOT
BRANCH  12   4
ATOM      4  O   UNL     1      -0.916   4.704  25.196  0.00  0.00    -0.388 OA
ATOM     26  H   UNL     1      -1.422   4.911  26.000  0.00  0.00    +0.210 HD
ENDBRANCH  12   4
BRANCH  11   9
ATOM      9  N   UNL     1      -3.866   4.005  24.369  0.00  0.00    -0.305 NA
ATOM     25  H   UNL     1      -4.629   3.721  23.754  0.00  0.00    +0.123 HD
BRANCH   9  16
ATOM     16  C   UNL     1      -3.943   3.231  25.603  0.00  0.00    +0.116 C 
BRANCH  16  17
ATOM     17  C   UNL     1      -3.832   1.752  25.345  0.00  0.00    -0.033 A 
ATOM     18  C   UNL     1      -2.703   1.053  25.772  0.00  0.00    +0.007 A 
ATOM     19  C   UNL     1      -4.856   1.082  24.678  0.00  0.00    +0.007 A 
ATOM     21  C   UNL     1      -3.626  -0.989  24.867  0.00  0.00    +0.088 A 
ATOM     22  C   UNL     1      -2.599  -0.318  25.534  0.00  0.00    +0.027 A 
ATOM     23  C   UNL     1      -4.753  -0.290  24.439  0.00  0.00    +0.027 A 
BRANCH  21   2
ATOM      2  S   UNL     1      -3.495  -2.704  24.565  0.00  0.00    -0.006 S 
ATOM      7  O   UNL     1      -3.506  -3.409  25.839  0.00  0.00    -0.170 OA
ATOM      8  O   UNL     1      -4.465  -3.053  23.536  0.00  0.00    -0.170 OA
ATOM     24  C   UNL     1      -1.869  -2.909  23.876  0.00  0.00    +0.200 C 
ENDBRANCH  21   2
ENDBRANCH  16  17
ENDBRANCH   9  16
ENDBRANCH  11   9
BRANCH  13  15
ATOM     15  C   UNL     1       0.542   1.945  24.416  0.00  0.00    +0.139 C 
BRANCH  15  10
ATOM     10  N   UNL     1       1.633   1.572  23.495  0.00  0.00    -0.192 NA
ATOM     27  H   UNL     1       2.523   2.043  23.704  0.00  0.00    +0.148 HD
BRANCH  10   1
ATOM      1  S   UNL     1       1.744  -0.042  22.950  0.00  0.00    +0.027 S 
ATOM      5  O   UNL     1       3.040  -0.591  23.299  0.00  0.00    -0.158 OA
ATOM      6  O   UNL     1       1.257  -0.099  21.585  0.00  0.00    -0.158 OA
ATOM     20  C   UNL     1       0.524  -0.820  23.982  0.00  0.00    +0.214 C 
ENDBRANCH  10   1
ENDBRANCH  15  10
ENDBRANCH  13  15
TORSDOF 8
ENDMDL
MODEL 8
REMARK VINA RESULT:       0.3      2.604      5.327
REMARK  Name = 75536666
REMARK  10 active torsions:
REMARK  status: ('A' for Active; 'I' for Inactive)
REMARK    1  A    between atoms: S_1  and  N_10
REMARK    2  A    between atoms: S_1  and  C_20
REMARK    3  A    between atoms: S_2  and  C_21
REMARK    4  A    between atoms: S_2  and  C_24
REMARK    5  A    between atoms: O_4  and  C_12
REMARK    6  A    between atoms: N_9  and  C_11
REMARK    7  A    between atoms: N_9  and  C_16
REMARK    8  A    between atoms: N_10  and  C_15
REMARK    9  A    between atoms: C_13  and  C_15
REMARK   10  A    between atoms: C_16  and  C_17
REMARK                            x       y       z     vdW  Elec       q    Type
REMARK                         _______ _______ _______ _____ _____    ______ ____
ROOT
ATOM      3  O   UNL     1      -1.852   4.184  23.929  0.00  0.00    -0.371 OA
ATOM     11  C   UNL     1      -4.057   4.248  24.807  0.00  0.00    +0.111 C 
ATOM     12  C   UNL     1      -3.119   3.696  25.864  0.00  0.00    +0.164 C 
ATOM     13  C   UNL     1      -1.777   4.210  25.363  0.00  0.00    +0.164 C 
ATOM     14  C   UNL     1      -3.232   4.059  23.545  0.00  0.00    +0.181 C 
ENDROOT
BRANCH  12   4
ATOM      4  O   UNL     1      -3.416   4.173  27.162  0.00  0.00    -0.388 OA
ATOM     26  H   UNL     1      -3.231   5.128  27.186  0.00  0.00    +0.210 HD
ENDBRANCH  12   4
BRANCH  11   9
ATOM      9  N   UNL     1      -5.340   3.566  24.752  0.00  0.00    -0.305 NA
ATOM     25  H   UNL     1      -5.415   3.070  23.864  0.00  0.00    +0.123 HD
BRANCH   9  16
ATOM     16  C   UNL     1      -5.470   2.605  25.842  0.00  0.00    +0.116 C 
BRANCH  16  17
ATOM     17  C   UNL     1      -4.884   1.266  25.481  0.00  0.00    -0.033 A 
ATOM     18  C   UNL     1      -4.298   0.473  26.467  0.00  0.00    +0.007 A 
ATOM     19  C   UNL     1      -4.928   0.820  24.161  0.00  0.00    +0.007 A 
ATOM     21  C   UNL     1      -3.799  -1.215  24.812  0.00  0.00    +0.088 A 
ATOM     22  C   UNL     1      -3.755  -0.768  26.133  0.00  0.00    +0.027 A 
ATOM     23  C   UNL     1      -4.385  -0.422  23.826  0.00  0.00    +0.027 A 
BRANCH  21   2
ATOM      2  S   UNL     1      -3.117  -2.766  24.392  0.00  0.00    -0.006 S 
ATOM      7  O   UNL     1      -1.821  -2.557  23.761  0.00  0.00    -0.170 OA
ATOM      8  O   UNL     1      -3.221  -3.633  25.558  0.00  0.00    -0.170 OA
ATOM     24  C   UNL     1      -4.204  -3.404  23.138  0.00  0.00    +0.200 C 
ENDBRANCH  21   2
ENDBRANCH  16  17
ENDBRANCH   9  16
ENDBRANCH  11   9
BRANCH  13  15
ATOM     15  C   UNL     1      -0.599   3.374  25.832  0.00  0.00    +0.139 C 
BRANCH  15  10
ATOM     10  N   UNL     1      -0.946   1.942  25.755  0.00  0.00    -0.192 NA
ATOM     27  H   UNL     1      -1.942   1.753  25.935  0.00  0.00    +0.148 HD
BRANCH  10   1
ATOM      1  S   UNL     1      -0.197   0.967  24.572  0.00  0.00    +0.027 S 
ATOM      5  O   UNL     1      -0.211  -0.420  24.995  0.00  0.00    -0.158 OA
ATOM      6  O   UNL     1       1.041   1.607  24.167  0.00  0.00    -0.158 OA
ATOM     20  C   UNL     1      -1.348   1.140  23.228  0.00  0.00    +0.214 C 
ENDBRANCH  10   1
ENDBRANCH  15  10
ENDBRANCH  13  15
TORSDOF 8
ENDMDL
MODEL 9
REMARK VINA RESULT:       0.4      3.067      4.774
REMARK  Name = 75536666
REMARK  10 active torsions:
REMARK  status: ('A' for Active; 'I' for Inactive)
REMARK    1  A    between atoms: S_1  and  N_10
REMARK    2  A    between atoms: S_1  and  C_20
REMARK    3  A    between atoms: S_2  and  C_21
REMARK    4  A    between atoms: S_2  and  C_24
REMARK    5  A    between atoms: O_4  and  C_12
REMARK    6  A    between atoms: N_9  and  C_11
REMARK    7  A    between atoms: N_9  and  C_16
REMARK    8  A    between atoms: N_10  and  C_15
REMARK    9  A    between atoms: C_13  and  C_15
REMARK   10  A    between atoms: C_16  and  C_17
REMARK                            x       y       z     vdW  Elec       q    Type
REMARK                         _______ _______ _______ _____ _____    ______ ____
ROOT
ATOM      3  O   UNL     1       0.852   2.401  24.553  0.00  0.00    -0.371 OA
ATOM     11  C   UNL     1      -0.401   0.385  24.476  0.00  0.00    +0.111 C 
ATOM     12  C   UNL     1      -0.200   0.788  25.926  0.00  0.00    +0.164 C 
ATOM     13  C   UNL     1       0.111   2.271  25.778  0.00  0.00    +0.164 C 
ATOM     14  C   UNL     1       0.682   1.197  23.786  0.00  0.00    +0.181 C 
ENDROOT
BRANCH  12   4
ATOM      4  O   UNL     1      -1.349   0.566  26.719  0.00  0.00    -0.388 OA
ATOM     26  H   UNL     1      -1.304  -0.337  27.077  0.00  0.00    +0.210 HD
ENDBRANCH  12   4
BRANCH  11   9
ATOM      9  N   UNL     1      -0.271  -1.044  24.245  0.00  0.00    -0.305 NA
ATOM     25  H   UNL     1       0.156  -1.477  25.065  0.00  0.00    +0.123 HD
BRANCH   9  16
ATOM     16  C   UNL     1      -1.573  -1.659  24.013  0.00  0.00    +0.116 C 
BRANCH  16  17
ATOM     17  C   UNL     1      -2.703  -0.737  24.384  0.00  0.00    -0.033 A 
ATOM     18  C   UNL     1      -3.529  -1.044  25.465  0.00  0.00    +0.007 A 
ATOM     19  C   UNL     1      -2.926   0.425  23.645  0.00  0.00    +0.007 A 
ATOM     21  C   UNL     1      -4.798   0.974  25.071  0.00  0.00    +0.088 A 
ATOM     22  C   UNL     1      -4.576  -0.189  25.809  0.00  0.00    +0.027 A 
ATOM     23  C   UNL     1      -3.973   1.281  23.989  0.00  0.00    +0.027 A 
BRANCH  21   2
ATOM      2  S   UNL     1      -6.111   2.042  25.498  0.00  0.00    -0.006 S 
ATOM      7  O   UNL     1      -7.139   1.961  24.470  0.00  0.00    -0.170 OA
ATOM      8  O   UNL     1      -6.458   1.791  26.890  0.00  0.00    -0.170 OA
ATOM     24  C   UNL     1      -5.406   3.672  25.396  0.00  0.00    +0.200 C 
ENDBRANCH  21   2
ENDBRANCH  16  17
ENDBRANCH   9  16
ENDBRANCH  11   9
BRANCH  13  15
ATOM     15  C   UNL     1       0.922   2.834  26.931  0.00  0.00    +0.139 C 
BRANCH  15  10
ATOM     10  N   UNL     1       0.678   2.033  28.146  0.00  0.00    -0.192 NA
ATOM     27  H   UNL     1       0.542   1.031  27.954  0.00  0.00    +0.148 HD
BRANCH  10   1
ATOM      1  S   UNL     1       1.523   2.417  29.578  0.00  0.00    +0.027 S 
ATOM      5  O   UNL     1       2.223   1.244  30.067  0.00  0.00    -0.158 OA
ATOM      6  O   UNL     1       0.636   3.168  30.446  0.00  0.00    -0.158 OA
ATOM     20  C   UNL     1       2.736   3.554  28.947  0.00  0.00    +0.214 C 
ENDBRANCH  10   1
ENDBRANCH  15  10
ENDBRANCH  13  15
TORSDOF 8
ENDMDL
