MODEL 1
REMARK VINA RESULT:      -2.6      0.000      0.000
REMARK  Name = 25391196
REMARK  4 active torsions:
REMARK  status: ('A' for Active; 'I' for Inactive)
REMARK    1  A    between atoms: S_1  and  N_9
REMARK    2  A    between atoms: S_1  and  C_19
REMARK    3  A    between atoms: N_10  and  C_18
REMARK    4  A    between atoms: C_18  and  C_20
REMARK                            x       y       z     vdW  Elec       q    Type
REMARK                         _______ _______ _______ _____ _____    ______ ____
ROOT
ATOM      3  O   UNL     1      11.919  -6.641  29.975  0.00  0.00    -0.273 OA
ATOM      4  O   UNL     1      15.540  -6.978  32.808  0.00  0.00    -0.252 OA
ATOM      8  N   UNL     1      15.333  -6.445  30.538  0.00  0.00    -0.271 N 
ATOM      9  N   UNL     1      15.890  -7.053  27.868  0.00  0.00    -0.173 NA
ATOM     10  N   UNL     1      13.484  -6.867  31.697  0.00  0.00    -0.215 N 
ATOM     12  C   UNL     1      14.283  -6.286  29.560  0.00  0.00    +0.180 C 
ATOM     13  C   UNL     1      14.496  -7.237  28.393  0.00  0.00    +0.141 C 
ATOM     14  C   UNL     1      16.714  -6.366  30.100  0.00  0.00    +0.127 C 
ATOM     15  C   UNL     1      16.929  -7.312  28.922  0.00  0.00    +0.128 C 
ATOM     16  C   UNL     1      13.065  -6.618  30.406  0.00  0.00    +0.245 C 
ATOM     17  C   UNL     1      14.863  -6.780  31.806  0.00  0.00    +0.312 C 
ENDROOT
BRANCH   9   1
ATOM      1  S   UNL     1      16.197  -7.781  26.347  0.00  0.00    +0.061 S 
ATOM      5  O   UNL     1      14.968  -8.354  25.843  0.00  0.00    -0.153 OA
ATOM      6  O   UNL     1      17.405  -8.572  26.441  0.00  0.00    -0.153 OA
BRANCH   1  19
ATOM      2  F   UNL     1      17.405  -2.987  23.137  0.00  0.00    -0.205 F 
ATOM     19  C   UNL     1      16.560  -6.346  25.386  0.00  0.00    +0.106 A 
ATOM     21  C   UNL     1      16.344  -5.076  25.922  0.00  0.00    +0.031 A 
ATOM     22  C   UNL     1      17.061  -6.481  24.092  0.00  0.00    +0.031 A 
ATOM     23  C   UNL     1      16.630  -3.941  25.163  0.00  0.00    +0.040 A 
ATOM     24  C   UNL     1      17.347  -5.346  23.332  0.00  0.00    +0.040 A 
ATOM     25  C   UNL     1      17.132  -4.077  23.868  0.00  0.00    +0.124 A 
ENDBRANCH   1  19
ENDBRANCH   9   1
BRANCH  10  18
ATOM     18  C   UNL     1      12.597  -7.205  32.792  0.00  0.00    +0.213 C 
BRANCH  18  20
ATOM      7  O   UNL     1      12.847  -9.613  32.851  0.00  0.00    -0.274 OA
ATOM     11  N   UNL     1      10.827  -8.721  32.213  0.00  0.00    -0.328 N 
ATOM     20  C   UNL     1      12.131  -8.636  32.648  0.00  0.00    +0.228 C 
ATOM     26  H   UNL     1      10.258  -7.899  32.039  0.00  0.00    +0.145 HD
ATOM     27  H   UNL     1      10.386  -9.622  32.058  0.00  0.00    +0.145 HD
ENDBRANCH  18  20
ENDBRANCH  10  18
TORSDOF 4
ENDMDL
MODEL 2
REMARK VINA RESULT:      -2.1     17.332     18.634
REMARK  Name = 25391196
REMARK  4 active torsions:
REMARK  status: ('A' for Active; 'I' for Inactive)
REMARK    1  A    between atoms: S_1  and  N_9
REMARK    2  A    between atoms: S_1  and  C_19
REMARK    3  A    between atoms: N_10  and  C_18
REMARK    4  A    between atoms: C_18  and  C_20
REMARK                            x       y       z     vdW  Elec       q    Type
REMARK                         _______ _______ _______ _____ _____    ______ ____
ROOT
ATOM      3  O   UNL     1      -3.957   2.917  22.604  0.00  0.00    -0.273 OA
ATOM      4  O   UNL     1      -2.480   3.741  26.892  0.00  0.00    -0.252 OA
ATOM      8  N   UNL     1      -1.411   2.976  24.954  0.00  0.00    -0.271 N 
ATOM      9  N   UNL     1      -0.021   0.953  23.618  0.00  0.00    -0.173 NA
ATOM     10  N   UNL     1      -3.574   3.476  24.841  0.00  0.00    -0.215 N 
ATOM     12  C   UNL     1      -1.745   2.702  23.576  0.00  0.00    +0.180 C 
ATOM     13  C   UNL     1      -1.440   1.253  23.234  0.00  0.00    +0.141 C 
ATOM     14  C   UNL     1      -0.084   2.638  25.432  0.00  0.00    +0.127 C 
ATOM     15  C   UNL     1       0.229   1.186  25.081  0.00  0.00    +0.128 C 
ATOM     16  C   UNL     1      -3.228   3.032  23.580  0.00  0.00    +0.245 C 
ATOM     17  C   UNL     1      -2.490   3.442  25.703  0.00  0.00    +0.312 C 
ENDROOT
BRANCH   9   1
ATOM      1  S   UNL     1       0.608  -0.514  22.994  0.00  0.00    +0.061 S 
ATOM      5  O   UNL     1       0.298  -0.598  21.584  0.00  0.00    -0.153 OA
ATOM      6  O   UNL     1       0.267  -1.592  23.899  0.00  0.00    -0.153 OA
BRANCH   1  19
ATOM      2  F   UNL     1       6.385   0.536  23.514  0.00  0.00    -0.205 F 
ATOM     19  C   UNL     1       2.338  -0.199  23.151  0.00  0.00    +0.106 A 
ATOM     21  C   UNL     1       2.862   1.028  22.746  0.00  0.00    +0.031 A 
ATOM     22  C   UNL     1       3.180  -1.179  23.677  0.00  0.00    +0.031 A 
ATOM     23  C   UNL     1       4.229   1.277  22.870  0.00  0.00    +0.040 A 
ATOM     24  C   UNL     1       4.547  -0.930  23.801  0.00  0.00    +0.040 A 
ATOM     25  C   UNL     1       5.071   0.298  23.397  0.00  0.00    +0.124 A 
ENDBRANCH   1  19
ENDBRANCH   9   1
BRANCH  10  18
ATOM     18  C   UNL     1      -4.908   3.896  25.220  0.00  0.00    +0.213 C 
BRANCH  18  20
ATOM      7  O   UNL     1      -6.142   1.889  24.659  0.00  0.00    -0.274 OA
ATOM     11  N   UNL     1      -6.106   2.596  26.846  0.00  0.00    -0.328 N 
ATOM     20  C   UNL     1      -5.760   2.683  25.515  0.00  0.00    +0.228 C 
ATOM     26  H   UNL     1      -5.790   3.272  27.534  0.00  0.00    +0.145 HD
ATOM     27  H   UNL     1      -6.689   1.838  27.186  0.00  0.00    +0.145 HD
ENDBRANCH  18  20
ENDBRANCH  10  18
TORSDOF 4
ENDMDL
MODEL 3
REMARK VINA RESULT:      -1.0     18.268     19.962
REMARK  Name = 25391196
REMARK  4 active torsions:
REMARK  status: ('A' for Active; 'I' for Inactive)
REMARK    1  A    between atoms: S_1  and  N_9
REMARK    2  A    between atoms: S_1  and  C_19
REMARK    3  A    between atoms: N_10  and  C_18
REMARK    4  A    between atoms: C_18  and  C_20
REMARK                            x       y       z     vdW  Elec       q    Type
REMARK                         _______ _______ _______ _____ _____    ______ ____
ROOT
ATOM      3  O   UNL     1      -3.356  -1.167  26.692  0.00  0.00    -0.273 OA
ATOM      4  O   UNL     1      -1.009  -2.944  23.145  0.00  0.00    -0.252 OA
ATOM      8  N   UNL     1      -0.619  -1.124  24.567  0.00  0.00    -0.271 N 
ATOM      9  N   UNL     1      -0.294   1.630  24.908  0.00  0.00    -0.173 NA
ATOM     10  N   UNL     1      -2.440  -2.355  24.900  0.00  0.00    -0.215 N 
ATOM     12  C   UNL     1      -1.248  -0.490  25.702  0.00  0.00    +0.180 C 
ATOM     13  C   UNL     1      -1.550   0.968  25.395  0.00  0.00    +0.141 C 
ATOM     14  C   UNL     1       0.553  -0.504  23.980  0.00  0.00    +0.127 C 
ATOM     15  C   UNL     1       0.256   0.963  23.679  0.00  0.00    +0.128 C 
ATOM     16  C   UNL     1      -2.488  -1.355  25.851  0.00  0.00    +0.245 C 
ATOM     17  C   UNL     1      -1.318  -2.234  24.095  0.00  0.00    +0.312 C 
ENDROOT
BRANCH   9   1
ATOM      1  S   UNL     1      -0.351   3.342  24.845  0.00  0.00    +0.061 S 
ATOM      5  O   UNL     1       0.008   3.776  23.512  0.00  0.00    -0.153 OA
ATOM      6  O   UNL     1       0.319   3.876  26.011  0.00  0.00    -0.153 OA
BRANCH   1  19
ATOM      2  F   UNL     1      -6.143   4.199  25.526  0.00  0.00    -0.205 F 
ATOM     19  C   UNL     1      -2.086   3.599  25.049  0.00  0.00    +0.106 A 
ATOM     21  C   UNL     1      -2.577   4.118  26.247  0.00  0.00    +0.031 A 
ATOM     22  C   UNL     1      -2.964   3.283  24.012  0.00  0.00    +0.031 A 
ATOM     23  C   UNL     1      -3.948   4.321  26.408  0.00  0.00    +0.040 A 
ATOM     24  C   UNL     1      -4.335   3.487  24.174  0.00  0.00    +0.040 A 
ATOM     25  C   UNL     1      -4.826   4.006  25.371  0.00  0.00    +0.124 A 
ENDBRANCH   1  19
ENDBRANCH   9   1
BRANCH  10  18
ATOM     18  C   UNL     1      -3.450  -3.383  24.746  0.00  0.00    +0.213 C 
BRANCH  18  20
ATOM      7  O   UNL     1      -5.197  -3.636  23.087  0.00  0.00    -0.274 OA
ATOM     11  N   UNL     1      -4.658  -1.525  23.822  0.00  0.00    -0.328 N 
ATOM     20  C   UNL     1      -4.534  -2.897  23.811  0.00  0.00    +0.228 C 
ATOM     26  H   UNL     1      -4.089  -0.933  24.418  0.00  0.00    +0.145 HD
ATOM     27  H   UNL     1      -5.338  -1.057  23.230  0.00  0.00    +0.145 HD
ENDBRANCH  18  20
ENDBRANCH  10  18
TORSDOF 4
ENDMDL
MODEL 4
REMARK VINA RESULT:      -0.8     18.603     20.200
REMARK  Name = 25391196
REMARK  4 active torsions:
REMARK  status: ('A' for Active; 'I' for Inactive)
REMARK    1  A    between atoms: S_1  and  N_9
REMARK    2  A    between atoms: S_1  and  C_19
REMARK    3  A    between atoms: N_10  and  C_18
REMARK    4  A    between atoms: C_18  and  C_20
REMARK                            x       y       z     vdW  Elec       q    Type
REMARK                         _______ _______ _______ _____ _____    ______ ____
ROOT
ATOM      3  O   UNL     1      -4.480   2.836  22.872  0.00  0.00    -0.273 OA
ATOM      4  O   UNL     1      -2.896   4.492  26.871  0.00  0.00    -0.252 OA
ATOM      8  N   UNL     1      -1.846   3.515  25.020  0.00  0.00    -0.271 N 
ATOM      9  N   UNL     1      -0.325   1.433  23.943  0.00  0.00    -0.173 NA
ATOM     10  N   UNL     1      -4.051   3.792  24.961  0.00  0.00    -0.215 N 
ATOM     12  C   UNL     1      -2.215   2.988  23.727  0.00  0.00    +0.180 C 
ATOM     13  C   UNL     1      -1.783   1.535  23.605  0.00  0.00    +0.141 C 
ATOM     14  C   UNL     1      -0.471   3.383  25.463  0.00  0.00    +0.127 C 
ATOM     15  C   UNL     1      -0.032   1.927  25.332  0.00  0.00    +0.128 C 
ATOM     16  C   UNL     1      -3.721   3.178  23.770  0.00  0.00    +0.245 C 
ATOM     17  C   UNL     1      -2.930   4.000  25.750  0.00  0.00    +0.312 C 
ENDROOT
BRANCH   9   1
ATOM      1  S   UNL     1       0.417  -0.054  23.527  0.00  0.00    +0.061 S 
ATOM      5  O   UNL     1       1.602  -0.233  24.338  0.00  0.00    -0.153 OA
ATOM      6  O   UNL     1       0.477  -0.161  22.085  0.00  0.00    -0.153 OA
BRANCH   1  19
ATOM      2  F   UNL     1      -3.679  -3.826  25.462  0.00  0.00    -0.205 F 
ATOM     19  C   UNL     1      -0.810  -1.183  24.106  0.00  0.00    +0.106 A 
ATOM     21  C   UNL     1      -1.504  -0.913  25.285  0.00  0.00    +0.031 A 
ATOM     22  C   UNL     1      -1.084  -2.345  23.385  0.00  0.00    +0.031 A 
ATOM     23  C   UNL     1      -2.474  -1.805  25.743  0.00  0.00    +0.040 A 
ATOM     24  C   UNL     1      -2.054  -3.237  23.843  0.00  0.00    +0.040 A 
ATOM     25  C   UNL     1      -2.749  -2.967  25.022  0.00  0.00    +0.124 A 
ENDBRANCH   1  19
ENDBRANCH   9   1
BRANCH  10  18
ATOM     18  C   UNL     1      -5.401   4.147  25.350  0.00  0.00    +0.213 C 
BRANCH  18  20
ATOM      7  O   UNL     1      -6.134   2.573  27.039  0.00  0.00    -0.274 OA
ATOM     11  N   UNL     1      -6.727   2.208  24.848  0.00  0.00    -0.328 N 
ATOM     20  C   UNL     1      -6.124   2.921  25.861  0.00  0.00    +0.228 C 
ATOM     26  H   UNL     1      -6.693   2.508  23.879  0.00  0.00    +0.145 HD
ATOM     27  H   UNL     1      -7.236   1.352  25.044  0.00  0.00    +0.145 HD
ENDBRANCH  18  20
ENDBRANCH  10  18
TORSDOF 4
ENDMDL
MODEL 5
REMARK VINA RESULT:       0.0     18.505     20.299
REMARK  Name = 25391196
REMARK  4 active torsions:
REMARK  status: ('A' for Active; 'I' for Inactive)
REMARK    1  A    between atoms: S_1  and  N_9
REMARK    2  A    between atoms: S_1  and  C_19
REMARK    3  A    between atoms: N_10  and  C_18
REMARK    4  A    between atoms: C_18  and  C_20
REMARK                            x       y       z     vdW  Elec       q    Type
REMARK                         _______ _______ _______ _____ _____    ______ ____
ROOT
ATOM      3  O   UNL     1      -1.641  -0.915  26.925  0.00  0.00    -0.273 OA
ATOM      4  O   UNL     1       0.837  -0.742  23.042  0.00  0.00    -0.252 OA
ATOM      8  N   UNL     1       0.184   0.886  24.593  0.00  0.00    -0.271 N 
ATOM      9  N   UNL     1      -1.237   3.223  25.167  0.00  0.00    -0.173 NA
ATOM     10  N   UNL     1      -0.416  -1.223  24.958  0.00  0.00    -0.215 N 
ATOM     12  C   UNL     1      -0.555   0.958  25.832  0.00  0.00    +0.180 C 
ATOM     13  C   UNL     1      -1.734   1.908  25.691  0.00  0.00    +0.141 C 
ATOM     14  C   UNL     1       0.630   2.118  23.972  0.00  0.00    +0.127 C 
ATOM     15  C   UNL     1      -0.549   3.078  23.839  0.00  0.00    +0.128 C 
ATOM     16  C   UNL     1      -0.957  -0.497  26.000  0.00  0.00    +0.245 C 
ATOM     17  C   UNL     1       0.275  -0.406  24.077  0.00  0.00    +0.312 C 
ENDROOT
BRANCH   9   1
ATOM      1  S   UNL     1      -2.354   4.519  25.272  0.00  0.00    +0.061 S 
ATOM      5  O   UNL     1      -2.188   5.378  24.120  0.00  0.00    -0.153 OA
ATOM      6  O   UNL     1      -2.322   5.056  26.616  0.00  0.00    -0.153 OA
BRANCH   1  19
ATOM      2  F   UNL     1      -7.415   1.570  24.613  0.00  0.00    -0.205 F 
ATOM     19  C   UNL     1      -3.869   3.635  25.075  0.00  0.00    +0.106 A 
ATOM     21  C   UNL     1      -4.009   2.715  24.036  0.00  0.00    +0.031 A 
ATOM     22  C   UNL     1      -4.926   3.858  25.957  0.00  0.00    +0.031 A 
ATOM     23  C   UNL     1      -5.207   2.017  23.880  0.00  0.00    +0.040 A 
ATOM     24  C   UNL     1      -6.124   3.160  25.801  0.00  0.00    +0.040 A 
ATOM     25  C   UNL     1      -6.264   2.239  24.763  0.00  0.00    +0.124 A 
ENDBRANCH   1  19
ENDBRANCH   9   1
BRANCH  10  18
ATOM     18  C   UNL     1      -0.577  -2.654  24.790  0.00  0.00    +0.213 C 
BRANCH  18  20
ATOM      7  O   UNL     1      -2.115  -3.691  23.234  0.00  0.00    -0.274 OA
ATOM     11  N   UNL     1      -2.944  -2.250  24.822  0.00  0.00    -0.328 N 
ATOM     20  C   UNL     1      -1.935  -2.949  24.196  0.00  0.00    +0.228 C 
ATOM     26  H   UNL     1      -2.769  -1.631  25.607  0.00  0.00    +0.145 HD
ATOM     27  H   UNL     1      -3.908  -2.339  24.517  0.00  0.00    +0.145 HD
ENDBRANCH  18  20
ENDBRANCH  10  18
TORSDOF 4
ENDMDL
MODEL 6
REMARK VINA RESULT:       0.0     18.489     20.420
REMARK  Name = 25391196
REMARK  4 active torsions:
REMARK  status: ('A' for Active; 'I' for Inactive)
REMARK    1  A    between atoms: S_1  and  N_9
REMARK    2  A    between atoms: S_1  and  C_19
REMARK    3  A    between atoms: N_10  and  C_18
REMARK    4  A    between atoms: C_18  and  C_20
REMARK                            x       y       z     vdW  Elec       q    Type
REMARK                         _______ _______ _______ _____ _____    ______ ____
ROOT
ATOM      3  O   UNL     1      -0.399   1.124  22.684  0.00  0.00    -0.273 OA
ATOM      4  O   UNL     1      -0.586  -2.658  25.313  0.00  0.00    -0.252 OA
ATOM      8  N   UNL     1      -2.231  -1.255  24.414  0.00  0.00    -0.271 N 
ATOM      9  N   UNL     1      -4.337   0.538  24.812  0.00  0.00    -0.173 NA
ATOM     10  N   UNL     1      -0.101  -0.810  23.962  0.00  0.00    -0.215 N 
ATOM     12  C   UNL     1      -2.306  -0.081  23.577  0.00  0.00    +0.180 C 
ATOM     13  C   UNL     1      -3.018   1.046  24.307  0.00  0.00    +0.141 C 
ATOM     14  C   UNL     1      -3.450  -1.766  25.013  0.00  0.00    +0.127 C 
ATOM     15  C   UNL     1      -4.173  -0.633  25.738  0.00  0.00    +0.128 C 
ATOM     16  C   UNL     1      -0.829   0.182  23.337  0.00  0.00    +0.245 C 
ATOM     17  C   UNL     1      -0.927  -1.695  24.637  0.00  0.00    +0.312 C 
ENDROOT
BRANCH   9   1
ATOM      1  S   UNL     1      -5.425   1.747  25.351  0.00  0.00    +0.061 S 
ATOM      5  O   UNL     1      -5.781   1.481  26.728  0.00  0.00    -0.153 OA
ATOM      6  O   UNL     1      -6.443   1.946  24.342  0.00  0.00    -0.153 OA
BRANCH   1  19
ATOM      2  F   UNL     1      -1.858   6.440  25.284  0.00  0.00    -0.205 F 
ATOM     19  C   UNL     1      -4.357   3.153  25.331  0.00  0.00    +0.106 A 
ATOM     21  C   UNL     1      -4.218   3.905  24.165  0.00  0.00    +0.031 A 
ATOM     22  C   UNL     1      -3.653   3.510  26.481  0.00  0.00    +0.031 A 
ATOM     23  C   UNL     1      -3.374   5.016  24.148  0.00  0.00    +0.040 A 
ATOM     24  C   UNL     1      -2.809   4.621  26.464  0.00  0.00    +0.040 A 
ATOM     25  C   UNL     1      -2.670   5.374  25.299  0.00  0.00    +0.124 A 
ENDBRANCH   1  19
ENDBRANCH   9   1
BRANCH  10  18
ATOM     18  C   UNL     1       1.346  -0.898  23.941  0.00  0.00    +0.213 C 
BRANCH  18  20
ATOM      7  O   UNL     1       1.795  -0.418  21.610  0.00  0.00    -0.274 OA
ATOM     11  N   UNL     1       2.547   1.049  23.212  0.00  0.00    -0.328 N 
ATOM     20  C   UNL     1       1.889  -0.085  22.788  0.00  0.00    +0.228 C 
ATOM     26  H   UNL     1       2.624   1.298  24.193  0.00  0.00    +0.145 HD
ATOM     27  H   UNL     1       2.976   1.684  22.546  0.00  0.00    +0.145 HD
ENDBRANCH  18  20
ENDBRANCH  10  18
TORSDOF 4
ENDMDL
MODEL 7
REMARK VINA RESULT:       0.4     17.034     18.903
REMARK  Name = 25391196
REMARK  4 active torsions:
REMARK  status: ('A' for Active; 'I' for Inactive)
REMARK    1  A    between atoms: S_1  and  N_9
REMARK    2  A    between atoms: S_1  and  C_19
REMARK    3  A    between atoms: N_10  and  C_18
REMARK    4  A    between atoms: C_18  and  C_20
REMARK                            x       y       z     vdW  Elec       q    Type
REMARK                         _______ _______ _______ _____ _____    ______ ____
ROOT
ATOM      3  O   UNL     1       3.218   1.065  22.294  0.00  0.00    -0.273 OA
ATOM      4  O   UNL     1       1.950  -2.550  24.859  0.00  0.00    -0.252 OA
ATOM      8  N   UNL     1       0.787  -0.697  24.025  0.00  0.00    -0.271 N 
ATOM      9  N   UNL     1      -0.676   1.636  24.506  0.00  0.00    -0.173 NA
ATOM     10  N   UNL     1       2.944  -0.900  23.530  0.00  0.00    -0.215 N 
ATOM     12  C   UNL     1       1.054   0.466  23.211  0.00  0.00    +0.180 C 
ATOM     13  C   UNL     1       0.726   1.737  23.978  0.00  0.00    +0.141 C 
ATOM     14  C   UNL     1      -0.518  -0.832  24.644  0.00  0.00    +0.127 C 
ATOM     15  C   UNL     1      -0.855   0.447  25.406  0.00  0.00    +0.128 C 
ATOM     16  C   UNL     1       2.537   0.279  22.940  0.00  0.00    +0.245 C 
ATOM     17  C   UNL     1       1.902  -1.512  24.209  0.00  0.00    +0.312 C 
ENDROOT
BRANCH   9   1
ATOM      1  S   UNL     1      -1.340   3.103  25.092  0.00  0.00    +0.061 S 
ATOM      5  O   UNL     1      -1.096   4.150  24.125  0.00  0.00    -0.153 OA
ATOM      6  O   UNL     1      -0.964   3.265  26.480  0.00  0.00    -0.153 OA
BRANCH   1  19
ATOM      2  F   UNL     1      -7.081   1.778  24.906  0.00  0.00    -0.205 F 
ATOM     19  C   UNL     1      -3.059   2.705  25.037  0.00  0.00    +0.106 A 
ATOM     21  C   UNL     1      -3.478   1.501  24.472  0.00  0.00    +0.031 A 
ATOM     22  C   UNL     1      -3.998   3.596  25.558  0.00  0.00    +0.031 A 
ATOM     23  C   UNL     1      -4.837   1.187  24.428  0.00  0.00    +0.040 A 
ATOM     24  C   UNL     1      -5.356   3.282  25.514  0.00  0.00    +0.040 A 
ATOM     25  C   UNL     1      -5.776   2.078  24.949  0.00  0.00    +0.124 A 
ENDBRANCH   1  19
ENDBRANCH   9   1
BRANCH  10  18
ATOM     18  C   UNL     1       4.297  -1.418  23.472  0.00  0.00    +0.213 C 
BRANCH  18  20
ATOM      7  O   UNL     1       6.183  -0.071  22.768  0.00  0.00    -0.274 OA
ATOM     11  N   UNL     1       5.094   0.474  24.719  0.00  0.00    -0.328 N 
ATOM     20  C   UNL     1       5.284  -0.278  23.579  0.00  0.00    +0.228 C 
ATOM     26  H   UNL     1       4.352   0.276  25.382  0.00  0.00    +0.145 HD
ATOM     27  H   UNL     1       5.695   1.265  24.928  0.00  0.00    +0.145 HD
ENDBRANCH  18  20
ENDBRANCH  10  18
TORSDOF 4
ENDMDL
MODEL 8
REMARK VINA RESULT:       1.0     17.178     19.092
REMARK  Name = 25391196
REMARK  4 active torsions:
REMARK  status: ('A' for Active; 'I' for Inactive)
REMARK    1  A    between atoms: S_1  and  N_9
REMARK    2  A    between atoms: S_1  and  C_19
REMARK    3  A    between atoms: N_10  and  C_18
REMARK    4  A    between atoms: C_18  and  C_20
REMARK                            x       y       z     vdW  Elec       q    Type
REMARK                         _______ _______ _______ _____ _____    ______ ____
ROOT
ATOM      3  O   UNL     1       1.177  -1.373  23.938  0.00  0.00    -0.273 OA
ATOM      4  O   UNL     1       2.592   2.875  22.842  0.00  0.00    -0.252 OA
ATOM      8  N   UNL     1       0.833   2.069  24.161  0.00  0.00    -0.271 N 
ATOM      9  N   UNL     1      -1.914   1.845  24.625  0.00  0.00    -0.173 NA
ATOM     10  N   UNL     1       2.200   0.598  23.207  0.00  0.00    -0.215 N 
ATOM     12  C   UNL     1       0.307   0.795  24.592  0.00  0.00    +0.180 C 
ATOM     13  C   UNL     1      -1.142   0.645  24.159  0.00  0.00    +0.141 C 
ATOM     14  C   UNL     1       0.104   3.276  24.496  0.00  0.00    +0.127 C 
ATOM     15  C   UNL     1      -1.355   3.125  24.071  0.00  0.00    +0.128 C 
ATOM     16  C   UNL     1       1.260  -0.153  23.884  0.00  0.00    +0.245 C 
ATOM     17  C   UNL     1       1.959   1.955  23.347  0.00  0.00    +0.312 C 
ENDROOT
BRANCH   9   1
ATOM      1  S   UNL     1      -3.618   1.695  24.535  0.00  0.00    +0.061 S 
ATOM      5  O   UNL     1      -4.064   2.154  23.237  0.00  0.00    -0.153 OA
ATOM      6  O   UNL     1      -4.200   2.219  25.752  0.00  0.00    -0.153 OA
BRANCH   1  19
ATOM      2  F   UNL     1      -4.137  -4.176  24.651  0.00  0.00    -0.205 F 
ATOM     19  C   UNL     1      -3.774  -0.063  24.570  0.00  0.00    +0.106 A 
ATOM     21  C   UNL     1      -3.369  -0.777  25.698  0.00  0.00    +0.031 A 
ATOM     22  C   UNL     1      -4.302  -0.739  23.470  0.00  0.00    +0.031 A 
ATOM     23  C   UNL     1      -3.492  -2.166  25.726  0.00  0.00    +0.040 A 
ATOM     24  C   UNL     1      -4.425  -2.128  23.497  0.00  0.00    +0.040 A 
ATOM     25  C   UNL     1      -4.020  -2.841  24.626  0.00  0.00    +0.124 A 
ENDBRANCH   1  19
ENDBRANCH   9   1
BRANCH  10  18
ATOM     18  C   UNL     1       3.283   0.036  22.424  0.00  0.00    +0.213 C 
BRANCH  18  20
ATOM      7  O   UNL     1       5.411   0.597  23.436  0.00  0.00    -0.274 OA
ATOM     11  N   UNL     1       4.448  -1.433  23.925  0.00  0.00    -0.328 N 
ATOM     20  C   UNL     1       4.484  -0.200  23.311  0.00  0.00    +0.228 C 
ATOM     26  H   UNL     1       3.677  -2.081  23.796  0.00  0.00    +0.145 HD
ATOM     27  H   UNL     1       5.198  -1.733  24.539  0.00  0.00    +0.145 HD
ENDBRANCH  18  20
ENDBRANCH  10  18
TORSDOF 4
ENDMDL
MODEL 9
REMARK VINA RESULT:       1.1     18.173     20.158
REMARK  Name = 25391196
REMARK  4 active torsions:
REMARK  status: ('A' for Active; 'I' for Inactive)
REMARK    1  A    between atoms: S_1  and  N_9
REMARK    2  A    between atoms: S_1  and  C_19
REMARK    3  A    between atoms: N_10  and  C_18
REMARK    4  A    between atoms: C_18  and  C_20
REMARK                            x       y       z     vdW  Elec       q    Type
REMARK                         _______ _______ _______ _____ _____    ______ ____
ROOT
ATOM      3  O   UNL     1       0.593   0.024  24.861  0.00  0.00    -0.273 OA
ATOM      4  O   UNL     1       0.574   4.360  23.296  0.00  0.00    -0.252 OA
ATOM      8  N   UNL     1      -0.850   3.173  24.727  0.00  0.00    -0.271 N 
ATOM      9  N   UNL     1      -3.383   2.124  25.266  0.00  0.00    -0.173 NA
ATOM     10  N   UNL     1       0.934   2.130  23.906  0.00  0.00    -0.215 N 
ATOM     12  C   UNL     1      -0.942   1.850  25.300  0.00  0.00    +0.180 C 
ATOM     13  C   UNL     1      -2.258   1.195  24.913  0.00  0.00    +0.141 C 
ATOM     14  C   UNL     1      -1.936   4.108  24.948  0.00  0.00    +0.127 C 
ATOM     15  C   UNL     1      -3.260   3.449  24.570  0.00  0.00    +0.128 C 
ATOM     16  C   UNL     1       0.277   1.192  24.677  0.00  0.00    +0.245 C 
ATOM     17  C   UNL     1       0.265   3.344  23.907  0.00  0.00    +0.312 C 
ENDROOT
BRANCH   9   1
ATOM      1  S   UNL     1      -4.946   1.421  25.226  0.00  0.00    +0.061 S 
ATOM      5  O   UNL     1      -5.653   1.911  24.063  0.00  0.00    -0.153 OA
ATOM      6  O   UNL     1      -5.532   1.507  26.547  0.00  0.00    -0.153 OA
BRANCH   1  19
ATOM      2  F   UNL     1      -3.520  -4.211  24.235  0.00  0.00    -0.205 F 
ATOM     19  C   UNL     1      -4.518  -0.265  24.929  0.00  0.00    +0.106 A 
ATOM     21  C   UNL     1      -4.894  -0.879  23.734  0.00  0.00    +0.031 A 
ATOM     22  C   UNL     1      -3.806  -0.983  25.889  0.00  0.00    +0.031 A 
ATOM     23  C   UNL     1      -4.556  -2.212  23.499  0.00  0.00    +0.040 A 
ATOM     24  C   UNL     1      -3.469  -2.316  25.654  0.00  0.00    +0.040 A 
ATOM     25  C   UNL     1      -3.843  -2.930  24.459  0.00  0.00    +0.124 A 
ENDBRANCH   1  19
ENDBRANCH   9   1
BRANCH  10  18
ATOM     18  C   UNL     1       2.152   1.869  23.166  0.00  0.00    +0.213 C 
BRANCH  18  20
ATOM      7  O   UNL     1       1.257  -0.031  21.961  0.00  0.00    -0.274 OA
ATOM     11  N   UNL     1       3.229  -0.277  23.117  0.00  0.00    -0.328 N 
ATOM     20  C   UNL     1       2.147   0.445  22.661  0.00  0.00    +0.228 C 
ATOM     26  H   UNL     1       3.946   0.134  23.707  0.00  0.00    +0.145 HD
ATOM     27  H   UNL     1       3.347  -1.254  22.869  0.00  0.00    +0.145 HD
ENDBRANCH  18  20
ENDBRANCH  10  18
TORSDOF 4
ENDMDL
MODEL 10
REMARK VINA RESULT:       1.4     18.296     20.147
REMARK  Name = 25391196
REMARK  4 active torsions:
REMARK  status: ('A' for Active; 'I' for Inactive)
REMARK    1  A    between atoms: S_1  and  N_9
REMARK    2  A    between atoms: S_1  and  C_19
REMARK    3  A    between atoms: N_10  and  C_18
REMARK    4  A    between atoms: C_18  and  C_20
REMARK                            x       y       z     vdW  Elec       q    Type
REMARK                         _______ _______ _______ _____ _____    ______ ____
ROOT
ATOM      3  O   UNL     1      -0.349  -1.287  22.960  0.00  0.00    -0.273 OA
ATOM      4  O   UNL     1       2.865   1.972  23.507  0.00  0.00    -0.252 OA
ATOM      8  N   UNL     1       0.617   1.823  24.145  0.00  0.00    -0.271 N 
ATOM      9  N   UNL     1      -1.998   2.792  23.971  0.00  0.00    -0.173 NA
ATOM     10  N   UNL     1       1.529   0.100  23.077  0.00  0.00    -0.215 N 
ATOM     12  C   UNL     1      -0.467   0.873  24.058  0.00  0.00    +0.180 C 
ATOM     13  C   UNL     1      -1.650   1.484  23.323  0.00  0.00    +0.141 C 
ATOM     14  C   UNL     1       0.348   3.144  24.682  0.00  0.00    +0.127 C 
ATOM     15  C   UNL     1      -0.846   3.756  23.953  0.00  0.00    +0.128 C 
ATOM     16  C   UNL     1       0.212  -0.252  23.296  0.00  0.00    +0.245 C 
ATOM     17  C   UNL     1       1.802   1.365  23.573  0.00  0.00    +0.312 C 
ENDROOT
BRANCH   9   1
ATOM      1  S   UNL     1      -3.510   3.454  23.507  0.00  0.00    +0.061 S 
ATOM      5  O   UNL     1      -3.858   2.957  22.193  0.00  0.00    -0.153 OA
ATOM      6  O   UNL     1      -3.506   4.873  23.791  0.00  0.00    -0.153 OA
BRANCH   1  19
ATOM      2  F   UNL     1      -7.031   0.821  27.432  0.00  0.00    -0.205 F 
ATOM     19  C   UNL     1      -4.565   2.666  24.681  0.00  0.00    +0.106 A 
ATOM     21  C   UNL     1      -5.327   3.436  25.560  0.00  0.00    +0.031 A 
ATOM     22  C   UNL     1      -4.635   1.274  24.732  0.00  0.00    +0.031 A 
ATOM     23  C   UNL     1      -6.161   2.813  26.489  0.00  0.00    +0.040 A 
ATOM     24  C   UNL     1      -5.469   0.651  25.661  0.00  0.00    +0.040 A 
ATOM     25  C   UNL     1      -6.232   1.421  26.539  0.00  0.00    +0.124 A 
ENDBRANCH   1  19
ENDBRANCH   9   1
BRANCH  10  18
ATOM     18  C   UNL     1       2.494  -0.735  22.390  0.00  0.00    +0.213 C 
BRANCH  18  20
ATOM      7  O   UNL     1       4.667   0.268  22.760  0.00  0.00    -0.274 OA
ATOM     11  N   UNL     1       4.079  -1.591  23.979  0.00  0.00    -0.328 N 
ATOM     20  C   UNL     1       3.847  -0.600  23.050  0.00  0.00    +0.228 C 
ATOM     26  H   UNL     1       3.391  -2.306  24.192  0.00  0.00    +0.145 HD
ATOM     27  H   UNL     1       4.954  -1.634  24.490  0.00  0.00    +0.145 HD
ENDBRANCH  18  20
ENDBRANCH  10  18
TORSDOF 4
ENDMDL
