MODEL 1
REMARK VINA RESULT:      -5.1      0.000      0.000
REMARK  Name = 56774005
REMARK  11 active torsions:
REMARK  status: ('A' for Active; 'I' for Inactive)
REMARK    1  A    between atoms: O_3  and  C_22
REMARK    2  A    between atoms: N_4  and  C_9
REMARK    3  A    between atoms: N_6  and  C_18
REMARK    4  A    between atoms: C_7  and  C_12
REMARK    5  A    between atoms: C_7  and  C_13
REMARK    6  A    between atoms: C_8  and  C_11
REMARK    7  A    between atoms: C_11  and  C_14
REMARK    8  A    between atoms: C_17  and  C_19
REMARK    9  A    between atoms: C_18  and  C_20
REMARK   10  A    between atoms: C_18  and  C_21
REMARK   11  A    between atoms: C_19  and  C_22
REMARK                            x       y       z     vdW  Elec       q    Type
REMARK                         _______ _______ _______ _____ _____    ______ ____
ROOT
ATOM      7  C   UNL     1      -3.750  -1.207  24.163  0.00  0.00    -0.013 C 
ATOM      8  C   UNL     1      -4.303  -0.296  25.278  0.00  0.00    +0.004 C 
ATOM      9  C   UNL     1      -2.465  -1.330  25.008  0.00  0.00    +0.081 C 
ATOM     10  C   UNL     1      -2.838   0.029  25.635  0.00  0.00    +0.027 C 
ATOM     12  C   UNL     1      -4.547  -2.478  23.970  0.00  0.00    +0.013 C 
ATOM     13  C   UNL     1      -3.509  -0.537  22.823  0.00  0.00    +0.013 C 
ENDROOT
BRANCH   9   4
ATOM      2  O   UNL     1      -0.420   0.707  25.101  0.00  0.00    -0.253 OA
ATOM      4  N   UNL     1      -1.201  -1.305  24.254  0.00  0.00    -0.296 N 
ATOM      6  N   UNL     1       0.834  -0.486  23.553  0.00  0.00    -0.297 N 
ATOM     15  C   UNL     1      -0.273  -0.270  24.369  0.00  0.00    +0.300 C 
ATOM     23  H   UNL     1      -0.976  -2.060  23.610  0.00  0.00    +0.151 HD
ATOM     24  H   UNL     1       0.896  -1.363  23.044  0.00  0.00    +0.150 HD
BRANCH   6  18
ATOM     18  C   UNL     1       1.943   0.436  23.484  0.00  0.00    +0.068 C 
ATOM     20  C   UNL     1       1.435   1.871  23.426  0.00  0.00    +0.027 C 
ATOM     21  C   UNL     1       2.831   0.115  22.289  0.00  0.00    +0.027 C 
ENDBRANCH   6  18
ENDBRANCH   9   4
BRANCH   8  11
ATOM     11  C   UNL     1      -5.132   0.894  24.853  0.00  0.00    +0.063 C 
BRANCH  11  14
ATOM      1  O   UNL     1      -3.934   4.038  26.159  0.00  0.00    -0.359 OA
ATOM      5  N   UNL     1      -4.814   2.960  26.157  0.00  0.00    -0.083 NA
ATOM     14  C   UNL     1      -4.400   2.179  25.155  0.00  0.00    +0.084 A 
ATOM     16  C   UNL     1      -3.276   2.707  24.496  0.00  0.00    +0.071 A 
ATOM     17  C   UNL     1      -3.024   3.874  25.166  0.00  0.00    +0.140 A 
BRANCH  17  19
ATOM     19  C   UNL     1      -2.013   4.930  25.025  0.00  0.00    +0.105 C 
BRANCH  19  22
ATOM     22  C   UNL     1      -0.567   4.399  24.957  0.00  0.00    +0.163 C 
BRANCH  22   3
ATOM      3  O   UNL     1      -0.408   3.348  25.902  0.00  0.00    -0.395 OA
ATOM     25  H   UNL     1      -0.879   2.575  25.548  0.00  0.00    +0.209 HD
ENDBRANCH  22   3
ENDBRANCH  19  22
ENDBRANCH  17  19
ENDBRANCH  11  14
ENDBRANCH   8  11
TORSDOF 7
ENDMDL
MODEL 2
REMARK VINA RESULT:      -5.0      1.881      5.036
REMARK  Name = 56774005
REMARK  11 active torsions:
REMARK  status: ('A' for Active; 'I' for Inactive)
REMARK    1  A    between atoms: O_3  and  C_22
REMARK    2  A    between atoms: N_4  and  C_9
REMARK    3  A    between atoms: N_6  and  C_18
REMARK    4  A    between atoms: C_7  and  C_12
REMARK    5  A    between atoms: C_7  and  C_13
REMARK    6  A    between atoms: C_8  and  C_11
REMARK    7  A    between atoms: C_11  and  C_14
REMARK    8  A    between atoms: C_17  and  C_19
REMARK    9  A    between atoms: C_18  and  C_20
REMARK   10  A    between atoms: C_18  and  C_21
REMARK   11  A    between atoms: C_19  and  C_22
REMARK                            x       y       z     vdW  Elec       q    Type
REMARK                         _______ _______ _______ _____ _____    ______ ____
ROOT
ATOM      7  C   UNL     1      -4.187   3.869  24.857  0.00  0.00    -0.013 C 
ATOM      8  C   UNL     1      -3.061   4.281  25.828  0.00  0.00    +0.004 C 
ATOM      9  C   UNL     1      -4.513   2.726  25.841  0.00  0.00    +0.081 C 
ATOM     10  C   UNL     1      -3.047   2.816  26.311  0.00  0.00    +0.027 C 
ATOM     12  C   UNL     1      -5.255   4.927  24.685  0.00  0.00    +0.013 C 
ATOM     13  C   UNL     1      -3.735   3.363  23.500  0.00  0.00    +0.013 C 
ENDROOT
BRANCH   9   4
ATOM      2  O   UNL     1      -2.746   0.490  25.377  0.00  0.00    -0.253 OA
ATOM      4  N   UNL     1      -4.858   1.434  25.226  0.00  0.00    -0.296 N 
ATOM      6  N   UNL     1      -4.507  -0.702  24.445  0.00  0.00    -0.297 N 
ATOM     15  C   UNL     1      -3.928   0.411  25.046  0.00  0.00    +0.300 C 
ATOM     23  H   UNL     1      -5.808   1.260  24.906  0.00  0.00    +0.151 HD
ATOM     24  H   UNL     1      -5.509  -0.697  24.279  0.00  0.00    +0.150 HD
BRANCH   6  18
ATOM     18  C   UNL     1      -3.761  -1.903  24.145  0.00  0.00    +0.068 C 
ATOM     20  C   UNL     1      -4.613  -2.864  23.327  0.00  0.00    +0.027 C 
ATOM     21  C   UNL     1      -3.264  -2.557  25.427  0.00  0.00    +0.027 C 
ENDBRANCH   6  18
ENDBRANCH   9   4
BRANCH   8  11
ATOM     11  C   UNL     1      -1.764   4.763  25.221  0.00  0.00    +0.063 C 
BRANCH  11  14
ATOM      1  O   UNL     1       0.690   2.135  25.523  0.00  0.00    -0.359 OA
ATOM      5  N   UNL     1      -0.046   3.196  26.037  0.00  0.00    -0.083 NA
ATOM     14  C   UNL     1      -0.815   3.606  25.024  0.00  0.00    +0.084 A 
ATOM     16  C   UNL     1      -0.608   2.848  23.858  0.00  0.00    +0.071 A 
ATOM     17  C   UNL     1       0.346   1.938  24.225  0.00  0.00    +0.140 A 
BRANCH  17  19
ATOM     19  C   UNL     1       1.034   0.847  23.524  0.00  0.00    +0.105 C 
BRANCH  19  22
ATOM     22  C   UNL     1       0.336  -0.520  23.666  0.00  0.00    +0.163 C 
BRANCH  22   3
ATOM      3  O   UNL     1      -0.147  -0.665  24.996  0.00  0.00    -0.395 OA
ATOM     25  H   UNL     1       0.576  -0.403  25.591  0.00  0.00    +0.209 HD
ENDBRANCH  22   3
ENDBRANCH  19  22
ENDBRANCH  17  19
ENDBRANCH  11  14
ENDBRANCH   8  11
TORSDOF 7
ENDMDL
MODEL 3
REMARK VINA RESULT:      -4.9      2.181      4.493
REMARK  Name = 56774005
REMARK  11 active torsions:
REMARK  status: ('A' for Active; 'I' for Inactive)
REMARK    1  A    between atoms: O_3  and  C_22
REMARK    2  A    between atoms: N_4  and  C_9
REMARK    3  A    between atoms: N_6  and  C_18
REMARK    4  A    between atoms: C_7  and  C_12
REMARK    5  A    between atoms: C_7  and  C_13
REMARK    6  A    between atoms: C_8  and  C_11
REMARK    7  A    between atoms: C_11  and  C_14
REMARK    8  A    between atoms: C_17  and  C_19
REMARK    9  A    between atoms: C_18  and  C_20
REMARK   10  A    between atoms: C_18  and  C_21
REMARK   11  A    between atoms: C_19  and  C_22
REMARK                            x       y       z     vdW  Elec       q    Type
REMARK                         _______ _______ _______ _____ _____    ______ ____
ROOT
ATOM      7  C   UNL     1      -1.833   3.759  25.099  0.00  0.00    -0.013 C 
ATOM      8  C   UNL     1      -3.144   3.152  24.560  0.00  0.00    +0.004 C 
ATOM      9  C   UNL     1      -1.192   3.383  23.747  0.00  0.00    +0.081 C 
ATOM     10  C   UNL     1      -2.271   2.286  23.629  0.00  0.00    +0.027 C 
ATOM     12  C   UNL     1      -1.930   5.239  25.402  0.00  0.00    +0.013 C 
ATOM     13  C   UNL     1      -1.201   3.031  26.270  0.00  0.00    +0.013 C 
ENDROOT
BRANCH   9   4
ATOM      2  O   UNL     1      -0.278   0.784  22.881  0.00  0.00    -0.253 OA
ATOM      4  N   UNL     1       0.181   2.855  23.816  0.00  0.00    -0.296 N 
ATOM      6  N   UNL     1       1.880   1.326  23.545  0.00  0.00    -0.297 N 
ATOM     15  C   UNL     1       0.523   1.580  23.368  0.00  0.00    +0.300 C 
ATOM     23  H   UNL     1       0.926   3.425  24.208  0.00  0.00    +0.151 HD
ATOM     24  H   UNL     1       2.473   2.077  23.885  0.00  0.00    +0.150 HD
BRANCH   6  18
ATOM     18  C   UNL     1       2.495   0.076  23.164  0.00  0.00    +0.068 C 
ATOM     20  C   UNL     1       4.011   0.213  23.157  0.00  0.00    +0.027 C 
ATOM     21  C   UNL     1       1.975  -0.384  21.808  0.00  0.00    +0.027 C 
ENDBRANCH   6  18
ENDBRANCH   9   4
BRANCH   8  11
ATOM     11  C   UNL     1      -3.999   2.375  25.534  0.00  0.00    +0.063 C 
BRANCH  11  14
ATOM      1  O   UNL     1      -4.659  -0.905  24.181  0.00  0.00    -0.359 OA
ATOM      5  N   UNL     1      -4.919   0.457  24.291  0.00  0.00    -0.083 NA
ATOM     14  C   UNL     1      -4.017   0.912  25.165  0.00  0.00    +0.084 A 
ATOM     16  C   UNL     1      -3.170  -0.107  25.635  0.00  0.00    +0.071 A 
ATOM     17  C   UNL     1      -3.614  -1.227  24.986  0.00  0.00    +0.140 A 
BRANCH  17  19
ATOM     19  C   UNL     1      -3.203  -2.636  24.992  0.00  0.00    +0.105 C 
BRANCH  19  22
ATOM     22  C   UNL     1      -1.879  -2.900  24.248  0.00  0.00    +0.163 C 
BRANCH  22   3
ATOM      3  O   UNL     1      -1.066  -1.734  24.309  0.00  0.00    -0.395 OA
ATOM     25  H   UNL     1      -0.146  -2.023  24.185  0.00  0.00    +0.209 HD
ENDBRANCH  22   3
ENDBRANCH  19  22
ENDBRANCH  17  19
ENDBRANCH  11  14
ENDBRANCH   8  11
TORSDOF 7
ENDMDL
MODEL 4
REMARK VINA RESULT:      -4.4      1.768      4.802
REMARK  Name = 56774005
REMARK  11 active torsions:
REMARK  status: ('A' for Active; 'I' for Inactive)
REMARK    1  A    between atoms: O_3  and  C_22
REMARK    2  A    between atoms: N_4  and  C_9
REMARK    3  A    between atoms: N_6  and  C_18
REMARK    4  A    between atoms: C_7  and  C_12
REMARK    5  A    between atoms: C_7  and  C_13
REMARK    6  A    between atoms: C_8  and  C_11
REMARK    7  A    between atoms: C_11  and  C_14
REMARK    8  A    between atoms: C_17  and  C_19
REMARK    9  A    between atoms: C_18  and  C_20
REMARK   10  A    between atoms: C_18  and  C_21
REMARK   11  A    between atoms: C_19  and  C_22
REMARK                            x       y       z     vdW  Elec       q    Type
REMARK                         _______ _______ _______ _____ _____    ______ ____
ROOT
ATOM      7  C   UNL     1      -3.318  -1.805  24.820  0.00  0.00    -0.013 C 
ATOM      8  C   UNL     1      -2.178  -1.556  23.812  0.00  0.00    +0.004 C 
ATOM      9  C   UNL     1      -4.156  -0.798  24.006  0.00  0.00    +0.081 C 
ATOM     10  C   UNL     1      -2.821  -0.180  23.542  0.00  0.00    +0.027 C 
ATOM     12  C   UNL     1      -3.815  -3.234  24.830  0.00  0.00    +0.013 C 
ATOM     13  C   UNL     1      -3.057  -1.338  26.240  0.00  0.00    +0.013 C 
ENDROOT
BRANCH   9   4
ATOM      2  O   UNL     1      -3.601   1.970  24.614  0.00  0.00    -0.253 OA
ATOM      4  N   UNL     1      -4.991   0.123  24.794  0.00  0.00    -0.296 N 
ATOM      6  N   UNL     1      -5.591   2.103  25.802  0.00  0.00    -0.297 N 
ATOM     15  C   UNL     1      -4.634   1.450  25.033  0.00  0.00    +0.300 C 
ATOM     23  H   UNL     1      -5.866  -0.202  25.198  0.00  0.00    +0.151 HD
ATOM     24  H   UNL     1      -6.447   1.608  26.034  0.00  0.00    +0.150 HD
BRANCH   6  18
ATOM     18  C   UNL     1      -5.465   3.488  26.193  0.00  0.00    +0.068 C 
ATOM     20  C   UNL     1      -6.057   4.396  25.123  0.00  0.00    +0.027 C 
ATOM     21  C   UNL     1      -4.007   3.835  26.467  0.00  0.00    +0.027 C 
ENDBRANCH   6  18
ENDBRANCH   9   4
BRANCH   8  11
ATOM     11  C   UNL     1      -0.770  -1.503  24.358  0.00  0.00    +0.063 C 
BRANCH  11  14
ATOM      1  O   UNL     1       0.725   1.768  24.064  0.00  0.00    -0.359 OA
ATOM      5  N   UNL     1       0.526   0.463  23.630  0.00  0.00    -0.083 NA
ATOM     14  C   UNL     1      -0.321  -0.070  24.516  0.00  0.00    +0.084 A 
ATOM     16  C   UNL     1      -0.686   0.842  25.521  0.00  0.00    +0.071 A 
ATOM     17  C   UNL     1      -0.003   1.981  25.190  0.00  0.00    +0.140 A 
BRANCH  17  19
ATOM     19  C   UNL     1       0.092   3.319  25.788  0.00  0.00    +0.105 C 
BRANCH  19  22
ATOM     22  C   UNL     1      -0.730   4.391  25.044  0.00  0.00    +0.163 C 
BRANCH  22   3
ATOM      3  O   UNL     1      -1.528   3.763  24.048  0.00  0.00    -0.395 OA
ATOM     25  H   UNL     1      -1.009   3.020  23.695  0.00  0.00    +0.209 HD
ENDBRANCH  22   3
ENDBRANCH  19  22
ENDBRANCH  17  19
ENDBRANCH  11  14
ENDBRANCH   8  11
TORSDOF 7
ENDMDL
MODEL 5
REMARK VINA RESULT:      -4.1      2.157      3.131
REMARK  Name = 56774005
REMARK  11 active torsions:
REMARK  status: ('A' for Active; 'I' for Inactive)
REMARK    1  A    between atoms: O_3  and  C_22
REMARK    2  A    between atoms: N_4  and  C_9
REMARK    3  A    between atoms: N_6  and  C_18
REMARK    4  A    between atoms: C_7  and  C_12
REMARK    5  A    between atoms: C_7  and  C_13
REMARK    6  A    between atoms: C_8  and  C_11
REMARK    7  A    between atoms: C_11  and  C_14
REMARK    8  A    between atoms: C_17  and  C_19
REMARK    9  A    between atoms: C_18  and  C_20
REMARK   10  A    between atoms: C_18  and  C_21
REMARK   11  A    between atoms: C_19  and  C_22
REMARK                            x       y       z     vdW  Elec       q    Type
REMARK                         _______ _______ _______ _____ _____    ______ ____
ROOT
ATOM      7  C   UNL     1      -1.536   0.291  23.966  0.00  0.00    -0.013 C 
ATOM      8  C   UNL     1      -2.589  -0.810  24.210  0.00  0.00    +0.004 C 
ATOM      9  C   UNL     1      -0.598  -0.825  23.460  0.00  0.00    +0.081 C 
ATOM     10  C   UNL     1      -1.413  -1.800  24.334  0.00  0.00    +0.027 C 
ATOM     12  C   UNL     1      -1.963   1.320  22.943  0.00  0.00    +0.013 C 
ATOM     13  C   UNL     1      -1.006   0.983  25.208  0.00  0.00    +0.013 C 
ENDROOT
BRANCH   9   4
ATOM      2  O   UNL     1       1.646  -0.143  21.776  0.00  0.00    -0.253 OA
ATOM      4  N   UNL     1       0.812  -0.706  23.865  0.00  0.00    -0.296 N 
ATOM      6  N   UNL     1       3.067  -0.322  23.603  0.00  0.00    -0.297 N 
ATOM     15  C   UNL     1       1.828  -0.369  22.971  0.00  0.00    +0.300 C 
ATOM     23  H   UNL     1       1.082  -0.878  24.830  0.00  0.00    +0.151 HD
ATOM     24  H   UNL     1       3.102  -0.450  24.610  0.00  0.00    +0.150 HD
BRANCH   6  18
ATOM     18  C   UNL     1       4.287   0.004  22.903  0.00  0.00    +0.068 C 
ATOM     20  C   UNL     1       5.495  -0.277  23.787  0.00  0.00    +0.027 C 
ATOM     21  C   UNL     1       4.266   1.454  22.440  0.00  0.00    +0.027 C 
ENDBRANCH   6  18
ENDBRANCH   9   4
BRANCH   8  11
ATOM     11  C   UNL     1      -3.449  -0.685  25.446  0.00  0.00    +0.063 C 
BRANCH  11  14
ATOM      1  O   UNL     1      -6.135   1.626  24.766  0.00  0.00    -0.359 OA
ATOM      5  N   UNL     1      -5.546   0.368  24.697  0.00  0.00    -0.083 NA
ATOM     14  C   UNL     1      -4.374   0.501  25.324  0.00  0.00    +0.084 A 
ATOM     16  C   UNL     1      -4.171   1.806  25.805  0.00  0.00    +0.071 A 
ATOM     17  C   UNL     1      -5.306   2.473  25.428  0.00  0.00    +0.140 A 
BRANCH  17  19
ATOM     19  C   UNL     1      -5.776   3.854  25.593  0.00  0.00    +0.105 C 
BRANCH  19  22
ATOM     22  C   UNL     1      -4.800   4.912  25.041  0.00  0.00    +0.163 C 
BRANCH  22   3
ATOM      3  O   UNL     1      -3.917   4.297  24.111  0.00  0.00    -0.395 OA
ATOM     25  H   UNL     1      -3.021   4.611  24.319  0.00  0.00    +0.209 HD
ENDBRANCH  22   3
ENDBRANCH  19  22
ENDBRANCH  17  19
ENDBRANCH  11  14
ENDBRANCH   8  11
TORSDOF 7
ENDMDL
MODEL 6
REMARK VINA RESULT:      -4.1      1.867      4.748
REMARK  Name = 56774005
REMARK  11 active torsions:
REMARK  status: ('A' for Active; 'I' for Inactive)
REMARK    1  A    between atoms: O_3  and  C_22
REMARK    2  A    between atoms: N_4  and  C_9
REMARK    3  A    between atoms: N_6  and  C_18
REMARK    4  A    between atoms: C_7  and  C_12
REMARK    5  A    between atoms: C_7  and  C_13
REMARK    6  A    between atoms: C_8  and  C_11
REMARK    7  A    between atoms: C_11  and  C_14
REMARK    8  A    between atoms: C_17  and  C_19
REMARK    9  A    between atoms: C_18  and  C_20
REMARK   10  A    between atoms: C_18  and  C_21
REMARK   11  A    between atoms: C_19  and  C_22
REMARK                            x       y       z     vdW  Elec       q    Type
REMARK                         _______ _______ _______ _____ _____    ______ ____
ROOT
ATOM      7  C   UNL     1       0.020   2.683  26.034  0.00  0.00    -0.013 C 
ATOM      8  C   UNL     1      -0.088   3.723  24.901  0.00  0.00    +0.004 C 
ATOM      9  C   UNL     1       0.244   1.623  24.936  0.00  0.00    +0.081 C 
ATOM     10  C   UNL     1      -0.519   2.562  23.981  0.00  0.00    +0.027 C 
ATOM     12  C   UNL     1       1.182   2.929  26.972  0.00  0.00    +0.013 C 
ATOM     13  C   UNL     1      -1.248   2.442  26.832  0.00  0.00    +0.013 C 
ENDROOT
BRANCH   9   4
ATOM      2  O   UNL     1      -2.004   0.558  23.471  0.00  0.00    -0.253 OA
ATOM      4  N   UNL     1      -0.424   0.329  25.152  0.00  0.00    -0.296 N 
ATOM      6  N   UNL     1      -1.955  -1.352  24.791  0.00  0.00    -0.297 N 
ATOM     15  C   UNL     1      -1.509  -0.097  24.387  0.00  0.00    +0.300 C 
ATOM     23  H   UNL     1      -0.103  -0.294  25.889  0.00  0.00    +0.151 HD
ATOM     24  H   UNL     1      -1.430  -1.845  25.507  0.00  0.00    +0.150 HD
BRANCH   6  18
ATOM     18  C   UNL     1      -3.068  -2.023  24.162  0.00  0.00    +0.068 C 
ATOM     20  C   UNL     1      -4.282  -1.106  24.115  0.00  0.00    +0.027 C 
ATOM     21  C   UNL     1      -3.386  -3.325  24.887  0.00  0.00    +0.027 C 
ENDBRANCH   6  18
ENDBRANCH   9   4
BRANCH   8  11
ATOM     11  C   UNL     1      -1.115   4.820  25.063  0.00  0.00    +0.063 C 
BRANCH  11  14
ATOM      1  O   UNL     1      -4.368   3.746  26.197  0.00  0.00    -0.359 OA
ATOM      5  N   UNL     1      -3.159   4.408  26.376  0.00  0.00    -0.083 NA
ATOM     14  C   UNL     1      -2.493   4.228  25.232  0.00  0.00    +0.084 A 
ATOM     16  C   UNL     1      -3.225   3.468  24.303  0.00  0.00    +0.071 A 
ATOM     17  C   UNL     1      -4.395   3.191  24.958  0.00  0.00    +0.140 A 
BRANCH  17  19
ATOM     19  C   UNL     1      -5.610   2.448  24.600  0.00  0.00    +0.105 C 
BRANCH  19  22
ATOM     22  C   UNL     1      -6.081   1.466  25.691  0.00  0.00    +0.163 C 
BRANCH  22   3
ATOM      3  O   UNL     1      -6.486   2.199  26.841  0.00  0.00    -0.395 OA
ATOM     25  H   UNL     1      -6.118   1.741  27.615  0.00  0.00    +0.209 HD
ENDBRANCH  22   3
ENDBRANCH  19  22
ENDBRANCH  17  19
ENDBRANCH  11  14
ENDBRANCH   8  11
TORSDOF 7
ENDMDL
MODEL 7
REMARK VINA RESULT:      -4.1      3.231      5.382
REMARK  Name = 56774005
REMARK  11 active torsions:
REMARK  status: ('A' for Active; 'I' for Inactive)
REMARK    1  A    between atoms: O_3  and  C_22
REMARK    2  A    between atoms: N_4  and  C_9
REMARK    3  A    between atoms: N_6  and  C_18
REMARK    4  A    between atoms: C_7  and  C_12
REMARK    5  A    between atoms: C_7  and  C_13
REMARK    6  A    between atoms: C_8  and  C_11
REMARK    7  A    between atoms: C_11  and  C_14
REMARK    8  A    between atoms: C_17  and  C_19
REMARK    9  A    between atoms: C_18  and  C_20
REMARK   10  A    between atoms: C_18  and  C_21
REMARK   11  A    between atoms: C_19  and  C_22
REMARK                            x       y       z     vdW  Elec       q    Type
REMARK                         _______ _______ _______ _____ _____    ______ ____
ROOT
ATOM      7  C   UNL     1      -1.489   3.635  25.058  0.00  0.00    -0.013 C 
ATOM      8  C   UNL     1      -1.793   2.956  23.707  0.00  0.00    +0.004 C 
ATOM      9  C   UNL     1      -0.345   2.614  25.227  0.00  0.00    +0.081 C 
ATOM     10  C   UNL     1      -1.139   1.685  24.286  0.00  0.00    +0.027 C 
ATOM     12  C   UNL     1      -1.077   5.085  24.927  0.00  0.00    +0.013 C 
ATOM     13  C   UNL     1      -2.562   3.495  26.122  0.00  0.00    +0.013 C 
ENDROOT
BRANCH   9   4
ATOM      2  O   UNL     1       1.610   3.426  27.191  0.00  0.00    -0.253 OA
ATOM      4  N   UNL     1      -0.170   2.071  26.584  0.00  0.00    -0.296 N 
ATOM      6  N   UNL     1       0.764   1.857  28.677  0.00  0.00    -0.297 N 
ATOM     15  C   UNL     1       0.810   2.533  27.462  0.00  0.00    +0.300 C 
ATOM     23  H   UNL     1      -0.773   1.321  26.915  0.00  0.00    +0.151 HD
ATOM     24  H   UNL     1       0.015   1.188  28.831  0.00  0.00    +0.150 HD
BRANCH   6  18
ATOM     18  C   UNL     1       1.671   2.143  29.764  0.00  0.00    +0.068 C 
ATOM     20  C   UNL     1       0.928   2.813  30.911  0.00  0.00    +0.027 C 
ATOM     21  C   UNL     1       2.831   3.003  29.278  0.00  0.00    +0.027 C 
ENDBRANCH   6  18
ENDBRANCH   9   4
BRANCH   8  11
ATOM     11  C   UNL     1      -3.245   2.803  23.319  0.00  0.00    +0.063 C 
BRANCH  11  14
ATOM      1  O   UNL     1      -4.926  -0.003  24.843  0.00  0.00    -0.359 OA
ATOM      5  N   UNL     1      -4.679   1.358  24.708  0.00  0.00    -0.083 NA
ATOM     14  C   UNL     1      -3.761   1.448  23.741  0.00  0.00    +0.084 A 
ATOM     16  C   UNL     1      -3.395   0.190  23.234  0.00  0.00    +0.071 A 
ATOM     17  C   UNL     1      -4.156  -0.688  23.959  0.00  0.00    +0.140 A 
BRANCH  17  19
ATOM     19  C   UNL     1      -4.293  -2.150  23.967  0.00  0.00    +0.105 C 
BRANCH  19  22
ATOM     22  C   UNL     1      -3.324  -2.859  24.933  0.00  0.00    +0.163 C 
BRANCH  22   3
ATOM      3  O   UNL     1      -1.993  -2.439  24.655  0.00  0.00    -0.395 OA
ATOM     25  H   UNL     1      -1.403  -2.990  25.197  0.00  0.00    +0.209 HD
ENDBRANCH  22   3
ENDBRANCH  19  22
ENDBRANCH  17  19
ENDBRANCH  11  14
ENDBRANCH   8  11
TORSDOF 7
ENDMDL
MODEL 8
REMARK VINA RESULT:      -3.8      2.020      5.578
REMARK  Name = 56774005
REMARK  11 active torsions:
REMARK  status: ('A' for Active; 'I' for Inactive)
REMARK    1  A    between atoms: O_3  and  C_22
REMARK    2  A    between atoms: N_4  and  C_9
REMARK    3  A    between atoms: N_6  and  C_18
REMARK    4  A    between atoms: C_7  and  C_12
REMARK    5  A    between atoms: C_7  and  C_13
REMARK    6  A    between atoms: C_8  and  C_11
REMARK    7  A    between atoms: C_11  and  C_14
REMARK    8  A    between atoms: C_17  and  C_19
REMARK    9  A    between atoms: C_18  and  C_20
REMARK   10  A    between atoms: C_18  and  C_21
REMARK   11  A    between atoms: C_19  and  C_22
REMARK                            x       y       z     vdW  Elec       q    Type
REMARK                         _______ _______ _______ _____ _____    ______ ____
ROOT
ATOM      7  C   UNL     1      -3.157  -1.547  24.652  0.00  0.00    -0.013 C 
ATOM      8  C   UNL     1      -1.869  -1.489  23.806  0.00  0.00    +0.004 C 
ATOM      9  C   UNL     1      -3.713  -0.432  23.741  0.00  0.00    +0.081 C 
ATOM     10  C   UNL     1      -2.249  -0.034  23.464  0.00  0.00    +0.027 C 
ATOM     12  C   UNL     1      -3.867  -2.881  24.583  0.00  0.00    +0.013 C 
ATOM     13  C   UNL     1      -3.017  -1.108  26.097  0.00  0.00    +0.013 C 
ENDROOT
BRANCH   9   4
ATOM      2  O   UNL     1      -3.058   2.374  23.936  0.00  0.00    -0.253 OA
ATOM      4  N   UNL     1      -4.492   0.617  24.420  0.00  0.00    -0.296 N 
ATOM      6  N   UNL     1      -4.999   2.737  25.158  0.00  0.00    -0.297 N 
ATOM     15  C   UNL     1      -4.089   1.951  24.458  0.00  0.00    +0.300 C 
ATOM     23  H   UNL     1      -5.361   0.381  24.893  0.00  0.00    +0.151 HD
ATOM     24  H   UNL     1      -5.859   2.308  25.486  0.00  0.00    +0.150 HD
BRANCH   6  18
ATOM     18  C   UNL     1      -4.819   4.158  25.346  0.00  0.00    +0.068 C 
ATOM     20  C   UNL     1      -3.765   4.421  26.413  0.00  0.00    +0.027 C 
ATOM     21  C   UNL     1      -6.143   4.822  25.701  0.00  0.00    +0.027 C 
ENDBRANCH   6  18
ENDBRANCH   9   4
BRANCH   8  11
ATOM     11  C   UNL     1      -0.554  -1.649  24.534  0.00  0.00    +0.063 C 
BRANCH  11  14
ATOM      1  O   UNL     1       1.234   1.429  23.944  0.00  0.00    -0.359 OA
ATOM      5  N   UNL     1       0.172   0.705  24.474  0.00  0.00    -0.083 NA
ATOM     14  C   UNL     1       0.409  -0.562  24.122  0.00  0.00    +0.084 A 
ATOM     16  C   UNL     1       1.593  -0.696  23.376  0.00  0.00    +0.071 A 
ATOM     17  C   UNL     1       2.073   0.583  23.293  0.00  0.00    +0.140 A 
BRANCH  17  19
ATOM     19  C   UNL     1       3.256   1.187  22.668  0.00  0.00    +0.105 C 
BRANCH  19  22
ATOM     22  C   UNL     1       4.554   0.387  22.895  0.00  0.00    +0.163 C 
BRANCH  22   3
ATOM      3  O   UNL     1       5.037   0.636  24.210  0.00  0.00    -0.395 OA
ATOM     25  H   UNL     1       4.976   1.595  24.357  0.00  0.00    +0.209 HD
ENDBRANCH  22   3
ENDBRANCH  19  22
ENDBRANCH  17  19
ENDBRANCH  11  14
ENDBRANCH   8  11
TORSDOF 7
ENDMDL
MODEL 9
REMARK VINA RESULT:      -3.7     18.767     20.160
REMARK  Name = 56774005
REMARK  11 active torsions:
REMARK  status: ('A' for Active; 'I' for Inactive)
REMARK    1  A    between atoms: O_3  and  C_22
REMARK    2  A    between atoms: N_4  and  C_9
REMARK    3  A    between atoms: N_6  and  C_18
REMARK    4  A    between atoms: C_7  and  C_12
REMARK    5  A    between atoms: C_7  and  C_13
REMARK    6  A    between atoms: C_8  and  C_11
REMARK    7  A    between atoms: C_11  and  C_14
REMARK    8  A    between atoms: C_17  and  C_19
REMARK    9  A    between atoms: C_18  and  C_20
REMARK   10  A    between atoms: C_18  and  C_21
REMARK   11  A    between atoms: C_19  and  C_22
REMARK                            x       y       z     vdW  Elec       q    Type
REMARK                         _______ _______ _______ _____ _____    ______ ____
ROOT
ATOM      7  C   UNL     1      15.540  -6.331  29.600  0.00  0.00    -0.013 C 
ATOM      8  C   UNL     1      14.422  -5.600  30.372  0.00  0.00    +0.004 C 
ATOM      9  C   UNL     1      14.430  -6.923  28.707  0.00  0.00    +0.081 C 
ATOM     10  C   UNL     1      13.469  -6.715  29.895  0.00  0.00    +0.027 C 
ATOM     12  C   UNL     1      16.516  -5.396  28.921  0.00  0.00    +0.013 C 
ATOM     13  C   UNL     1      16.295  -7.392  30.379  0.00  0.00    +0.013 C 
ENDROOT
BRANCH   9   4
ATOM      2  O   UNL     1      15.672  -7.942  26.307  0.00  0.00    -0.253 OA
ATOM      4  N   UNL     1      14.603  -8.335  28.326  0.00  0.00    -0.296 N 
ATOM      6  N   UNL     1      15.256 -10.113  27.018  0.00  0.00    -0.297 N 
ATOM     15  C   UNL     1      15.220  -8.727  27.139  0.00  0.00    +0.300 C 
ATOM     23  H   UNL     1      14.260  -9.073  28.936  0.00  0.00    +0.151 HD
ATOM     24  H   UNL     1      14.925 -10.676  27.796  0.00  0.00    +0.150 HD
BRANCH   6  18
ATOM     18  C   UNL     1      15.842 -10.781  25.880  0.00  0.00    +0.068 C 
ATOM     20  C   UNL     1      17.268 -10.294  25.656  0.00  0.00    +0.027 C 
ATOM     21  C   UNL     1      14.985 -10.571  24.638  0.00  0.00    +0.027 C 
ENDBRANCH   6  18
ENDBRANCH   9   4
BRANCH   8  11
ATOM     11  C   UNL     1      14.573  -5.492  31.872  0.00  0.00    +0.063 C 
BRANCH  11  14
ATOM      1  O   UNL     1      17.396  -3.479  32.873  0.00  0.00    -0.359 OA
ATOM      5  N   UNL     1      16.776  -4.703  32.642  0.00  0.00    -0.083 NA
ATOM     14  C   UNL     1      15.546  -4.393  32.224  0.00  0.00    +0.084 A 
ATOM     16  C   UNL     1      15.333  -3.004  32.172  0.00  0.00    +0.071 A 
ATOM     17  C   UNL     1      16.526  -2.477  32.589  0.00  0.00    +0.140 A 
BRANCH  17  19
ATOM     19  C   UNL     1      17.021  -1.107  32.780  0.00  0.00    +0.105 C 
BRANCH  19  22
ATOM     22  C   UNL     1      17.359  -0.380  31.464  0.00  0.00    +0.163 C 
BRANCH  22   3
ATOM      3  O   UNL     1      17.064   1.005  31.604  0.00  0.00    -0.395 OA
ATOM     25  H   UNL     1      16.165   1.140  31.258  0.00  0.00    +0.209 HD
ENDBRANCH  22   3
ENDBRANCH  19  22
ENDBRANCH  17  19
ENDBRANCH  11  14
ENDBRANCH   8  11
TORSDOF 7
ENDMDL
MODEL 10
REMARK VINA RESULT:      -3.1     14.146     16.247
REMARK  Name = 56774005
REMARK  11 active torsions:
REMARK  status: ('A' for Active; 'I' for Inactive)
REMARK    1  A    between atoms: O_3  and  C_22
REMARK    2  A    between atoms: N_4  and  C_9
REMARK    3  A    between atoms: N_6  and  C_18
REMARK    4  A    between atoms: C_7  and  C_12
REMARK    5  A    between atoms: C_7  and  C_13
REMARK    6  A    between atoms: C_8  and  C_11
REMARK    7  A    between atoms: C_11  and  C_14
REMARK    8  A    between atoms: C_17  and  C_19
REMARK    9  A    between atoms: C_18  and  C_20
REMARK   10  A    between atoms: C_18  and  C_21
REMARK   11  A    between atoms: C_19  and  C_22
REMARK                            x       y       z     vdW  Elec       q    Type
REMARK                         _______ _______ _______ _____ _____    ______ ____
ROOT
ATOM      7  C   UNL     1      -6.356 -10.086  14.304  0.00  0.00    -0.013 C 
ATOM      8  C   UNL     1      -5.744 -10.493  15.660  0.00  0.00    +0.004 C 
ATOM      9  C   UNL     1      -5.097 -10.684  13.643  0.00  0.00    +0.081 C 
ATOM     10  C   UNL     1      -4.365 -10.416  14.974  0.00  0.00    +0.027 C 
ATOM     12  C   UNL     1      -7.665 -10.781  13.999  0.00  0.00    +0.013 C 
ATOM     13  C   UNL     1      -6.493  -8.594  14.063  0.00  0.00    +0.013 C 
ENDROOT
BRANCH   9   4
ATOM      2  O   UNL     1      -6.129 -10.605  10.947  0.00  0.00    -0.253 OA
ATOM      4  N   UNL     1      -4.553  -9.925  12.505  0.00  0.00    -0.296 N 
ATOM      6  N   UNL     1      -4.423  -9.152  10.341  0.00  0.00    -0.297 N 
ATOM     15  C   UNL     1      -5.127  -9.953  11.235  0.00  0.00    +0.300 C 
ATOM     23  H   UNL     1      -3.719  -9.356  12.625  0.00  0.00    +0.151 HD
ATOM     24  H   UNL     1      -3.652  -8.593  10.695  0.00  0.00    +0.150 HD
BRANCH   6  18
ATOM     18  C   UNL     1      -4.808  -9.004   8.957  0.00  0.00    +0.068 C 
ATOM     20  C   UNL     1      -6.254  -8.537   8.857  0.00  0.00    +0.027 C 
ATOM     21  C   UNL     1      -4.594 -10.308   8.200  0.00  0.00    +0.027 C 
ENDBRANCH   6  18
ENDBRANCH   9   4
BRANCH   8  11
ATOM     11  C   UNL     1      -5.931  -9.540  16.819  0.00  0.00    +0.063 C 
BRANCH  11  14
ATOM      1  O   UNL     1      -9.323  -8.727  17.742  0.00  0.00    -0.359 OA
ATOM      5  N   UNL     1      -8.052  -8.382  17.296  0.00  0.00    -0.083 NA
ATOM     14  C   UNL     1      -7.374  -9.532  17.263  0.00  0.00    +0.084 A 
ATOM     16  C   UNL     1      -8.156 -10.625  17.673  0.00  0.00    +0.071 A 
ATOM     17  C   UNL     1      -9.372 -10.066  17.962  0.00  0.00    +0.140 A 
BRANCH  17  19
ATOM     19  C   UNL     1     -10.652 -10.604  18.440  0.00  0.00    +0.105 C 
BRANCH  19  22
ATOM     22  C   UNL     1     -10.719 -10.779  19.970  0.00  0.00    +0.163 C 
BRANCH  22   3
ATOM      3  O   UNL     1      -9.630 -10.088  20.570  0.00  0.00    -0.395 OA
ATOM     25  H   UNL     1      -8.918 -10.737  20.698  0.00  0.00    +0.209 HD
ENDBRANCH  22   3
ENDBRANCH  19  22
ENDBRANCH  17  19
ENDBRANCH  11  14
ENDBRANCH   8  11
TORSDOF 7
ENDMDL
