MODEL 1
REMARK VINA RESULT:       0.1      0.000      0.000
REMARK  Name = 51136752
REMARK  11 active torsions:
REMARK  status: ('A' for Active; 'I' for Inactive)
REMARK    1  A    between atoms: O_1  and  C_17
REMARK    2  A    between atoms: N_6  and  C_29
REMARK    3  A    between atoms: C_7  and  C_11
REMARK    4  A    between atoms: C_8  and  C_13
REMARK    5  A    between atoms: C_11  and  C_14
REMARK    6  A    between atoms: C_13  and  C_17
REMARK    7  A    between atoms: C_22  and  C_23
REMARK    8  A    between atoms: C_23  and  C_26
REMARK    9  A    between atoms: C_23  and  C_27
REMARK   10  A    between atoms: C_23  and  C_28
REMARK   11  A    between atoms: C_29  and  C_30
REMARK                            x       y       z     vdW  Elec       q    Type
REMARK                         _______ _______ _______ _____ _____    ______ ____
ROOT
ATOM      2  O   UNL     1       3.182  -1.056  23.189  0.00  0.00    -0.253 OA
ATOM      4  N   UNL     1       0.970  -0.418  22.916  0.00  0.00    -0.285 N 
ATOM      6  N   UNL     1       2.715   1.176  22.953  0.00  0.00    -0.300 N 
ATOM      7  C   UNL     1      -1.112   0.527  23.874  0.00  0.00    +0.016 C 
ATOM      8  C   UNL     1      -1.658  -0.918  24.023  0.00  0.00    +0.006 C 
ATOM      9  C   UNL     1      -0.520  -1.950  24.133  0.00  0.00    +0.023 C 
ATOM     10  C   UNL     1      -0.094   0.578  22.722  0.00  0.00    +0.113 C 
ATOM     12  C   UNL     1       0.486  -1.797  22.992  0.00  0.00    +0.109 C 
ATOM     16  C   UNL     1       2.345  -0.162  23.027  0.00  0.00    +0.302 C 
ATOM     31  H   UNL     1       2.027   1.913  22.893  0.00  0.00    +0.150 HD
ENDROOT
BRANCH   6  29
ATOM     29  C   UNL     1       4.093   1.601  23.059  0.00  0.00    +0.102 C 
ATOM     30  C   UNL     1       4.999   0.448  23.442  0.00  0.00    +0.024 C 
ENDBRANCH   6  29
BRANCH   7  11
ATOM     11  C   UNL     1      -0.496   1.097  25.157  0.00  0.00    +0.061 C 
BRANCH  11  14
ATOM      5  N   UNL     1       0.228   3.378  25.369  0.00  0.00    -0.287 NA
ATOM     14  C   UNL     1      -0.780   2.577  25.248  0.00  0.00    +0.044 C 
ATOM     15  C   UNL     1      -2.189   3.042  25.188  0.00  0.00    -0.001 A 
ATOM     18  C   UNL     1      -2.396   4.394  24.887  0.00  0.00    -0.037 A 
ATOM     19  C   UNL     1      -1.202   5.266  24.635  0.00  0.00    +0.059 C 
ATOM     20  C   UNL     1      -0.049   4.810  25.519  0.00  0.00    +0.146 C 
ATOM     21  C   UNL     1      -3.274   2.190  25.402  0.00  0.00    +0.014 A 
ATOM     22  C   UNL     1      -4.573   2.692  25.304  0.00  0.00    -0.041 A 
ATOM     24  C   UNL     1      -3.700   4.884  24.775  0.00  0.00    +0.004 A 
ATOM     25  C   UNL     1      -4.785   4.034  24.988  0.00  0.00    +0.004 A 
BRANCH  22  23
ATOM     23  C   UNL     1      -5.738   1.790  25.533  0.00  0.00    -0.013 C 
ATOM     26  C   UNL     1      -6.469   1.972  26.904  0.00  0.00    +0.015 C 
ATOM     27  C   UNL     1      -6.837   1.998  24.446  0.00  0.00    +0.015 C 
ATOM     28  C   UNL     1      -5.309   0.291  25.486  0.00  0.00    +0.015 C 
ENDBRANCH  22  23
ENDBRANCH  11  14
ENDBRANCH   7  11
BRANCH   8  13
ATOM     13  C   UNL     1      -2.638  -1.072  25.185  0.00  0.00    +0.124 C 
BRANCH  13  17
ATOM      3  O   UNL     1      -3.428  -3.275  25.866  0.00  0.00    -0.251 OA
ATOM     17  C   UNL     1      -3.433  -2.343  25.076  0.00  0.00    +0.305 C 
BRANCH  17   1
ATOM      1  O   UNL     1      -4.183  -2.318  23.944  0.00  0.00    -0.481 OA
ATOM     32  H   UNL     1      -3.627  -2.266  23.138  0.00  0.00    +0.295 HD
ENDBRANCH  17   1
ENDBRANCH  13  17
ENDBRANCH   8  13
TORSDOF 7
ENDMDL
MODEL 2
REMARK VINA RESULT:       1.2      2.969      5.586
REMARK  Name = 51136752
REMARK  11 active torsions:
REMARK  status: ('A' for Active; 'I' for Inactive)
REMARK    1  A    between atoms: O_1  and  C_17
REMARK    2  A    between atoms: N_6  and  C_29
REMARK    3  A    between atoms: C_7  and  C_11
REMARK    4  A    between atoms: C_8  and  C_13
REMARK    5  A    between atoms: C_11  and  C_14
REMARK    6  A    between atoms: C_13  and  C_17
REMARK    7  A    between atoms: C_22  and  C_23
REMARK    8  A    between atoms: C_23  and  C_26
REMARK    9  A    between atoms: C_23  and  C_27
REMARK   10  A    between atoms: C_23  and  C_28
REMARK   11  A    between atoms: C_29  and  C_30
REMARK                            x       y       z     vdW  Elec       q    Type
REMARK                         _______ _______ _______ _____ _____    ______ ____
ROOT
ATOM      2  O   UNL     1      -2.467   3.897  23.605  0.00  0.00    -0.253 OA
ATOM      4  N   UNL     1      -0.586   2.924  24.549  0.00  0.00    -0.285 N 
ATOM      6  N   UNL     1      -1.969   1.729  23.049  0.00  0.00    -0.300 N 
ATOM      7  C   UNL     1       0.411   1.403  26.234  0.00  0.00    +0.016 C 
ATOM      8  C   UNL     1       0.747   2.644  27.104  0.00  0.00    +0.006 C 
ATOM      9  C   UNL     1      -0.196   3.824  26.804  0.00  0.00    +0.023 C 
ATOM     10  C   UNL     1       0.354   1.812  24.752  0.00  0.00    +0.113 C 
ATOM     12  C   UNL     1      -0.252   4.130  25.308  0.00  0.00    +0.109 C 
ATOM     16  C   UNL     1      -1.723   2.919  23.725  0.00  0.00    +0.302 C 
ATOM     31  H   UNL     1      -1.403   0.907  23.201  0.00  0.00    +0.150 HD
ENDROOT
BRANCH   6  29
ATOM     29  C   UNL     1      -3.104   1.566  22.169  0.00  0.00    +0.102 C 
ATOM     30  C   UNL     1      -2.897   2.296  20.857  0.00  0.00    +0.024 C 
ENDBRANCH   6  29
BRANCH   7  11
ATOM     11  C   UNL     1      -0.881   0.687  26.641  0.00  0.00    +0.061 C 
BRANCH  11  14
ATOM      5  N   UNL     1      -0.372  -1.059  25.072  0.00  0.00    -0.287 NA
ATOM     14  C   UNL     1      -1.287  -0.291  25.565  0.00  0.00    +0.044 C 
ATOM     15  C   UNL     1      -2.706  -0.329  25.130  0.00  0.00    -0.001 A 
ATOM     18  C   UNL     1      -3.125  -1.473  24.438  0.00  0.00    -0.037 A 
ATOM     19  C   UNL     1      -2.133  -2.571  24.199  0.00  0.00    +0.059 C 
ATOM     20  C   UNL     1      -0.752  -1.966  23.984  0.00  0.00    +0.146 C 
ATOM     21  C   UNL     1      -3.606   0.705  25.398  0.00  0.00    +0.014 A 
ATOM     22  C   UNL     1      -4.933   0.588  24.981  0.00  0.00    -0.041 A 
ATOM     24  C   UNL     1      -4.459  -1.588  24.039  0.00  0.00    +0.004 A 
ATOM     25  C   UNL     1      -5.358  -0.556  24.305  0.00  0.00    +0.004 A 
BRANCH  22  23
ATOM     23  C   UNL     1      -5.900   1.687  25.261  0.00  0.00    -0.013 C 
ATOM     26  C   UNL     1      -6.576   1.645  26.671  0.00  0.00    +0.015 C 
ATOM     27  C   UNL     1      -5.210   3.084  25.173  0.00  0.00    +0.015 C 
ATOM     28  C   UNL     1      -7.077   1.679  24.236  0.00  0.00    +0.015 C 
ENDBRANCH  22  23
ENDBRANCH  11  14
ENDBRANCH   7  11
BRANCH   8  13
ATOM     13  C   UNL     1       0.770   2.339  28.601  0.00  0.00    +0.124 C 
BRANCH  13  17
ATOM      3  O   UNL     1       3.086   3.085  28.738  0.00  0.00    -0.251 OA
ATOM     17  C   UNL     1       2.165   2.402  29.158  0.00  0.00    +0.305 C 
BRANCH  17   1
ATOM      1  O   UNL     1       2.268   1.570  30.227  0.00  0.00    -0.481 OA
ATOM     32  H   UNL     1       2.272   2.064  31.075  0.00  0.00    +0.295 HD
ENDBRANCH  17   1
ENDBRANCH  13  17
ENDBRANCH   8  13
TORSDOF 7
ENDMDL
MODEL 3
REMARK VINA RESULT:       1.8      1.518      4.518
REMARK  Name = 51136752
REMARK  11 active torsions:
REMARK  status: ('A' for Active; 'I' for Inactive)
REMARK    1  A    between atoms: O_1  and  C_17
REMARK    2  A    between atoms: N_6  and  C_29
REMARK    3  A    between atoms: C_7  and  C_11
REMARK    4  A    between atoms: C_8  and  C_13
REMARK    5  A    between atoms: C_11  and  C_14
REMARK    6  A    between atoms: C_13  and  C_17
REMARK    7  A    between atoms: C_22  and  C_23
REMARK    8  A    between atoms: C_23  and  C_26
REMARK    9  A    between atoms: C_23  and  C_27
REMARK   10  A    between atoms: C_23  and  C_28
REMARK   11  A    between atoms: C_29  and  C_30
REMARK                            x       y       z     vdW  Elec       q    Type
REMARK                         _______ _______ _______ _____ _____    ______ ____
ROOT
ATOM      2  O   UNL     1      -1.979  -3.040  23.617  0.00  0.00    -0.253 OA
ATOM      4  N   UNL     1      -0.594  -1.473  24.619  0.00  0.00    -0.285 N 
ATOM      6  N   UNL     1      -2.916  -1.525  25.061  0.00  0.00    -0.300 N 
ATOM      7  C   UNL     1       0.275   0.846  24.728  0.00  0.00    +0.016 C 
ATOM      8  C   UNL     1       1.541   0.369  23.966  0.00  0.00    +0.006 C 
ATOM      9  C   UNL     1       1.258  -0.881  23.113  0.00  0.00    +0.023 C 
ATOM     10  C   UNL     1      -0.331  -0.333  25.508  0.00  0.00    +0.113 C 
ATOM     12  C   UNL     1       0.597  -1.984  23.939  0.00  0.00    +0.109 C 
ATOM     16  C   UNL     1      -1.838  -2.081  24.382  0.00  0.00    +0.302 C 
ATOM     31  H   UNL     1      -2.814  -0.698  25.630  0.00  0.00    +0.150 HD
ENDROOT
BRANCH   6  29
ATOM     29  C   UNL     1      -4.261  -2.035  24.916  0.00  0.00    +0.102 C 
ATOM     30  C   UNL     1      -4.610  -2.270  23.460  0.00  0.00    +0.024 C 
ENDBRANCH   6  29
BRANCH   7  11
ATOM     11  C   UNL     1      -0.786   1.495  23.831  0.00  0.00    +0.061 C 
BRANCH  11  14
ATOM      5  N   UNL     1      -0.088   3.727  24.378  0.00  0.00    -0.287 NA
ATOM     14  C   UNL     1      -1.076   2.896  24.312  0.00  0.00    +0.044 C 
ATOM     15  C   UNL     1      -2.470   3.253  24.677  0.00  0.00    -0.001 A 
ATOM     18  C   UNL     1      -2.777   4.619  24.741  0.00  0.00    -0.037 A 
ATOM     19  C   UNL     1      -1.699   5.613  24.428  0.00  0.00    +0.059 C 
ATOM     20  C   UNL     1      -0.358   5.070  24.904  0.00  0.00    +0.146 C 
ATOM     21  C   UNL     1      -3.452   2.295  24.935  0.00  0.00    +0.014 A 
ATOM     22  C   UNL     1      -4.749   2.705  25.248  0.00  0.00    -0.041 A 
ATOM     24  C   UNL     1      -4.082   5.019  25.039  0.00  0.00    +0.004 A 
ATOM     25  C   UNL     1      -5.064   4.063  25.297  0.00  0.00    +0.004 A 
BRANCH  22  23
ATOM     23  C   UNL     1      -5.804   1.689  25.526  0.00  0.00    -0.013 C 
ATOM     26  C   UNL     1      -6.922   1.565  24.439  0.00  0.00    +0.015 C 
ATOM     27  C   UNL     1      -5.192   0.259  25.656  0.00  0.00    +0.015 C 
ATOM     28  C   UNL     1      -6.553   2.003  26.858  0.00  0.00    +0.015 C 
ENDBRANCH  22  23
ENDBRANCH  11  14
ENDBRANCH   7  11
BRANCH   8  13
ATOM     13  C   UNL     1       2.178   1.468  23.116  0.00  0.00    +0.124 C 
BRANCH  13  17
ATOM      3  O   UNL     1       4.556   1.036  23.431  0.00  0.00    -0.251 OA
ATOM     17  C   UNL     1       3.578   1.107  22.703  0.00  0.00    +0.305 C 
BRANCH  17   1
ATOM      1  O   UNL     1       3.612   0.863  21.367  0.00  0.00    -0.481 OA
ATOM     32  H   UNL     1       4.165   1.518  20.890  0.00  0.00    +0.295 HD
ENDBRANCH  17   1
ENDBRANCH  13  17
ENDBRANCH   8  13
TORSDOF 7
ENDMDL
MODEL 4
REMARK VINA RESULT:       2.8      2.872      5.205
REMARK  Name = 51136752
REMARK  11 active torsions:
REMARK  status: ('A' for Active; 'I' for Inactive)
REMARK    1  A    between atoms: O_1  and  C_17
REMARK    2  A    between atoms: N_6  and  C_29
REMARK    3  A    between atoms: C_7  and  C_11
REMARK    4  A    between atoms: C_8  and  C_13
REMARK    5  A    between atoms: C_11  and  C_14
REMARK    6  A    between atoms: C_13  and  C_17
REMARK    7  A    between atoms: C_22  and  C_23
REMARK    8  A    between atoms: C_23  and  C_26
REMARK    9  A    between atoms: C_23  and  C_27
REMARK   10  A    between atoms: C_23  and  C_28
REMARK   11  A    between atoms: C_29  and  C_30
REMARK                            x       y       z     vdW  Elec       q    Type
REMARK                         _______ _______ _______ _____ _____    ______ ____
ROOT
ATOM      2  O   UNL     1       2.340   3.462  27.637  0.00  0.00    -0.253 OA
ATOM      4  N   UNL     1       0.220   3.162  26.746  0.00  0.00    -0.285 N 
ATOM      6  N   UNL     1       0.841   2.180  28.805  0.00  0.00    -0.300 N 
ATOM      7  C   UNL     1      -1.403   1.731  25.538  0.00  0.00    +0.016 C 
ATOM      8  C   UNL     1      -1.087   2.527  24.243  0.00  0.00    +0.006 C 
ATOM      9  C   UNL     1       0.317   3.159  24.289  0.00  0.00    +0.023 C 
ATOM     10  C   UNL     1      -1.146   2.621  26.766  0.00  0.00    +0.113 C 
ATOM     12  C   UNL     1       0.522   3.974  25.566  0.00  0.00    +0.109 C 
ATOM     16  C   UNL     1       1.210   2.972  27.724  0.00  0.00    +0.302 C 
ATOM     31  H   UNL     1      -0.057   1.721  28.843  0.00  0.00    +0.150 HD
ENDROOT
BRANCH   6  29
ATOM     29  C   UNL     1       1.752   1.886  29.889  0.00  0.00    +0.102 C 
ATOM     30  C   UNL     1       1.134   2.209  31.234  0.00  0.00    +0.024 C 
ENDBRANCH   6  29
BRANCH   7  11
ATOM     11  C   UNL     1      -0.632   0.412  25.663  0.00  0.00    +0.061 C 
BRANCH  11  14
ATOM      5  N   UNL     1      -0.635  -1.615  24.374  0.00  0.00    -0.287 NA
ATOM     14  C   UNL     1      -1.350  -0.676  24.901  0.00  0.00    +0.044 C 
ATOM     15  C   UNL     1      -2.830  -0.621  24.797  0.00  0.00    -0.001 A 
ATOM     18  C   UNL     1      -3.483  -1.807  24.437  0.00  0.00    -0.037 A 
ATOM     19  C   UNL     1      -2.660  -3.037  24.198  0.00  0.00    +0.059 C 
ATOM     20  C   UNL     1      -1.326  -2.638  23.582  0.00  0.00    +0.146 C 
ATOM     21  C   UNL     1      -3.562   0.540  25.056  0.00  0.00    +0.014 A 
ATOM     22  C   UNL     1      -4.955   0.510  24.964  0.00  0.00    -0.041 A 
ATOM     24  C   UNL     1      -4.879  -1.831  24.363  0.00  0.00    +0.004 A 
ATOM     25  C   UNL     1      -5.611  -0.672  24.621  0.00  0.00    +0.004 A 
BRANCH  22  23
ATOM     23  C   UNL     1      -5.745   1.745  25.236  0.00  0.00    -0.013 C 
ATOM     26  C   UNL     1      -4.938   3.084  25.182  0.00  0.00    +0.015 C 
ATOM     27  C   UNL     1      -6.902   1.916  24.204  0.00  0.00    +0.015 C 
ATOM     28  C   UNL     1      -6.385   1.703  26.659  0.00  0.00    +0.015 C 
ENDBRANCH  22  23
ENDBRANCH  11  14
ENDBRANCH   7  11
BRANCH   8  13
ATOM     13  C   UNL     1      -1.263   1.698  22.971  0.00  0.00    +0.124 C 
BRANCH  13  17
ATOM      3  O   UNL     1      -3.446   2.706  22.576  0.00  0.00    -0.251 OA
ATOM     17  C   UNL     1      -2.429   2.178  22.153  0.00  0.00    +0.305 C 
BRANCH  17   1
ATOM      1  O   UNL     1      -2.194   1.939  20.837  0.00  0.00    -0.481 OA
ATOM     32  H   UNL     1      -1.235   1.952  20.628  0.00  0.00    +0.295 HD
ENDBRANCH  17   1
ENDBRANCH  13  17
ENDBRANCH   8  13
TORSDOF 7
ENDMDL
MODEL 5
REMARK VINA RESULT:       3.9      2.174      3.586
REMARK  Name = 51136752
REMARK  11 active torsions:
REMARK  status: ('A' for Active; 'I' for Inactive)
REMARK    1  A    between atoms: O_1  and  C_17
REMARK    2  A    between atoms: N_6  and  C_29
REMARK    3  A    between atoms: C_7  and  C_11
REMARK    4  A    between atoms: C_8  and  C_13
REMARK    5  A    between atoms: C_11  and  C_14
REMARK    6  A    between atoms: C_13  and  C_17
REMARK    7  A    between atoms: C_22  and  C_23
REMARK    8  A    between atoms: C_23  and  C_26
REMARK    9  A    between atoms: C_23  and  C_27
REMARK   10  A    between atoms: C_23  and  C_28
REMARK   11  A    between atoms: C_29  and  C_30
REMARK                            x       y       z     vdW  Elec       q    Type
REMARK                         _______ _______ _______ _____ _____    ______ ____
ROOT
ATOM      2  O   UNL     1       3.705  -1.535  23.184  0.00  0.00    -0.253 OA
ATOM      4  N   UNL     1       2.452   0.353  22.690  0.00  0.00    -0.285 N 
ATOM      6  N   UNL     1       4.291   0.449  24.173  0.00  0.00    -0.300 N 
ATOM      7  C   UNL     1       0.702   1.983  23.344  0.00  0.00    +0.016 C 
ATOM      8  C   UNL     1      -0.303   1.211  22.447  0.00  0.00    +0.006 C 
ATOM      9  C   UNL     1       0.109  -0.262  22.266  0.00  0.00    +0.023 C 
ATOM     10  C   UNL     1       2.131   1.782  22.809  0.00  0.00    +0.113 C 
ATOM     12  C   UNL     1       1.558  -0.385  21.796  0.00  0.00    +0.109 C 
ATOM     16  C   UNL     1       3.497  -0.327  23.335  0.00  0.00    +0.302 C 
ATOM     31  H   UNL     1       4.079   1.420  24.353  0.00  0.00    +0.150 HD
ENDROOT
BRANCH   6  29
ATOM     29  C   UNL     1       5.401  -0.107  24.912  0.00  0.00    +0.102 C 
ATOM     30  C   UNL     1       6.548  -0.477  23.994  0.00  0.00    +0.024 C 
ENDBRANCH   6  29
BRANCH   7  11
ATOM     11  C   UNL     1       0.630   1.608  24.828  0.00  0.00    +0.061 C 
BRANCH  11  14
ATOM      5  N   UNL     1      -0.583   3.347  25.958  0.00  0.00    -0.287 NA
ATOM     14  C   UNL     1      -0.635   2.165  25.437  0.00  0.00    +0.044 C 
ATOM     15  C   UNL     1      -1.869   1.340  25.402  0.00  0.00    -0.001 A 
ATOM     18  C   UNL     1      -3.082   2.009  25.610  0.00  0.00    -0.037 A 
ATOM     19  C   UNL     1      -3.056   3.492  25.835  0.00  0.00    +0.059 C 
ATOM     20  C   UNL     1      -1.795   3.863  26.603  0.00  0.00    +0.146 C 
ATOM     21  C   UNL     1      -1.851  -0.035  25.162  0.00  0.00    +0.014 A 
ATOM     22  C   UNL     1      -3.055  -0.742  25.119  0.00  0.00    -0.041 A 
ATOM     24  C   UNL     1      -4.283   1.296  25.549  0.00  0.00    +0.004 A 
ATOM     25  C   UNL     1      -4.266  -0.077  25.309  0.00  0.00    +0.004 A 
BRANCH  22  23
ATOM     23  C   UNL     1      -3.046  -2.211  24.865  0.00  0.00    -0.013 C 
ATOM     26  C   UNL     1      -1.746  -2.769  24.195  0.00  0.00    +0.015 C 
ATOM     27  C   UNL     1      -3.207  -3.016  26.191  0.00  0.00    +0.015 C 
ATOM     28  C   UNL     1      -4.213  -2.627  23.917  0.00  0.00    +0.015 C 
ENDBRANCH  22  23
ENDBRANCH  11  14
ENDBRANCH   7  11
BRANCH   8  13
ATOM     13  C   UNL     1      -1.746   1.310  22.940  0.00  0.00    +0.124 C 
BRANCH  13  17
ATOM      3  O   UNL     1      -2.458   2.177  20.776  0.00  0.00    -0.251 OA
ATOM     17  C   UNL     1      -2.605   2.092  21.986  0.00  0.00    +0.305 C 
BRANCH  17   1
ATOM      1  O   UNL     1      -3.600   2.714  22.670  0.00  0.00    -0.481 OA
ATOM     32  H   UNL     1      -3.948   3.491  22.183  0.00  0.00    +0.295 HD
ENDBRANCH  17   1
ENDBRANCH  13  17
ENDBRANCH   8  13
TORSDOF 7
ENDMDL
MODEL 6
REMARK VINA RESULT:       3.9      3.004      7.536
REMARK  Name = 51136752
REMARK  11 active torsions:
REMARK  status: ('A' for Active; 'I' for Inactive)
REMARK    1  A    between atoms: O_1  and  C_17
REMARK    2  A    between atoms: N_6  and  C_29
REMARK    3  A    between atoms: C_7  and  C_11
REMARK    4  A    between atoms: C_8  and  C_13
REMARK    5  A    between atoms: C_11  and  C_14
REMARK    6  A    between atoms: C_13  and  C_17
REMARK    7  A    between atoms: C_22  and  C_23
REMARK    8  A    between atoms: C_23  and  C_26
REMARK    9  A    between atoms: C_23  and  C_27
REMARK   10  A    between atoms: C_23  and  C_28
REMARK   11  A    between atoms: C_29  and  C_30
REMARK                            x       y       z     vdW  Elec       q    Type
REMARK                         _______ _______ _______ _____ _____    ______ ____
ROOT
ATOM      2  O   UNL     1      -5.891   4.383  26.005  0.00  0.00    -0.253 OA
ATOM      4  N   UNL     1      -4.236   3.532  24.621  0.00  0.00    -0.285 N 
ATOM      6  N   UNL     1      -6.016   2.178  25.390  0.00  0.00    -0.300 N 
ATOM      7  C   UNL     1      -2.166   2.197  24.343  0.00  0.00    +0.016 C 
ATOM      8  C   UNL     1      -1.357   3.521  24.319  0.00  0.00    +0.006 C 
ATOM      9  C   UNL     1      -2.093   4.653  25.060  0.00  0.00    +0.023 C 
ATOM     10  C   UNL     1      -3.599   2.458  23.847  0.00  0.00    +0.113 C 
ATOM     12  C   UNL     1      -3.528   4.811  24.559  0.00  0.00    +0.109 C 
ATOM     16  C   UNL     1      -5.414   3.431  25.379  0.00  0.00    +0.302 C 
ATOM     31  H   UNL     1      -5.590   1.382  24.937  0.00  0.00    +0.150 HD
ENDROOT
BRANCH   6  29
ATOM     29  C   UNL     1      -7.230   1.914  26.129  0.00  0.00    +0.102 C 
ATOM     30  C   UNL     1      -6.932   1.305  27.484  0.00  0.00    +0.024 C 
ENDBRANCH   6  29
BRANCH   7  11
ATOM     11  C   UNL     1      -2.193   1.507  25.712  0.00  0.00    +0.061 C 
BRANCH  11  14
ATOM      5  N   UNL     1      -3.277  -0.586  26.176  0.00  0.00    -0.287 NA
ATOM     14  C   UNL     1      -2.331   0.014  25.531  0.00  0.00    +0.044 C 
ATOM     15  C   UNL     1      -1.388  -0.688  24.624  0.00  0.00    -0.001 A 
ATOM     18  C   UNL     1      -1.768  -1.961  24.180  0.00  0.00    -0.037 A 
ATOM     19  C   UNL     1      -3.087  -2.516  24.631  0.00  0.00    +0.059 C 
ATOM     20  C   UNL     1      -3.374  -2.043  26.049  0.00  0.00    +0.146 C 
ATOM     21  C   UNL     1      -0.181  -0.123  24.207  0.00  0.00    +0.014 A 
ATOM     22  C   UNL     1       0.644  -0.833  23.332  0.00  0.00    -0.041 A 
ATOM     24  C   UNL     1      -0.943  -2.656  23.292  0.00  0.00    +0.004 A 
ATOM     25  C   UNL     1       0.263  -2.094  22.874  0.00  0.00    +0.004 A 
BRANCH  22  23
ATOM     23  C   UNL     1       1.935  -0.239  22.882  0.00  0.00    -0.013 C 
ATOM     26  C   UNL     1       3.223  -0.944  23.422  0.00  0.00    +0.015 C 
ATOM     27  C   UNL     1       2.064  -0.275  21.328  0.00  0.00    +0.015 C 
ATOM     28  C   UNL     1       2.058   1.251  23.330  0.00  0.00    +0.015 C 
ENDBRANCH  22  23
ENDBRANCH  11  14
ENDBRANCH   7  11
BRANCH   8  13
ATOM     13  C   UNL     1       0.067   3.365  24.851  0.00  0.00    +0.124 C 
BRANCH  13  17
ATOM      3  O   UNL     1      -0.812   3.150  27.114  0.00  0.00    -0.251 OA
ATOM     17  C   UNL     1       0.076   2.958  26.298  0.00  0.00    +0.305 C 
BRANCH  17   1
ATOM      1  O   UNL     1       1.243   2.326  26.588  0.00  0.00    -0.481 OA
ATOM     32  H   UNL     1       1.545   1.759  25.847  0.00  0.00    +0.295 HD
ENDBRANCH  17   1
ENDBRANCH  13  17
ENDBRANCH   8  13
TORSDOF 7
ENDMDL
