MODEL 1
REMARK VINA RESULT:      -4.2      0.000      0.000
REMARK  Name = 45783780
REMARK  6 active torsions:
REMARK  status: ('A' for Active; 'I' for Inactive)
REMARK    1  A    between atoms: N_2  and  C_12
REMARK    2  A    between atoms: N_7  and  C_24
REMARK    3  A    between atoms: N_7  and  C_25
REMARK    4  A    between atoms: C_8  and  C_13
REMARK    5  A    between atoms: C_12  and  C_14
REMARK    6  A    between atoms: C_15  and  C_18
REMARK                            x       y       z     vdW  Elec       q    Type
REMARK                         _______ _______ _______ _____ _____    ______ ____
ROOT
ATOM      1  O   UNL     1      -2.183   2.799  25.550  0.00  0.00    -0.336 OA
ATOM      3  N   UNL     1      -1.925   1.710  23.609  0.00  0.00    -0.190 NA
ATOM      4  N   UNL     1      -0.820   2.485  25.456  0.00  0.00    -0.056 NA
ATOM     13  C   UNL     1      -2.760   2.305  24.423  0.00  0.00    +0.245 A 
ATOM     15  C   UNL     1      -0.748   1.845  24.285  0.00  0.00    +0.204 A 
ENDROOT
BRANCH  15  18
ATOM      6  N   UNL     1       2.841   1.650  23.332  0.00  0.00    -0.240 NA
ATOM     18  C   UNL     1       0.484   1.328  23.764  0.00  0.00    +0.041 A 
ATOM     21  C   UNL     1       0.548   0.058  23.201  0.00  0.00    +0.016 A 
ATOM     22  C   UNL     1       1.649   2.077  23.805  0.00  0.00    +0.124 A 
ATOM     23  C   UNL     1       1.756  -0.417  22.704  0.00  0.00    +0.044 A 
ATOM     24  C   UNL     1       2.864   0.411  22.792  0.00  0.00    +0.118 A 
BRANCH  24   7
ATOM      7  N   UNL     1       4.088  -0.087  22.283  0.00  0.00    -0.332 N 
ATOM     25  C   UNL     1       5.311  -0.023  23.016  0.00  0.00    +0.127 C 
ATOM     26  H   UNL     1       4.040  -0.696  21.473  0.00  0.00    +0.147 HD
ENDBRANCH  24   7
ENDBRANCH  15  18
BRANCH  13   8
ATOM      2  N   UNL     1      -5.042   1.533  25.046  0.00  0.00    -0.287 NA
ATOM      8  C   UNL     1      -4.253   2.518  24.280  0.00  0.00    +0.146 C 
ATOM      9  C   UNL     1      -4.711   3.888  24.814  0.00  0.00    +0.030 C 
ATOM     10  C   UNL     1      -5.801   3.574  25.830  0.00  0.00    +0.017 C 
ATOM     11  C   UNL     1      -6.290   2.201  25.415  0.00  0.00    +0.085 C 
BRANCH   2  12
ATOM     12  C   UNL     1      -5.278   0.294  24.317  0.00  0.00    +0.121 C 
BRANCH  12  14
ATOM      5  N   UNL     1      -2.325  -1.437  25.933  0.00  0.00    -0.263 NA
ATOM     14  C   UNL     1      -4.215  -0.734  24.600  0.00  0.00    -0.015 A 
ATOM     16  C   UNL     1      -4.119  -1.894  23.839  0.00  0.00    +0.008 A 
ATOM     17  C   UNL     1      -3.302  -0.554  25.626  0.00  0.00    +0.115 A 
ATOM     19  C   UNL     1      -3.127  -2.826  24.124  0.00  0.00    +0.020 A 
ATOM     20  C   UNL     1      -2.263  -2.553  25.172  0.00  0.00    +0.111 A 
ENDBRANCH  12  14
ENDBRANCH   2  12
ENDBRANCH  13   8
TORSDOF 5
ENDMDL
MODEL 2
REMARK VINA RESULT:      -2.6      1.319      1.613
REMARK  Name = 45783780
REMARK  6 active torsions:
REMARK  status: ('A' for Active; 'I' for Inactive)
REMARK    1  A    between atoms: N_2  and  C_12
REMARK    2  A    between atoms: N_7  and  C_24
REMARK    3  A    between atoms: N_7  and  C_25
REMARK    4  A    between atoms: C_8  and  C_13
REMARK    5  A    between atoms: C_12  and  C_14
REMARK    6  A    between atoms: C_15  and  C_18
REMARK                            x       y       z     vdW  Elec       q    Type
REMARK                         _______ _______ _______ _____ _____    ______ ____
ROOT
ATOM      1  O   UNL     1      -2.400   1.205  22.744  0.00  0.00    -0.336 OA
ATOM      3  N   UNL     1      -0.805   2.126  24.019  0.00  0.00    -0.190 NA
ATOM      4  N   UNL     1      -1.200   0.580  22.379  0.00  0.00    -0.056 NA
ATOM     13  C   UNL     1      -2.078   2.101  23.713  0.00  0.00    +0.245 A 
ATOM     15  C   UNL     1      -0.307   1.177  23.175  0.00  0.00    +0.204 A 
ENDROOT
BRANCH  15  18
ATOM      6  N   UNL     1       3.388   1.592  23.221  0.00  0.00    -0.240 NA
ATOM     18  C   UNL     1       1.088   0.848  23.150  0.00  0.00    +0.041 A 
ATOM     21  C   UNL     1       1.512  -0.472  23.039  0.00  0.00    +0.016 A 
ATOM     22  C   UNL     1       2.058   1.834  23.238  0.00  0.00    +0.124 A 
ATOM     23  C   UNL     1       2.872  -0.761  23.018  0.00  0.00    +0.044 A 
ATOM     24  C   UNL     1       3.762   0.298  23.111  0.00  0.00    +0.118 A 
BRANCH  24   7
ATOM      7  N   UNL     1       5.144  -0.012  23.091  0.00  0.00    -0.332 N 
ATOM     25  C   UNL     1       5.803  -0.666  24.174  0.00  0.00    +0.127 C 
ATOM     26  H   UNL     1       5.616   0.038  22.195  0.00  0.00    +0.147 HD
ENDBRANCH  24   7
ENDBRANCH  15  18
BRANCH  13   8
ATOM      2  N   UNL     1      -3.865   2.261  25.438  0.00  0.00    -0.287 NA
ATOM      8  C   UNL     1      -3.219   2.917  24.284  0.00  0.00    +0.146 C 
ATOM      9  C   UNL     1      -2.760   4.287  24.818  0.00  0.00    +0.030 C 
ATOM     10  C   UNL     1      -3.245   4.335  26.260  0.00  0.00    +0.017 C 
ATOM     11  C   UNL     1      -4.384   3.334  26.286  0.00  0.00    +0.085 C 
BRANCH   2  12
ATOM     12  C   UNL     1      -4.903   1.314  25.054  0.00  0.00    +0.121 C 
BRANCH  12  14
ATOM      5  N   UNL     1      -3.061  -1.873  25.934  0.00  0.00    -0.263 NA
ATOM     14  C   UNL     1      -4.372  -0.092  24.960  0.00  0.00    -0.015 A 
ATOM     16  C   UNL     1      -4.673  -0.900  23.869  0.00  0.00    +0.008 A 
ATOM     17  C   UNL     1      -3.570  -0.621  25.957  0.00  0.00    +0.115 A 
ATOM     19  C   UNL     1      -4.168  -2.194  23.810  0.00  0.00    +0.020 A 
ATOM     20  C   UNL     1      -3.375  -2.630  24.859  0.00  0.00    +0.111 A 
ENDBRANCH  12  14
ENDBRANCH   2  12
ENDBRANCH  13   8
TORSDOF 5
ENDMDL
MODEL 3
REMARK VINA RESULT:      -2.3      1.802      3.621
REMARK  Name = 45783780
REMARK  6 active torsions:
REMARK  status: ('A' for Active; 'I' for Inactive)
REMARK    1  A    between atoms: N_2  and  C_12
REMARK    2  A    between atoms: N_7  and  C_24
REMARK    3  A    between atoms: N_7  and  C_25
REMARK    4  A    between atoms: C_8  and  C_13
REMARK    5  A    between atoms: C_12  and  C_14
REMARK    6  A    between atoms: C_15  and  C_18
REMARK                            x       y       z     vdW  Elec       q    Type
REMARK                         _______ _______ _______ _____ _____    ______ ____
ROOT
ATOM      1  O   UNL     1      -3.176   1.689  23.083  0.00  0.00    -0.336 OA
ATOM      3  N   UNL     1      -1.714   0.953  24.611  0.00  0.00    -0.190 NA
ATOM      4  N   UNL     1      -1.953   1.546  22.415  0.00  0.00    -0.056 NA
ATOM     13  C   UNL     1      -2.947   1.320  24.370  0.00  0.00    +0.245 A 
ATOM     15  C   UNL     1      -1.142   1.109  23.382  0.00  0.00    +0.204 A 
ENDROOT
BRANCH  15  18
ATOM      6  N   UNL     1       2.564   1.363  23.565  0.00  0.00    -0.240 NA
ATOM     18  C   UNL     1       0.244   0.818  23.154  0.00  0.00    +0.041 A 
ATOM     21  C   UNL     1       0.630  -0.241  22.340  0.00  0.00    +0.016 A 
ATOM     22  C   UNL     1       1.241   1.583  23.738  0.00  0.00    +0.124 A 
ATOM     23  C   UNL     1       1.981  -0.499  22.138  0.00  0.00    +0.044 A 
ATOM     24  C   UNL     1       2.901   0.325  22.767  0.00  0.00    +0.118 A 
BRANCH  24   7
ATOM      7  N   UNL     1       4.273   0.049  22.552  0.00  0.00    -0.332 N 
ATOM     25  C   UNL     1       5.270   0.279  23.547  0.00  0.00    +0.127 C 
ATOM     26  H   UNL     1       4.510  -0.528  21.752  0.00  0.00    +0.147 HD
ENDBRANCH  24   7
ENDBRANCH  15  18
BRANCH  13   8
ATOM      2  N   UNL     1      -4.720   2.738  25.391  0.00  0.00    -0.287 NA
ATOM      8  C   UNL     1      -4.131   1.386  25.312  0.00  0.00    +0.146 C 
ATOM      9  C   UNL     1      -5.294   0.477  24.870  0.00  0.00    +0.030 C 
ATOM     10  C   UNL     1      -6.505   1.396  24.785  0.00  0.00    +0.017 C 
ATOM     11  C   UNL     1      -6.139   2.553  25.693  0.00  0.00    +0.085 C 
BRANCH   2  12
ATOM     12  C   UNL     1      -4.059   3.596  26.366  0.00  0.00    +0.121 C 
BRANCH  12  14
ATOM      5  N   UNL     1      -0.307   3.722  25.879  0.00  0.00    -0.263 NA
ATOM     14  C   UNL     1      -2.703   4.045  25.890  0.00  0.00    -0.015 A 
ATOM     16  C   UNL     1      -2.565   5.148  25.054  0.00  0.00    +0.008 A 
ATOM     17  C   UNL     1      -1.553   3.372  26.270  0.00  0.00    +0.115 A 
ATOM     19  C   UNL     1      -1.300   5.539  24.631  0.00  0.00    +0.020 A 
ATOM     20  C   UNL     1      -0.213   4.799  25.067  0.00  0.00    +0.111 A 
ENDBRANCH  12  14
ENDBRANCH   2  12
ENDBRANCH  13   8
TORSDOF 5
ENDMDL
MODEL 4
REMARK VINA RESULT:      -0.8      1.977      4.142
REMARK  Name = 45783780
REMARK  6 active torsions:
REMARK  status: ('A' for Active; 'I' for Inactive)
REMARK    1  A    between atoms: N_2  and  C_12
REMARK    2  A    between atoms: N_7  and  C_24
REMARK    3  A    between atoms: N_7  and  C_25
REMARK    4  A    between atoms: C_8  and  C_13
REMARK    5  A    between atoms: C_12  and  C_14
REMARK    6  A    between atoms: C_15  and  C_18
REMARK                            x       y       z     vdW  Elec       q    Type
REMARK                         _______ _______ _______ _____ _____    ______ ____
ROOT
ATOM      1  O   UNL     1      -0.764  -0.018  22.525  0.00  0.00    -0.336 OA
ATOM      3  N   UNL     1       0.493   0.041  24.378  0.00  0.00    -0.190 NA
ATOM      4  N   UNL     1       0.569  -0.074  22.095  0.00  0.00    -0.056 NA
ATOM     13  C   UNL     1      -0.717   0.050  23.881  0.00  0.00    +0.245 A 
ATOM     15  C   UNL     1       1.249  -0.035  23.245  0.00  0.00    +0.204 A 
ENDROOT
BRANCH  15  18
ATOM      6  N   UNL     1       4.701  -1.292  23.821  0.00  0.00    -0.240 NA
ATOM     18  C   UNL     1       2.681  -0.070  23.295  0.00  0.00    +0.041 A 
ATOM     21  C   UNL     1       3.440   1.023  22.889  0.00  0.00    +0.016 A 
ATOM     22  C   UNL     1       3.354  -1.194  23.748  0.00  0.00    +0.124 A 
ATOM     23  C   UNL     1       4.828   0.959  22.948  0.00  0.00    +0.044 A 
ATOM     24  C   UNL     1       5.405  -0.210  23.419  0.00  0.00    +0.118 A 
BRANCH  24   7
ATOM      7  N   UNL     1       6.819  -0.260  23.472  0.00  0.00    -0.332 N 
ATOM     25  C   UNL     1       7.604  -0.925  22.483  0.00  0.00    +0.127 C 
ATOM     26  H   UNL     1       7.281   0.378  24.110  0.00  0.00    +0.147 HD
ENDBRANCH  24   7
ENDBRANCH  15  18
BRANCH  13   8
ATOM      2  N   UNL     1      -3.196   0.147  23.668  0.00  0.00    -0.287 NA
ATOM      8  C   UNL     1      -2.050   0.120  24.599  0.00  0.00    +0.146 C 
ATOM      9  C   UNL     1      -2.305  -1.104  25.500  0.00  0.00    +0.030 C 
ATOM     10  C   UNL     1      -3.645  -1.662  25.040  0.00  0.00    +0.017 C 
ATOM     11  C   UNL     1      -4.315  -0.478  24.373  0.00  0.00    +0.085 C 
BRANCH   2  12
ATOM     12  C   UNL     1      -3.522   1.487  23.199  0.00  0.00    +0.121 C 
BRANCH  12  14
ATOM      5  N   UNL     1      -4.310   3.790  26.098  0.00  0.00    -0.263 NA
ATOM     14  C   UNL     1      -3.347   2.519  24.282  0.00  0.00    -0.015 A 
ATOM     16  C   UNL     1      -2.123   3.147  24.482  0.00  0.00    +0.008 A 
ATOM     17  C   UNL     1      -4.400   2.873  25.108  0.00  0.00    +0.115 A 
ATOM     19  C   UNL     1      -1.991   4.096  25.489  0.00  0.00    +0.020 A 
ATOM     20  C   UNL     1      -3.105   4.379  26.263  0.00  0.00    +0.111 A 
ENDBRANCH  12  14
ENDBRANCH   2  12
ENDBRANCH  13   8
TORSDOF 5
ENDMDL
MODEL 5
REMARK VINA RESULT:      -0.8      0.989      1.512
REMARK  Name = 45783780
REMARK  6 active torsions:
REMARK  status: ('A' for Active; 'I' for Inactive)
REMARK    1  A    between atoms: N_2  and  C_12
REMARK    2  A    between atoms: N_7  and  C_24
REMARK    3  A    between atoms: N_7  and  C_25
REMARK    4  A    between atoms: C_8  and  C_13
REMARK    5  A    between atoms: C_12  and  C_14
REMARK    6  A    between atoms: C_15  and  C_18
REMARK                            x       y       z     vdW  Elec       q    Type
REMARK                         _______ _______ _______ _____ _____    ______ ____
ROOT
ATOM      1  O   UNL     1      -2.025   1.860  25.686  0.00  0.00    -0.336 OA
ATOM      3  N   UNL     1      -1.562   1.510  23.523  0.00  0.00    -0.190 NA
ATOM      4  N   UNL     1      -0.651   1.592  25.620  0.00  0.00    -0.056 NA
ATOM     13  C   UNL     1      -2.483   1.791  24.409  0.00  0.00    +0.245 A 
ATOM     15  C   UNL     1      -0.455   1.396  24.313  0.00  0.00    +0.204 A 
ENDROOT
BRANCH  15  18
ATOM      6  N   UNL     1       2.278  -0.505  22.657  0.00  0.00    -0.240 NA
ATOM     18  C   UNL     1       0.833   1.086  23.764  0.00  0.00    +0.041 A 
ATOM     21  C   UNL     1       1.867   2.016  23.790  0.00  0.00    +0.016 A 
ATOM     22  C   UNL     1       1.088  -0.150  23.191  0.00  0.00    +0.124 A 
ATOM     23  C   UNL     1       3.105   1.688  23.250  0.00  0.00    +0.044 A 
ATOM     24  C   UNL     1       3.258   0.424  22.701  0.00  0.00    +0.118 A 
BRANCH  24   7
ATOM      7  N   UNL     1       4.525   0.105  22.153  0.00  0.00    -0.332 N 
ATOM     25  C   UNL     1       5.682  -0.109  22.960  0.00  0.00    +0.127 C 
ATOM     26  H   UNL     1       4.549  -0.191  21.183  0.00  0.00    +0.147 HD
ENDBRANCH  24   7
ENDBRANCH  15  18
BRANCH  13   8
ATOM      2  N   UNL     1      -4.733   1.943  25.464  0.00  0.00    -0.287 NA
ATOM      8  C   UNL     1      -3.963   2.047  24.208  0.00  0.00    +0.146 C 
ATOM      9  C   UNL     1      -4.255   3.466  23.685  0.00  0.00    +0.030 C 
ATOM     10  C   UNL     1      -5.244   4.060  24.679  0.00  0.00    +0.017 C 
ATOM     11  C   UNL     1      -5.878   2.842  25.321  0.00  0.00    +0.085 C 
BRANCH   2  12
ATOM     12  C   UNL     1      -5.141   0.580  25.776  0.00  0.00    +0.121 C 
BRANCH  12  14
ATOM      5  N   UNL     1      -3.189  -1.835  23.612  0.00  0.00    -0.263 NA
ATOM     14  C   UNL     1      -4.107  -0.428  25.349  0.00  0.00    -0.015 A 
ATOM     16  C   UNL     1      -3.139  -0.882  26.239  0.00  0.00    +0.008 A 
ATOM     17  C   UNL     1      -4.089  -0.930  24.059  0.00  0.00    +0.115 A 
ATOM     19  C   UNL     1      -2.197  -1.813  25.815  0.00  0.00    +0.020 A 
ATOM     20  C   UNL     1      -2.264  -2.254  24.504  0.00  0.00    +0.111 A 
ENDBRANCH  12  14
ENDBRANCH   2  12
ENDBRANCH  13   8
TORSDOF 5
ENDMDL
MODEL 6
REMARK VINA RESULT:      -0.5      1.525      3.602
REMARK  Name = 45783780
REMARK  6 active torsions:
REMARK  status: ('A' for Active; 'I' for Inactive)
REMARK    1  A    between atoms: N_2  and  C_12
REMARK    2  A    between atoms: N_7  and  C_24
REMARK    3  A    between atoms: N_7  and  C_25
REMARK    4  A    between atoms: C_8  and  C_13
REMARK    5  A    between atoms: C_12  and  C_14
REMARK    6  A    between atoms: C_15  and  C_18
REMARK                            x       y       z     vdW  Elec       q    Type
REMARK                         _______ _______ _______ _____ _____    ______ ____
ROOT
ATOM      1  O   UNL     1      -0.991   1.836  24.545  0.00  0.00    -0.336 OA
ATOM      3  N   UNL     1      -0.125  -0.204  24.219  0.00  0.00    -0.190 NA
ATOM      4  N   UNL     1       0.345   2.034  24.171  0.00  0.00    -0.056 NA
ATOM     13  C   UNL     1      -1.184   0.491  24.549  0.00  0.00    +0.245 A 
ATOM     15  C   UNL     1       0.788   0.785  23.997  0.00  0.00    +0.204 A 
ENDROOT
BRANCH  15  18
ATOM      6  N   UNL     1       4.246   1.277  22.722  0.00  0.00    -0.240 NA
ATOM     18  C   UNL     1       2.134   0.493  23.602  0.00  0.00    +0.041 A 
ATOM     21  C   UNL     1       2.647  -0.797  23.700  0.00  0.00    +0.016 A 
ATOM     22  C   UNL     1       2.968   1.485  23.111  0.00  0.00    +0.124 A 
ATOM     23  C   UNL     1       3.957  -1.050  23.310  0.00  0.00    +0.044 A 
ATOM     24  C   UNL     1       4.708   0.012  22.831  0.00  0.00    +0.118 A 
BRANCH  24   7
ATOM      7  N   UNL     1       6.042  -0.262  22.439  0.00  0.00    -0.332 N 
ATOM     25  C   UNL     1       7.114  -0.362  23.374  0.00  0.00    +0.127 C 
ATOM     26  H   UNL     1       6.185  -0.607  21.496  0.00  0.00    +0.147 HD
ENDBRANCH  24   7
ENDBRANCH  15  18
BRANCH  13   8
ATOM      2  N   UNL     1      -3.363  -0.411  23.753  0.00  0.00    -0.287 NA
ATOM      8  C   UNL     1      -2.570   0.009  24.925  0.00  0.00    +0.146 C 
ATOM      9  C   UNL     1      -2.541  -1.228  25.842  0.00  0.00    +0.030 C 
ATOM     10  C   UNL     1      -3.393  -2.271  25.131  0.00  0.00    +0.017 C 
ATOM     11  C   UNL     1      -4.285  -1.444  24.226  0.00  0.00    +0.085 C 
BRANCH   2  12
ATOM     12  C   UNL     1      -4.061   0.692  23.106  0.00  0.00    +0.121 C 
BRANCH  12  14
ATOM      5  N   UNL     1      -4.196   4.031  24.883  0.00  0.00    -0.263 NA
ATOM     14  C   UNL     1      -4.452   1.762  24.090  0.00  0.00    -0.015 A 
ATOM     16  C   UNL     1      -5.388   1.511  25.087  0.00  0.00    +0.008 A 
ATOM     17  C   UNL     1      -3.890   3.027  24.032  0.00  0.00    +0.115 A 
ATOM     19  C   UNL     1      -5.729   2.519  25.983  0.00  0.00    +0.020 A 
ATOM     20  C   UNL     1      -5.110   3.750  25.839  0.00  0.00    +0.111 A 
ENDBRANCH  12  14
ENDBRANCH   2  12
ENDBRANCH  13   8
TORSDOF 5
ENDMDL
