MODEL 1
REMARK VINA RESULT:       2.8      0.000      0.000
REMARK  Name = 26742081
REMARK  7 active torsions:
REMARK  status: ('A' for Active; 'I' for Inactive)
REMARK    1  A    between atoms: O_4  and  C_12
REMARK    2  A    between atoms: O_7  and  C_28
REMARK    3  A    between atoms: O_7  and  C_32
REMARK    4  A    between atoms: N_9  and  C_11
REMARK    5  A    between atoms: N_10  and  C_20
REMARK    6  A    between atoms: C_18  and  C_19
REMARK    7  A    between atoms: C_25  and  C_31
REMARK                            x       y       z     vdW  Elec       q    Type
REMARK                         _______ _______ _______ _____ _____    ______ ____
ROOT
ATOM      5  O   UNL     1      -0.295   3.596  25.443  0.00  0.00    -0.252 OA
ATOM      8  N   UNL     1      -2.252   4.301  24.436  0.00  0.00    -0.284 N 
ATOM     10  N   UNL     1      -1.299   2.213  23.870  0.00  0.00    -0.269 N 
ATOM     11  C   UNL     1      -4.586   3.370  24.257  0.00  0.00    +0.119 C 
ATOM     12  C   UNL     1      -4.829   3.702  25.741  0.00  0.00    +0.136 C 
ATOM     13  C   UNL     1      -4.603   5.162  26.143  0.00  0.00    +0.035 C 
ATOM     14  C   UNL     1      -3.425   4.107  23.574  0.00  0.00    +0.134 C 
ATOM     15  C   UNL     1      -3.136   5.489  26.435  0.00  0.00    +0.022 C 
ATOM     16  C   UNL     1      -2.246   5.551  25.200  0.00  0.00    +0.109 C 
ATOM     17  C   UNL     1      -1.203   3.372  24.641  0.00  0.00    +0.307 C 
ATOM     35  H   UNL     1      -2.097   2.109  23.254  0.00  0.00    +0.156 HD
ENDROOT
BRANCH  10  20
ATOM     20  C   UNL     1      -0.414   1.106  23.847  0.00  0.00    +0.035 A 
ATOM     23  C   UNL     1       0.853   1.236  23.278  0.00  0.00    +0.035 A 
ATOM     24  C   UNL     1      -0.810  -0.114  24.395  0.00  0.00    +0.023 A 
ATOM     25  C   UNL     1       1.723   0.146  23.256  0.00  0.00    +0.057 A 
ATOM     29  C   UNL     1       0.061  -1.204  24.374  0.00  0.00    +0.002 A 
ATOM     30  C   UNL     1       1.328  -1.073  23.804  0.00  0.00    +0.012 A 
BRANCH  25  31
ATOM      1  F   UNL     1       3.679   1.481  22.916  0.00  0.00    -0.166 F 
ATOM      2  F   UNL     1       3.053   0.186  21.286  0.00  0.00    -0.166 F 
ATOM      3  F   UNL     1       3.967  -0.662  23.068  0.00  0.00    -0.166 F 
ATOM     31  C   UNL     1       3.078   0.285  22.647  0.00  0.00    +0.417 C 
ENDBRANCH  25  31
ENDBRANCH  10  20
BRANCH  11   9
ATOM      6  O   UNL     1      -4.046   1.486  26.354  0.00  0.00    -0.270 OA
ATOM      9  N   UNL     1      -4.435   1.935  24.113  0.00  0.00    -0.305 N 
ATOM     18  C   UNL     1      -4.176   1.110  25.192  0.00  0.00    +0.244 C 
ATOM     33  H   UNL     1      -4.640   1.536  23.203  0.00  0.00    +0.149 HD
BRANCH  18  19
ATOM     19  C   UNL     1      -4.022  -0.333  24.874  0.00  0.00    +0.037 A 
ATOM     21  C   UNL     1      -3.499  -1.204  25.829  0.00  0.00    +0.016 A 
ATOM     22  C   UNL     1      -4.398  -0.814  23.620  0.00  0.00    +0.016 A 
ATOM     26  C   UNL     1      -3.353  -2.560  25.530  0.00  0.00    +0.046 A 
ATOM     27  C   UNL     1      -4.252  -2.170  23.322  0.00  0.00    +0.046 A 
ATOM     28  C   UNL     1      -3.729  -3.041  24.276  0.00  0.00    +0.120 A 
BRANCH  28   7
ATOM      7  O   UNL     1      -3.586  -4.363  23.984  0.00  0.00    -0.495 OA
ATOM     32  C   UNL     1      -2.712  -4.699  22.907  0.00  0.00    +0.277 C 
ENDBRANCH  28   7
ENDBRANCH  18  19
ENDBRANCH  11   9
BRANCH  12   4
ATOM      4  O   UNL     1      -6.198   3.392  26.037  0.00  0.00    -0.390 OA
ATOM     34  H   UNL     1      -6.751   3.818  25.360  0.00  0.00    +0.210 HD
ENDBRANCH  12   4
TORSDOF 6
ENDMDL
MODEL 2
REMARK VINA RESULT:       4.2      3.210      5.349
REMARK  Name = 26742081
REMARK  7 active torsions:
REMARK  status: ('A' for Active; 'I' for Inactive)
REMARK    1  A    between atoms: O_4  and  C_12
REMARK    2  A    between atoms: O_7  and  C_28
REMARK    3  A    between atoms: O_7  and  C_32
REMARK    4  A    between atoms: N_9  and  C_11
REMARK    5  A    between atoms: N_10  and  C_20
REMARK    6  A    between atoms: C_18  and  C_19
REMARK    7  A    between atoms: C_25  and  C_31
REMARK                            x       y       z     vdW  Elec       q    Type
REMARK                         _______ _______ _______ _____ _____    ______ ____
ROOT
ATOM      5  O   UNL     1      -4.889   0.913  25.092  0.00  0.00    -0.252 OA
ATOM      8  N   UNL     1      -4.031   2.846  26.024  0.00  0.00    -0.284 N 
ATOM     10  N   UNL     1      -2.672   0.928  25.785  0.00  0.00    -0.269 N 
ATOM     11  C   UNL     1      -2.105   4.374  25.473  0.00  0.00    +0.119 C 
ATOM     12  C   UNL     1      -2.874   4.900  24.249  0.00  0.00    +0.136 C 
ATOM     13  C   UNL     1      -4.266   5.474  24.533  0.00  0.00    +0.035 C 
ATOM     14  C   UNL     1      -2.938   3.672  26.554  0.00  0.00    +0.134 C 
ATOM     15  C   UNL     1      -5.358   4.405  24.610  0.00  0.00    +0.022 C 
ATOM     16  C   UNL     1      -5.310   3.543  25.865  0.00  0.00    +0.109 C 
ATOM     17  C   UNL     1      -3.929   1.501  25.593  0.00  0.00    +0.307 C 
ATOM     35  H   UNL     1      -1.937   1.500  26.184  0.00  0.00    +0.156 HD
ENDROOT
BRANCH  10  20
ATOM     20  C   UNL     1      -2.257  -0.389  25.460  0.00  0.00    +0.035 A 
ATOM     23  C   UNL     1      -3.141  -1.264  24.830  0.00  0.00    +0.035 A 
ATOM     24  C   UNL     1      -0.964  -0.809  25.773  0.00  0.00    +0.023 A 
ATOM     25  C   UNL     1      -2.732  -2.559  24.511  0.00  0.00    +0.057 A 
ATOM     29  C   UNL     1      -0.555  -2.104  25.454  0.00  0.00    +0.002 A 
ATOM     30  C   UNL     1      -1.439  -2.979  24.823  0.00  0.00    +0.012 A 
BRANCH  25  31
ATOM      1  F   UNL     1      -4.342  -4.318  24.701  0.00  0.00    -0.166 F 
ATOM      2  F   UNL     1      -3.053  -4.324  22.950  0.00  0.00    -0.166 F 
ATOM      3  F   UNL     1      -4.656  -2.865  23.124  0.00  0.00    -0.166 F 
ATOM     31  C   UNL     1      -3.677  -3.496  23.838  0.00  0.00    +0.417 C 
ENDBRANCH  25  31
ENDBRANCH  10  20
BRANCH  11   9
ATOM      6  O   UNL     1      -2.170   2.590  23.225  0.00  0.00    -0.270 OA
ATOM      9  N   UNL     1      -1.029   3.514  25.020  0.00  0.00    -0.305 N 
ATOM     18  C   UNL     1      -1.161   2.687  23.919  0.00  0.00    +0.244 C 
ATOM     33  H   UNL     1      -0.127   3.621  25.473  0.00  0.00    +0.149 HD
BRANCH  18  19
ATOM     19  C   UNL     1       0.023   1.849  23.600  0.00  0.00    +0.037 A 
ATOM     21  C   UNL     1       1.304   2.304  23.913  0.00  0.00    +0.016 A 
ATOM     22  C   UNL     1      -0.146   0.607  22.986  0.00  0.00    +0.016 A 
ATOM     26  C   UNL     1       2.417   1.518  23.611  0.00  0.00    +0.046 A 
ATOM     27  C   UNL     1       0.967  -0.178  22.686  0.00  0.00    +0.046 A 
ATOM     28  C   UNL     1       2.248   0.277  22.999  0.00  0.00    +0.120 A 
BRANCH  28   7
ATOM      7  O   UNL     1       3.333  -0.491  22.704  0.00  0.00    -0.495 OA
ATOM     32  C   UNL     1       4.612   0.029  23.064  0.00  0.00    +0.277 C 
ENDBRANCH  28   7
ENDBRANCH  18  19
ENDBRANCH  11   9
BRANCH  12   4
ATOM      4  O   UNL     1      -2.097   5.954  23.665  0.00  0.00    -0.390 OA
ATOM     34  H   UNL     1      -2.054   6.681  24.310  0.00  0.00    +0.210 HD
ENDBRANCH  12   4
TORSDOF 6
ENDMDL
MODEL 3
REMARK VINA RESULT:       4.3      2.399      4.721
REMARK  Name = 26742081
REMARK  7 active torsions:
REMARK  status: ('A' for Active; 'I' for Inactive)
REMARK    1  A    between atoms: O_4  and  C_12
REMARK    2  A    between atoms: O_7  and  C_28
REMARK    3  A    between atoms: O_7  and  C_32
REMARK    4  A    between atoms: N_9  and  C_11
REMARK    5  A    between atoms: N_10  and  C_20
REMARK    6  A    between atoms: C_18  and  C_19
REMARK    7  A    between atoms: C_25  and  C_31
REMARK                            x       y       z     vdW  Elec       q    Type
REMARK                         _______ _______ _______ _____ _____    ______ ____
ROOT
ATOM      5  O   UNL     1      -5.675   0.766  24.900  0.00  0.00    -0.252 OA
ATOM      8  N   UNL     1      -4.887   2.617  26.038  0.00  0.00    -0.284 N 
ATOM     10  N   UNL     1      -3.490   0.743  25.689  0.00  0.00    -0.269 N 
ATOM     11  C   UNL     1      -2.961   4.209  25.711  0.00  0.00    +0.119 C 
ATOM     12  C   UNL     1      -3.685   4.834  24.505  0.00  0.00    +0.136 C 
ATOM     13  C   UNL     1      -5.096   5.366  24.777  0.00  0.00    +0.035 C 
ATOM     14  C   UNL     1      -3.830   3.404  26.687  0.00  0.00    +0.134 C 
ATOM     15  C   UNL     1      -6.175   4.281  24.710  0.00  0.00    +0.022 C 
ATOM     16  C   UNL     1      -6.168   3.311  25.885  0.00  0.00    +0.109 C 
ATOM     17  C   UNL     1      -4.746   1.317  25.494  0.00  0.00    +0.307 C 
ATOM     35  H   UNL     1      -2.782   1.285  26.169  0.00  0.00    +0.156 HD
ENDROOT
BRANCH  10  20
ATOM     20  C   UNL     1      -3.042  -0.535  25.267  0.00  0.00    +0.035 A 
ATOM     23  C   UNL     1      -1.749  -0.957  25.574  0.00  0.00    +0.035 A 
ATOM     24  C   UNL     1      -3.895  -1.369  24.545  0.00  0.00    +0.023 A 
ATOM     25  C   UNL     1      -1.309  -2.215  25.160  0.00  0.00    +0.057 A 
ATOM     29  C   UNL     1      -3.456  -2.626  24.131  0.00  0.00    +0.002 A 
ATOM     30  C   UNL     1      -2.162  -3.049  24.439  0.00  0.00    +0.012 A 
BRANCH  25  31
ATOM      1  F   UNL     1       1.023  -2.192  24.629  0.00  0.00    -0.166 F 
ATOM      2  F   UNL     1       0.202  -4.025  25.461  0.00  0.00    -0.166 F 
ATOM      3  F   UNL     1       0.495  -2.283  26.729  0.00  0.00    -0.166 F 
ATOM     31  C   UNL     1       0.074  -2.667  25.488  0.00  0.00    +0.417 C 
ENDBRANCH  25  31
ENDBRANCH  10  20
BRANCH  11   9
ATOM      6  O   UNL     1      -2.879   2.684  23.280  0.00  0.00    -0.270 OA
ATOM      9  N   UNL     1      -1.854   3.404  25.231  0.00  0.00    -0.305 N 
ATOM     18  C   UNL     1      -1.914   2.705  24.040  0.00  0.00    +0.244 C 
ATOM     33  H   UNL     1      -0.982   3.462  25.746  0.00  0.00    +0.149 HD
BRANCH  18  19
ATOM     19  C   UNL     1      -0.707   1.907  23.702  0.00  0.00    +0.037 A 
ATOM     21  C   UNL     1      -0.826   0.768  22.907  0.00  0.00    +0.016 A 
ATOM     22  C   UNL     1       0.543   2.297  24.183  0.00  0.00    +0.016 A 
ATOM     26  C   UNL     1       0.308   0.017  22.592  0.00  0.00    +0.046 A 
ATOM     27  C   UNL     1       1.676   1.546  23.867  0.00  0.00    +0.046 A 
ATOM     28  C   UNL     1       1.558   0.407  23.072  0.00  0.00    +0.120 A 
BRANCH  28   7
ATOM      7  O   UNL     1       2.664  -0.325  22.764  0.00  0.00    -0.495 OA
ATOM     32  C   UNL     1       3.912   0.366  22.735  0.00  0.00    +0.277 C 
ENDBRANCH  28   7
ENDBRANCH  18  19
ENDBRANCH  11   9
BRANCH  12   4
ATOM      4  O   UNL     1      -2.898   5.945  24.053  0.00  0.00    -0.390 OA
ATOM     34  H   UNL     1      -2.621   6.449  24.837  0.00  0.00    +0.210 HD
ENDBRANCH  12   4
TORSDOF 6
ENDMDL
MODEL 4
REMARK VINA RESULT:       5.0      1.724      2.413
REMARK  Name = 26742081
REMARK  7 active torsions:
REMARK  status: ('A' for Active; 'I' for Inactive)
REMARK    1  A    between atoms: O_4  and  C_12
REMARK    2  A    between atoms: O_7  and  C_28
REMARK    3  A    between atoms: O_7  and  C_32
REMARK    4  A    between atoms: N_9  and  C_11
REMARK    5  A    between atoms: N_10  and  C_20
REMARK    6  A    between atoms: C_18  and  C_19
REMARK    7  A    between atoms: C_25  and  C_31
REMARK                            x       y       z     vdW  Elec       q    Type
REMARK                         _______ _______ _______ _____ _____    ______ ____
ROOT
ATOM      5  O   UNL     1      -0.296   3.611  25.302  0.00  0.00    -0.252 OA
ATOM      8  N   UNL     1      -2.265   4.365  24.355  0.00  0.00    -0.284 N 
ATOM     10  N   UNL     1      -1.390   2.249  23.772  0.00  0.00    -0.269 N 
ATOM     11  C   UNL     1      -4.628   3.499  24.258  0.00  0.00    +0.119 C 
ATOM     12  C   UNL     1      -4.814   3.845  25.747  0.00  0.00    +0.136 C 
ATOM     13  C   UNL     1      -4.534   5.301  26.132  0.00  0.00    +0.035 C 
ATOM     14  C   UNL     1      -3.471   4.199  23.533  0.00  0.00    +0.134 C 
ATOM     15  C   UNL     1      -3.050   5.589  26.374  0.00  0.00    +0.022 C 
ATOM     16  C   UNL     1      -2.199   5.619  25.110  0.00  0.00    +0.109 C 
ATOM     17  C   UNL     1      -1.236   3.408  24.532  0.00  0.00    +0.307 C 
ATOM     35  H   UNL     1      -2.209   2.163  23.183  0.00  0.00    +0.156 HD
ENDROOT
BRANCH  10  20
ATOM     20  C   UNL     1      -0.536   1.117  23.728  0.00  0.00    +0.035 A 
ATOM     23  C   UNL     1      -0.730   0.061  24.618  0.00  0.00    +0.035 A 
ATOM     24  C   UNL     1       0.498   1.060  22.793  0.00  0.00    +0.023 A 
ATOM     25  C   UNL     1       0.110  -1.052  24.574  0.00  0.00    +0.057 A 
ATOM     29  C   UNL     1       1.338  -0.053  22.749  0.00  0.00    +0.002 A 
ATOM     30  C   UNL     1       1.143  -1.109  23.639  0.00  0.00    +0.012 A 
BRANCH  25  31
ATOM      1  F   UNL     1      -0.948  -3.141  25.061  0.00  0.00    -0.166 F 
ATOM      2  F   UNL     1      -0.622  -1.773  26.718  0.00  0.00    -0.166 F 
ATOM      3  F   UNL     1       1.053  -2.848  25.842  0.00  0.00    -0.166 F 
ATOM     31  C   UNL     1      -0.097  -2.181  25.526  0.00  0.00    +0.417 C 
ENDBRANCH  25  31
ENDBRANCH  10  20
BRANCH  11   9
ATOM      6  O   UNL     1      -3.652   1.655  26.229  0.00  0.00    -0.270 OA
ATOM      9  N   UNL     1      -4.522   2.060  24.119  0.00  0.00    -0.305 N 
ATOM     18  C   UNL     1      -4.037   1.255  25.133  0.00  0.00    +0.244 C 
ATOM     33  H   UNL     1      -4.925   1.643  23.286  0.00  0.00    +0.149 HD
BRANCH  18  19
ATOM     19  C   UNL     1      -3.966  -0.196  24.824  0.00  0.00    +0.037 A 
ATOM     21  C   UNL     1      -4.223  -0.645  23.529  0.00  0.00    +0.016 A 
ATOM     22  C   UNL     1      -3.645  -1.109  25.829  0.00  0.00    +0.016 A 
ATOM     26  C   UNL     1      -4.159  -2.009  23.238  0.00  0.00    +0.046 A 
ATOM     27  C   UNL     1      -3.581  -2.472  25.537  0.00  0.00    +0.046 A 
ATOM     28  C   UNL     1      -3.838  -2.921  24.242  0.00  0.00    +0.120 A 
BRANCH  28   7
ATOM      7  O   UNL     1      -3.775  -4.251  23.959  0.00  0.00    -0.495 OA
ATOM     32  C   UNL     1      -2.943  -4.644  22.868  0.00  0.00    +0.277 C 
ENDBRANCH  28   7
ENDBRANCH  18  19
ENDBRANCH  11   9
BRANCH  12   4
ATOM      4  O   UNL     1      -6.181   3.575  26.090  0.00  0.00    -0.390 OA
ATOM     34  H   UNL     1      -6.492   2.854  25.517  0.00  0.00    +0.210 HD
ENDBRANCH  12   4
TORSDOF 6
ENDMDL
MODEL 5
REMARK VINA RESULT:       6.0      3.250      6.466
REMARK  Name = 26742081
REMARK  7 active torsions:
REMARK  status: ('A' for Active; 'I' for Inactive)
REMARK    1  A    between atoms: O_4  and  C_12
REMARK    2  A    between atoms: O_7  and  C_28
REMARK    3  A    between atoms: O_7  and  C_32
REMARK    4  A    between atoms: N_9  and  C_11
REMARK    5  A    between atoms: N_10  and  C_20
REMARK    6  A    between atoms: C_18  and  C_19
REMARK    7  A    between atoms: C_25  and  C_31
REMARK                            x       y       z     vdW  Elec       q    Type
REMARK                         _______ _______ _______ _____ _____    ______ ____
ROOT
ATOM      5  O   UNL     1       0.278  -0.780  23.522  0.00  0.00    -0.252 OA
ATOM      8  N   UNL     1      -1.073  -2.016  24.933  0.00  0.00    -0.284 N 
ATOM     10  N   UNL     1      -1.005   0.341  25.101  0.00  0.00    -0.269 N 
ATOM     11  C   UNL     1      -3.542  -2.056  25.433  0.00  0.00    +0.119 C 
ATOM     12  C   UNL     1      -3.808  -2.698  24.060  0.00  0.00    +0.136 C 
ATOM     13  C   UNL     1      -3.051  -3.999  23.775  0.00  0.00    +0.035 C 
ATOM     14  C   UNL     1      -2.106  -2.155  25.967  0.00  0.00    +0.134 C 
ATOM     15  C   UNL     1      -1.628  -3.771  23.259  0.00  0.00    +0.022 C 
ATOM     16  C   UNL     1      -0.647  -3.273  24.312  0.00  0.00    +0.109 C 
ATOM     17  C   UNL     1      -0.535  -0.799  24.448  0.00  0.00    +0.307 C 
ATOM     35  H   UNL     1      -1.692   0.226  25.837  0.00  0.00    +0.156 HD
ENDROOT
BRANCH  10  20
ATOM     20  C   UNL     1      -0.659   1.693  24.850  0.00  0.00    +0.035 A 
ATOM     23  C   UNL     1      -1.517   2.718  25.246  0.00  0.00    +0.035 A 
ATOM     24  C   UNL     1       0.540   1.998  24.205  0.00  0.00    +0.023 A 
ATOM     25  C   UNL     1      -1.177   4.048  24.999  0.00  0.00    +0.057 A 
ATOM     29  C   UNL     1       0.880   3.327  23.958  0.00  0.00    +0.002 A 
ATOM     30  C   UNL     1       0.022   4.353  24.356  0.00  0.00    +0.012 A 
BRANCH  25  31
ATOM      1  F   UNL     1      -2.849   4.835  26.518  0.00  0.00    -0.166 F 
ATOM      2  F   UNL     1      -2.988   5.487  24.449  0.00  0.00    -0.166 F 
ATOM      3  F   UNL     1      -1.449   6.302  25.752  0.00  0.00    -0.166 F 
ATOM     31  C   UNL     1      -2.095   5.144  25.423  0.00  0.00    +0.417 C 
ENDBRANCH  25  31
ENDBRANCH  10  20
BRANCH  11   9
ATOM      6  O   UNL     1      -3.637  -0.345  23.131  0.00  0.00    -0.270 OA
ATOM      9  N   UNL     1      -3.979  -0.674  25.400  0.00  0.00    -0.305 N 
ATOM     18  C   UNL     1      -3.989   0.068  24.234  0.00  0.00    +0.244 C 
ATOM     33  H   UNL     1      -4.391  -0.297  26.248  0.00  0.00    +0.149 HD
BRANCH  18  19
ATOM     19  C   UNL     1      -4.440   1.476  24.372  0.00  0.00    +0.037 A 
ATOM     21  C   UNL     1      -4.108   2.413  23.394  0.00  0.00    +0.016 A 
ATOM     22  C   UNL     1      -5.193   1.862  25.482  0.00  0.00    +0.016 A 
ATOM     26  C   UNL     1      -4.529   3.737  23.525  0.00  0.00    +0.046 A 
ATOM     27  C   UNL     1      -5.615   3.185  25.611  0.00  0.00    +0.046 A 
ATOM     28  C   UNL     1      -5.283   4.122  24.633  0.00  0.00    +0.120 A 
BRANCH  28   7
ATOM      7  O   UNL     1      -5.695   5.414  24.762  0.00  0.00    -0.495 OA
ATOM     32  C   UNL     1      -6.617   5.699  25.813  0.00  0.00    +0.277 C 
ENDBRANCH  28   7
ENDBRANCH  18  19
ENDBRANCH  11   9
BRANCH  12   4
ATOM      4  O   UNL     1      -5.208  -3.003  23.985  0.00  0.00    -0.390 OA
ATOM     34  H   UNL     1      -5.403  -3.664  24.672  0.00  0.00    +0.210 HD
ENDBRANCH  12   4
TORSDOF 6
ENDMDL
MODEL 6
REMARK VINA RESULT:       6.5      2.160      5.822
REMARK  Name = 26742081
REMARK  7 active torsions:
REMARK  status: ('A' for Active; 'I' for Inactive)
REMARK    1  A    between atoms: O_4  and  C_12
REMARK    2  A    between atoms: O_7  and  C_28
REMARK    3  A    between atoms: O_7  and  C_32
REMARK    4  A    between atoms: N_9  and  C_11
REMARK    5  A    between atoms: N_10  and  C_20
REMARK    6  A    between atoms: C_18  and  C_19
REMARK    7  A    between atoms: C_25  and  C_31
REMARK                            x       y       z     vdW  Elec       q    Type
REMARK                         _______ _______ _______ _____ _____    ______ ____
ROOT
ATOM      5  O   UNL     1      -0.668  -2.805  23.071  0.00  0.00    -0.252 OA
ATOM      8  N   UNL     1      -1.824  -2.064  24.930  0.00  0.00    -0.284 N 
ATOM     10  N   UNL     1       0.088  -0.903  24.169  0.00  0.00    -0.269 N 
ATOM     11  C   UNL     1      -2.974   0.087  25.559  0.00  0.00    +0.119 C 
ATOM     12  C   UNL     1      -4.103  -0.226  24.561  0.00  0.00    +0.136 C 
ATOM     13  C   UNL     1      -4.810  -1.571  24.755  0.00  0.00    +0.035 C 
ATOM     14  C   UNL     1      -2.103  -1.097  26.000  0.00  0.00    +0.134 C 
ATOM     15  C   UNL     1      -4.070  -2.743  24.103  0.00  0.00    +0.022 C 
ATOM     16  C   UNL     1      -2.792  -3.159  24.819  0.00  0.00    +0.109 C 
ATOM     17  C   UNL     1      -0.778  -1.980  23.980  0.00  0.00    +0.307 C 
ATOM     35  H   UNL     1      -0.097  -0.264  24.933  0.00  0.00    +0.156 HD
ENDROOT
BRANCH  10  20
ATOM     20  C   UNL     1       1.222  -0.551  23.393  0.00  0.00    +0.035 A 
ATOM     23  C   UNL     1       2.496  -0.591  23.960  0.00  0.00    +0.035 A 
ATOM     24  C   UNL     1       1.063  -0.163  22.063  0.00  0.00    +0.023 A 
ATOM     25  C   UNL     1       3.610  -0.245  23.196  0.00  0.00    +0.057 A 
ATOM     29  C   UNL     1       2.177   0.184  21.299  0.00  0.00    +0.002 A 
ATOM     30  C   UNL     1       3.451   0.142  21.866  0.00  0.00    +0.012 A 
BRANCH  25  31
ATOM      1  F   UNL     1       5.982  -0.235  22.884  0.00  0.00    -0.166 F 
ATOM      2  F   UNL     1       5.191  -1.426  24.522  0.00  0.00    -0.166 F 
ATOM      3  F   UNL     1       5.221   0.744  24.662  0.00  0.00    -0.166 F 
ATOM     31  C   UNL     1       4.973  -0.288  23.802  0.00  0.00    +0.417 C 
ENDBRANCH  25  31
ENDBRANCH  10  20
BRANCH  11   9
ATOM      6  O   UNL     1      -3.292   2.901  26.030  0.00  0.00    -0.270 OA
ATOM      9  N   UNL     1      -2.151   1.153  25.021  0.00  0.00    -0.305 N 
ATOM     18  C   UNL     1      -2.388   2.484  25.310  0.00  0.00    +0.244 C 
ATOM     33  H   UNL     1      -1.317   0.882  24.510  0.00  0.00    +0.149 HD
BRANCH  18  19
ATOM     19  C   UNL     1      -1.472   3.456  24.659  0.00  0.00    +0.037 A 
ATOM     21  C   UNL     1      -1.595   4.818  24.930  0.00  0.00    +0.016 A 
ATOM     22  C   UNL     1      -0.491   3.005  23.776  0.00  0.00    +0.016 A 
ATOM     26  C   UNL     1      -0.736   5.731  24.316  0.00  0.00    +0.046 A 
ATOM     27  C   UNL     1       0.368   3.918  23.163  0.00  0.00    +0.046 A 
ATOM     28  C   UNL     1       0.245   5.281  23.434  0.00  0.00    +0.120 A 
BRANCH  28   7
ATOM      7  O   UNL     1       1.083   6.171  22.835  0.00  0.00    -0.495 OA
ATOM     32  C   UNL     1       1.359   5.971  21.449  0.00  0.00    +0.277 C 
ENDBRANCH  28   7
ENDBRANCH  18  19
ENDBRANCH  11   9
BRANCH  12   4
ATOM      4  O   UNL     1      -5.101   0.796  24.696  0.00  0.00    -0.390 OA
ATOM     34  H   UNL     1      -4.749   1.474  25.298  0.00  0.00    +0.210 HD
ENDBRANCH  12   4
TORSDOF 6
ENDMDL
