MODEL 1
REMARK VINA RESULT:      -1.1      0.000      0.000
REMARK  Name = 26743694
REMARK  7 active torsions:
REMARK  status: ('A' for Active; 'I' for Inactive)
REMARK    1  A    between atoms: S_1  and  C_22
REMARK    2  A    between atoms: S_1  and  C_24
REMARK    3  A    between atoms: O_2  and  C_12
REMARK    4  A    between atoms: N_6  and  C_14
REMARK    5  A    between atoms: C_10  and  C_15
REMARK    6  A    between atoms: C_14  and  C_16
REMARK    7  A    between atoms: C_19  and  C_23
REMARK                            x       y       z     vdW  Elec       q    Type
REMARK                         _______ _______ _______ _____ _____    ______ ____
ROOT
ATOM      6  N   UNL     1      -7.807  -9.544  10.089  0.00  0.00    -0.285 NA
ATOM     10  C   UNL     1      -8.929  -9.301  11.020  0.00  0.00    +0.149 C 
ATOM     11  C   UNL     1     -10.111 -10.090  10.426  0.00  0.00    +0.061 C 
ATOM     12  C   UNL     1      -9.569 -10.704   9.142  0.00  0.00    +0.130 C 
ATOM     13  C   UNL     1      -8.404  -9.803   8.780  0.00  0.00    +0.116 C 
ENDROOT
BRANCH  10  15
ATOM      3  O   UNL     1      -9.553 -10.436  13.092  0.00  0.00    -0.336 OA
ATOM      7  N   UNL     1      -7.534  -9.468  13.152  0.00  0.00    -0.189 NA
ATOM      8  N   UNL     1      -9.037 -10.692  14.369  0.00  0.00    -0.054 NA
ATOM     15  C   UNL     1      -8.606  -9.711  12.441  0.00  0.00    +0.245 A 
ATOM     19  C   UNL     1      -7.844 -10.090  14.327  0.00  0.00    +0.220 A 
BRANCH  19  23
ATOM      9  N   UNL     1      -7.514 -10.005  16.661  0.00  0.00    -0.252 NA
ATOM     23  C   UNL     1      -6.940 -10.090  15.440  0.00  0.00    +0.111 A 
ATOM     25  C   UNL     1      -5.573 -10.175  15.230  0.00  0.00    +0.031 A 
ATOM     26  C   UNL     1      -4.742 -10.173  16.346  0.00  0.00    +0.004 A 
ATOM     27  C   UNL     1      -6.675 -10.004  17.721  0.00  0.00    +0.111 A 
ATOM     28  C   UNL     1      -5.296 -10.085  17.618  0.00  0.00    +0.020 A 
ENDBRANCH  19  23
ENDBRANCH  10  15
BRANCH  12   2
ATOM      2  O   UNL     1     -10.561 -10.711   8.132  0.00  0.00    -0.390 OA
ATOM     29  H   UNL     1     -11.060  -9.880   8.208  0.00  0.00    +0.210 HD
ENDBRANCH  12   2
BRANCH   6  14
ATOM     14  C   UNL     1      -6.848  -8.449  10.048  0.00  0.00    +0.120 C 
BRANCH  14  16
ATOM     16  C   UNL     1      -5.504  -8.859  10.589  0.00  0.00    -0.033 A 
ATOM     17  C   UNL     1      -5.395  -9.988  11.402  0.00  0.00    +0.007 A 
ATOM     18  C   UNL     1      -4.368  -8.112  10.277  0.00  0.00    +0.007 A 
ATOM     20  C   UNL     1      -4.150 -10.368  11.902  0.00  0.00    +0.027 A 
ATOM     21  C   UNL     1      -3.124  -8.492  10.778  0.00  0.00    +0.027 A 
ATOM     22  C   UNL     1      -3.015  -9.621  11.591  0.00  0.00    +0.088 A 
BRANCH  22   1
ATOM      1  S   UNL     1      -1.456 -10.097  12.219  0.00  0.00    -0.006 S 
ATOM      4  O   UNL     1      -1.646 -10.756  13.503  0.00  0.00    -0.170 OA
ATOM      5  O   UNL     1      -0.734 -10.781  11.155  0.00  0.00    -0.170 OA
ATOM     24  C   UNL     1      -0.623  -8.560  12.544  0.00  0.00    +0.200 C 
ENDBRANCH  22   1
ENDBRANCH  14  16
ENDBRANCH   6  14
TORSDOF 6
ENDMDL
MODEL 2
REMARK VINA RESULT:       1.3     16.071     18.491
REMARK  Name = 26743694
REMARK  7 active torsions:
REMARK  status: ('A' for Active; 'I' for Inactive)
REMARK    1  A    between atoms: S_1  and  C_22
REMARK    2  A    between atoms: S_1  and  C_24
REMARK    3  A    between atoms: O_2  and  C_12
REMARK    4  A    between atoms: N_6  and  C_14
REMARK    5  A    between atoms: C_10  and  C_15
REMARK    6  A    between atoms: C_14  and  C_16
REMARK    7  A    between atoms: C_19  and  C_23
REMARK                            x       y       z     vdW  Elec       q    Type
REMARK                         _______ _______ _______ _____ _____    ______ ____
ROOT
ATOM      6  N   UNL     1      -4.025   1.689  25.431  0.00  0.00    -0.285 NA
ATOM     10  C   UNL     1      -3.217   2.804  24.895  0.00  0.00    +0.149 C 
ATOM     11  C   UNL     1      -4.031   4.070  25.218  0.00  0.00    +0.061 C 
ATOM     12  C   UNL     1      -5.298   3.562  25.894  0.00  0.00    +0.130 C 
ATOM     13  C   UNL     1      -5.417   2.133  25.400  0.00  0.00    +0.116 C 
ENDROOT
BRANCH  10  15
ATOM      3  O   UNL     1      -0.810   3.105  24.603  0.00  0.00    -0.336 OA
ATOM      7  N   UNL     1      -1.427   2.657  26.710  0.00  0.00    -0.189 NA
ATOM      8  N   UNL     1       0.369   3.088  25.360  0.00  0.00    -0.054 NA
ATOM     15  C   UNL     1      -1.819   2.842  25.474  0.00  0.00    +0.245 A 
ATOM     19  C   UNL     1      -0.077   2.818  26.590  0.00  0.00    +0.220 A 
BRANCH  19  23
ATOM      9  N   UNL     1       2.106   2.936  27.474  0.00  0.00    -0.252 NA
ATOM     23  C   UNL     1       0.798   2.702  27.721  0.00  0.00    +0.111 A 
ATOM     25  C   UNL     1       0.290   2.369  28.966  0.00  0.00    +0.031 A 
ATOM     26  C   UNL     1       1.184   2.271  30.028  0.00  0.00    +0.004 A 
ATOM     27  C   UNL     1       2.944   2.831  28.530  0.00  0.00    +0.111 A 
ATOM     28  C   UNL     1       2.538   2.504  29.814  0.00  0.00    +0.020 A 
ENDBRANCH  19  23
ENDBRANCH  10  15
BRANCH  12   2
ATOM      2  O   UNL     1      -6.416   4.343  25.516  0.00  0.00    -0.390 OA
ATOM     29  H   UNL     1      -6.183   4.807  24.693  0.00  0.00    +0.210 HD
ENDBRANCH  12   2
BRANCH   6  14
ATOM     14  C   UNL     1      -3.832   0.440  24.706  0.00  0.00    +0.120 C 
BRANCH  14  16
ATOM     16  C   UNL     1      -2.415   0.286  24.219  0.00  0.00    -0.033 A 
ATOM     17  C   UNL     1      -1.485  -0.410  24.990  0.00  0.00    +0.007 A 
ATOM     18  C   UNL     1      -2.034   0.840  22.997  0.00  0.00    +0.007 A 
ATOM     20  C   UNL     1      -0.173  -0.553  24.538  0.00  0.00    +0.027 A 
ATOM     21  C   UNL     1      -0.722   0.697  22.545  0.00  0.00    +0.027 A 
ATOM     22  C   UNL     1       0.208   0.000  23.316  0.00  0.00    +0.088 A 
BRANCH  22   1
ATOM      1  S   UNL     1       1.851  -0.178  22.752  0.00  0.00    -0.006 S 
ATOM      4  O   UNL     1       2.534  -1.156  23.587  0.00  0.00    -0.170 OA
ATOM      5  O   UNL     1       1.812  -0.362  21.308  0.00  0.00    -0.170 OA
ATOM     24  C   UNL     1       2.605   1.400  23.080  0.00  0.00    +0.200 C 
ENDBRANCH  22   1
ENDBRANCH  14  16
ENDBRANCH   6  14
TORSDOF 6
ENDMDL
MODEL 3
REMARK VINA RESULT:       1.5     14.986     17.343
REMARK  Name = 26743694
REMARK  7 active torsions:
REMARK  status: ('A' for Active; 'I' for Inactive)
REMARK    1  A    between atoms: S_1  and  C_22
REMARK    2  A    between atoms: S_1  and  C_24
REMARK    3  A    between atoms: O_2  and  C_12
REMARK    4  A    between atoms: N_6  and  C_14
REMARK    5  A    between atoms: C_10  and  C_15
REMARK    6  A    between atoms: C_14  and  C_16
REMARK    7  A    between atoms: C_19  and  C_23
REMARK                            x       y       z     vdW  Elec       q    Type
REMARK                         _______ _______ _______ _____ _____    ______ ____
ROOT
ATOM      6  N   UNL     1      -5.241   2.409  25.450  0.00  0.00    -0.285 NA
ATOM     10  C   UNL     1      -4.418   3.055  24.408  0.00  0.00    +0.149 C 
ATOM     11  C   UNL     1      -4.626   4.566  24.623  0.00  0.00    +0.061 C 
ATOM     12  C   UNL     1      -5.615   4.667  25.777  0.00  0.00    +0.130 C 
ATOM     13  C   UNL     1      -6.334   3.332  25.747  0.00  0.00    +0.116 C 
ENDROOT
BRANCH  10  15
ATOM      3  O   UNL     1      -2.282   3.025  25.594  0.00  0.00    -0.336 OA
ATOM      7  N   UNL     1      -2.243   1.979  23.614  0.00  0.00    -0.189 NA
ATOM      8  N   UNL     1      -0.976   2.544  25.433  0.00  0.00    -0.054 NA
ATOM     15  C   UNL     1      -2.961   2.649  24.480  0.00  0.00    +0.245 A 
ATOM     19  C   UNL     1      -1.032   1.939  24.243  0.00  0.00    +0.220 A 
BRANCH  19  23
ATOM      9  N   UNL     1       1.308   1.803  23.980  0.00  0.00    -0.252 NA
ATOM     23  C   UNL     1       0.102   1.287  23.654  0.00  0.00    +0.111 A 
ATOM     25  C   UNL     1      -0.076   0.201  22.813  0.00  0.00    +0.031 A 
ATOM     26  C   UNL     1       1.058  -0.394  22.270  0.00  0.00    +0.004 A 
ATOM     27  C   UNL     1       2.387   1.199  23.433  0.00  0.00    +0.111 A 
ATOM     28  C   UNL     1       2.316   0.108  22.581  0.00  0.00    +0.020 A 
ENDBRANCH  19  23
ENDBRANCH  10  15
BRANCH  12   2
ATOM      2  O   UNL     1      -6.507   5.748  25.579  0.00  0.00    -0.390 OA
ATOM     29  H   UNL     1      -7.062   5.532  24.811  0.00  0.00    +0.210 HD
ENDBRANCH  12   2
BRANCH   6  14
ATOM     14  C   UNL     1      -5.725   1.090  25.064  0.00  0.00    +0.120 C 
BRANCH  14  16
ATOM     16  C   UNL     1      -4.607   0.086  24.970  0.00  0.00    -0.033 A 
ATOM     17  C   UNL     1      -4.428  -0.650  23.800  0.00  0.00    +0.007 A 
ATOM     18  C   UNL     1      -3.749  -0.106  26.054  0.00  0.00    +0.007 A 
ATOM     20  C   UNL     1      -3.392  -1.580  23.712  0.00  0.00    +0.027 A 
ATOM     21  C   UNL     1      -2.713  -1.036  25.966  0.00  0.00    +0.027 A 
ATOM     22  C   UNL     1      -2.535  -1.772  24.795  0.00  0.00    +0.088 A 
BRANCH  22   1
ATOM      1  S   UNL     1      -1.238  -2.937  24.686  0.00  0.00    -0.006 S 
ATOM      4  O   UNL     1      -1.488  -4.012  25.636  0.00  0.00    -0.170 OA
ATOM      5  O   UNL     1      -1.033  -3.249  23.279  0.00  0.00    -0.170 OA
ATOM     24  C   UNL     1       0.196  -2.057  25.265  0.00  0.00    +0.200 C 
ENDBRANCH  22   1
ENDBRANCH  14  16
ENDBRANCH   6  14
TORSDOF 6
ENDMDL
MODEL 4
REMARK VINA RESULT:       1.6     14.542     17.185
REMARK  Name = 26743694
REMARK  7 active torsions:
REMARK  status: ('A' for Active; 'I' for Inactive)
REMARK    1  A    between atoms: S_1  and  C_22
REMARK    2  A    between atoms: S_1  and  C_24
REMARK    3  A    between atoms: O_2  and  C_12
REMARK    4  A    between atoms: N_6  and  C_14
REMARK    5  A    between atoms: C_10  and  C_15
REMARK    6  A    between atoms: C_14  and  C_16
REMARK    7  A    between atoms: C_19  and  C_23
REMARK                            x       y       z     vdW  Elec       q    Type
REMARK                         _______ _______ _______ _____ _____    ______ ____
ROOT
ATOM      6  N   UNL     1      -3.734   4.005  25.254  0.00  0.00    -0.285 NA
ATOM     10  C   UNL     1      -4.632   3.052  25.937  0.00  0.00    +0.149 C 
ATOM     11  C   UNL     1      -6.041   3.654  25.775  0.00  0.00    +0.061 C 
ATOM     12  C   UNL     1      -5.827   4.964  25.028  0.00  0.00    +0.130 C 
ATOM     13  C   UNL     1      -4.382   5.313  25.331  0.00  0.00    +0.116 C 
ENDROOT
BRANCH  10  15
ATOM      3  O   UNL     1      -5.630   1.162  24.753  0.00  0.00    -0.336 OA
ATOM      7  N   UNL     1      -3.516   0.817  25.410  0.00  0.00    -0.189 NA
ATOM      8  N   UNL     1      -5.296  -0.131  24.330  0.00  0.00    -0.054 NA
ATOM     15  C   UNL     1      -4.527   1.649  25.379  0.00  0.00    +0.245 A 
ATOM     19  C   UNL     1      -4.035  -0.261  24.754  0.00  0.00    +0.220 A 
BRANCH  19  23
ATOM      9  N   UNL     1      -1.950  -1.361  24.824  0.00  0.00    -0.252 NA
ATOM     23  C   UNL     1      -3.267  -1.453  24.538  0.00  0.00    +0.111 A 
ATOM     25  C   UNL     1      -3.880  -2.603  24.067  0.00  0.00    +0.031 A 
ATOM     26  C   UNL     1      -3.089  -3.731  23.877  0.00  0.00    +0.004 A 
ATOM     27  C   UNL     1      -1.212  -2.476  24.626  0.00  0.00    +0.111 A 
ATOM     28  C   UNL     1      -1.729  -3.674  24.159  0.00  0.00    +0.020 A 
ENDBRANCH  19  23
ENDBRANCH  10  15
BRANCH  12   2
ATOM      2  O   UNL     1      -6.717   5.959  25.496  0.00  0.00    -0.390 OA
ATOM     29  H   UNL     1      -6.183   6.728  25.760  0.00  0.00    +0.210 HD
ENDBRANCH  12   2
BRANCH   6  14
ATOM     14  C   UNL     1      -2.388   4.026  25.810  0.00  0.00    +0.120 C 
BRANCH  14  16
ATOM     16  C   UNL     1      -1.479   3.044  25.119  0.00  0.00    -0.033 A 
ATOM     17  C   UNL     1      -1.734   2.668  23.800  0.00  0.00    +0.007 A 
ATOM     18  C   UNL     1      -0.384   2.511  25.798  0.00  0.00    +0.007 A 
ATOM     20  C   UNL     1      -0.892   1.759  23.160  0.00  0.00    +0.027 A 
ATOM     21  C   UNL     1       0.458   1.602  25.157  0.00  0.00    +0.027 A 
ATOM     22  C   UNL     1       0.204   1.226  23.838  0.00  0.00    +0.088 A 
BRANCH  22   1
ATOM      1  S   UNL     1       1.257   0.087  23.037  0.00  0.00    -0.006 S 
ATOM      4  O   UNL     1       1.484  -1.048  23.919  0.00  0.00    -0.170 OA
ATOM      5  O   UNL     1       0.740  -0.134  21.693  0.00  0.00    -0.170 OA
ATOM     24  C   UNL     1       2.808   0.946  22.890  0.00  0.00    +0.200 C 
ENDBRANCH  22   1
ENDBRANCH  14  16
ENDBRANCH   6  14
TORSDOF 6
ENDMDL
MODEL 5
REMARK VINA RESULT:       2.6     14.516     17.334
REMARK  Name = 26743694
REMARK  7 active torsions:
REMARK  status: ('A' for Active; 'I' for Inactive)
REMARK    1  A    between atoms: S_1  and  C_22
REMARK    2  A    between atoms: S_1  and  C_24
REMARK    3  A    between atoms: O_2  and  C_12
REMARK    4  A    between atoms: N_6  and  C_14
REMARK    5  A    between atoms: C_10  and  C_15
REMARK    6  A    between atoms: C_14  and  C_16
REMARK    7  A    between atoms: C_19  and  C_23
REMARK                            x       y       z     vdW  Elec       q    Type
REMARK                         _______ _______ _______ _____ _____    ______ ____
ROOT
ATOM      6  N   UNL     1      -3.994  -0.933  23.892  0.00  0.00    -0.285 NA
ATOM     10  C   UNL     1      -3.014  -1.276  24.944  0.00  0.00    +0.149 C 
ATOM     11  C   UNL     1      -2.916  -2.812  24.905  0.00  0.00    +0.061 C 
ATOM     12  C   UNL     1      -3.908  -3.243  23.833  0.00  0.00    +0.130 C 
ATOM     13  C   UNL     1      -4.884  -2.085  23.765  0.00  0.00    +0.116 C 
ENDROOT
BRANCH  10  15
ATOM      3  O   UNL     1      -1.294   0.290  25.693  0.00  0.00    -0.336 OA
ATOM      7  N   UNL     1      -0.816  -0.739  23.761  0.00  0.00    -0.189 NA
ATOM      8  N   UNL     1      -0.045   0.780  25.290  0.00  0.00    -0.054 NA
ATOM     15  C   UNL     1      -1.676  -0.597  24.738  0.00  0.00    +0.245 A 
ATOM     19  C   UNL     1       0.169   0.126  24.144  0.00  0.00    +0.220 A 
BRANCH  19  23
ATOM      9  N   UNL     1       2.216   1.249  23.813  0.00  0.00    -0.252 NA
ATOM     23  C   UNL     1       1.354   0.314  23.357  0.00  0.00    +0.111 A 
ATOM     25  C   UNL     1       1.559  -0.440  22.213  0.00  0.00    +0.031 A 
ATOM     26  C   UNL     1       2.726  -0.218  21.488  0.00  0.00    +0.004 A 
ATOM     27  C   UNL     1       3.338   1.438  23.082  0.00  0.00    +0.111 A 
ATOM     28  C   UNL     1       3.637   0.738  21.925  0.00  0.00    +0.020 A 
ENDBRANCH  19  23
ENDBRANCH  10  15
BRANCH  12   2
ATOM      2  O   UNL     1      -4.549  -4.450  24.200  0.00  0.00    -0.390 OA
ATOM     29  H   UNL     1      -5.491  -4.251  24.335  0.00  0.00    +0.210 HD
ENDBRANCH  12   2
BRANCH   6  14
ATOM     14  C   UNL     1      -4.723   0.298  24.165  0.00  0.00    +0.120 C 
BRANCH  14  16
ATOM     16  C   UNL     1      -3.799   1.476  24.317  0.00  0.00    -0.033 A 
ATOM     17  C   UNL     1      -3.802   2.217  25.500  0.00  0.00    +0.007 A 
ATOM     18  C   UNL     1      -2.938   1.827  23.277  0.00  0.00    +0.007 A 
ATOM     20  C   UNL     1      -2.946   3.308  25.641  0.00  0.00    +0.027 A 
ATOM     21  C   UNL     1      -2.082   2.919  23.419  0.00  0.00    +0.027 A 
ATOM     22  C   UNL     1      -2.086   3.659  24.601  0.00  0.00    +0.088 A 
BRANCH  22   1
ATOM      1  S   UNL     1      -1.014   5.026  24.778  0.00  0.00    -0.006 S 
ATOM      4  O   UNL     1      -1.811   6.228  24.983  0.00  0.00    -0.170 OA
ATOM      5  O   UNL     1       0.015   4.668  25.744  0.00  0.00    -0.170 OA
ATOM     24  C   UNL     1      -0.236   5.187  23.186  0.00  0.00    +0.200 C 
ENDBRANCH  22   1
ENDBRANCH  14  16
ENDBRANCH   6  14
TORSDOF 6
ENDMDL
