MODEL 1
REMARK VINA RESULT:      -5.1      0.000      0.000
REMARK  Name = 51137309
REMARK  4 active torsions:
REMARK  status: ('A' for Active; 'I' for Inactive)
REMARK    1  A    between atoms: N_4  and  C_12
REMARK    2  A    between atoms: C_8  and  C_13
REMARK    3  A    between atoms: C_12  and  C_14
REMARK    4  A    between atoms: C_17  and  C_21
REMARK                            x       y       z     vdW  Elec       q    Type
REMARK                         _______ _______ _______ _____ _____    ______ ____
ROOT
ATOM      4  N   UNL     1      -4.607 -10.068  10.147  0.00  0.00    -0.297 NA
ATOM      8  C   UNL     1      -6.894  -9.634  10.432  0.00  0.00    +0.092 C 
ATOM      9  C   UNL     1      -5.825 -10.716  10.637  0.00  0.00    +0.097 C 
ATOM     10  C   UNL     1      -6.113  -8.308  10.446  0.00  0.00    +0.029 C 
ATOM     11  C   UNL     1      -4.663  -8.707  10.685  0.00  0.00    +0.085 C 
ENDROOT
BRANCH   8  13
ATOM      1  O   UNL     1      -7.689  -9.548  12.747  0.00  0.00    -0.420 OA
ATOM      5  N   UNL     1      -9.299  -9.939  11.244  0.00  0.00    -0.112 NA
ATOM      6  N   UNL     1      -9.881  -9.916  12.498  0.00  0.00    -0.107 NA
ATOM     13  C   UNL     1      -8.019  -9.720  11.438  0.00  0.00    +0.222 A 
ATOM     17  C   UNL     1      -8.904  -9.686  13.343  0.00  0.00    +0.248 A 
BRANCH  17  21
ATOM      7  N   UNL     1      -8.949  -9.305  17.555  0.00  0.00    -0.263 NA
ATOM     21  C   UNL     1      -8.920  -9.557  14.772  0.00  0.00    +0.041 A 
ATOM     23  C   UNL     1      -8.244 -10.478  15.563  0.00  0.00    +0.033 A 
ATOM     24  C   UNL     1      -9.611  -8.509  15.371  0.00  0.00    +0.033 A 
ATOM     25  C   UNL     1      -8.288 -10.309  16.938  0.00  0.00    +0.111 A 
ATOM     26  C   UNL     1      -9.595  -8.428  16.753  0.00  0.00    +0.111 A 
ENDBRANCH  17  21
ENDBRANCH   8  13
BRANCH   4  12
ATOM     12  C   UNL     1      -3.401 -10.773  10.553  0.00  0.00    +0.119 C 
BRANCH  12  14
ATOM      2  O   UNL     1      -4.862 -10.761  15.282  0.00  0.00    -0.453 OA
ATOM      3  O   UNL     1      -2.626 -10.383  16.096  0.00  0.00    -0.453 OA
ATOM     14  C   UNL     1      -3.157 -10.662  12.034  0.00  0.00    -0.030 A 
ATOM     15  C   UNL     1      -4.227 -10.781  12.925  0.00  0.00    +0.054 A 
ATOM     16  C   UNL     1      -1.852 -10.441  12.510  0.00  0.00    +0.009 A 
ATOM     18  C   UNL     1      -3.953 -10.673  14.273  0.00  0.00    +0.167 A 
ATOM     19  C   UNL     1      -1.602 -10.337  13.880  0.00  0.00    +0.050 A 
ATOM     20  C   UNL     1      -2.676 -10.458  14.738  0.00  0.00    +0.166 A 
ATOM     22  C   UNL     1      -4.014 -10.576  16.434  0.00  0.00    +0.466 C 
ENDBRANCH  12  14
ENDBRANCH   4  12
TORSDOF 4
ENDMDL
MODEL 2
REMARK VINA RESULT:      -3.4      1.473      2.118
REMARK  Name = 51137309
REMARK  4 active torsions:
REMARK  status: ('A' for Active; 'I' for Inactive)
REMARK    1  A    between atoms: N_4  and  C_12
REMARK    2  A    between atoms: C_8  and  C_13
REMARK    3  A    between atoms: C_12  and  C_14
REMARK    4  A    between atoms: C_17  and  C_21
REMARK                            x       y       z     vdW  Elec       q    Type
REMARK                         _______ _______ _______ _____ _____    ______ ____
ROOT
ATOM      4  N   UNL     1      -5.315  -9.644   9.304  0.00  0.00    -0.297 NA
ATOM      8  C   UNL     1      -7.434  -9.503  10.298  0.00  0.00    +0.092 C 
ATOM      9  C   UNL     1      -6.196 -10.403  10.194  0.00  0.00    +0.097 C 
ATOM     10  C   UNL     1      -6.913  -8.087   9.995  0.00  0.00    +0.029 C 
ATOM     11  C   UNL     1      -5.417  -8.259   9.765  0.00  0.00    +0.085 C 
ENDROOT
BRANCH   8  13
ATOM      1  O   UNL     1      -7.386  -9.657  12.742  0.00  0.00    -0.420 OA
ATOM      5  N   UNL     1      -9.440  -9.758  11.862  0.00  0.00    -0.112 NA
ATOM      6  N   UNL     1      -9.559  -9.857  13.236  0.00  0.00    -0.107 NA
ATOM     13  C   UNL     1      -8.155  -9.644  11.619  0.00  0.00    +0.222 A 
ATOM     17  C   UNL     1      -8.335  -9.794  13.707  0.00  0.00    +0.248 A 
BRANCH  17  21
ATOM      7  N   UNL     1      -6.917  -9.939  17.689  0.00  0.00    -0.263 NA
ATOM     21  C   UNL     1      -7.855  -9.844  15.058  0.00  0.00    +0.041 A 
ATOM     23  C   UNL     1      -6.570 -10.302  15.325  0.00  0.00    +0.033 A 
ATOM     24  C   UNL     1      -8.672  -9.433  16.105  0.00  0.00    +0.033 A 
ATOM     25  C   UNL     1      -6.152 -10.329  16.646  0.00  0.00    +0.111 A 
ATOM     26  C   UNL     1      -8.161  -9.499  17.391  0.00  0.00    +0.111 A 
ENDBRANCH  17  21
ENDBRANCH   8  13
BRANCH   4  12
ATOM     12  C   UNL     1      -3.946 -10.136   9.327  0.00  0.00    +0.119 C 
BRANCH  12  14
ATOM      2  O   UNL     1      -0.553  -8.737  12.648  0.00  0.00    -0.453 OA
ATOM      3  O   UNL     1      -1.655  -9.908  14.443  0.00  0.00    -0.453 OA
ATOM     14  C   UNL     1      -3.358 -10.097  10.712  0.00  0.00    -0.030 A 
ATOM     15  C   UNL     1      -2.181  -9.382  10.947  0.00  0.00    +0.054 A 
ATOM     16  C   UNL     1      -4.000 -10.781  11.760  0.00  0.00    +0.009 A 
ATOM     18  C   UNL     1      -1.682  -9.375  12.233  0.00  0.00    +0.167 A 
ATOM     19  C   UNL     1      -3.474 -10.757  13.053  0.00  0.00    +0.050 A 
ATOM     20  C   UNL     1      -2.311 -10.043  13.258  0.00  0.00    +0.166 A 
ATOM     22  C   UNL     1      -0.543  -9.080  14.049  0.00  0.00    +0.466 C 
ENDBRANCH  12  14
ENDBRANCH   4  12
TORSDOF 4
ENDMDL
MODEL 3
REMARK VINA RESULT:      -2.7      1.850      2.335
REMARK  Name = 51137309
REMARK  4 active torsions:
REMARK  status: ('A' for Active; 'I' for Inactive)
REMARK    1  A    between atoms: N_4  and  C_12
REMARK    2  A    between atoms: C_8  and  C_13
REMARK    3  A    between atoms: C_12  and  C_14
REMARK    4  A    between atoms: C_17  and  C_21
REMARK                            x       y       z     vdW  Elec       q    Type
REMARK                         _______ _______ _______ _____ _____    ______ ____
ROOT
ATOM      4  N   UNL     1      -5.678  -9.879   9.724  0.00  0.00    -0.297 NA
ATOM      8  C   UNL     1      -7.129 -10.203  11.538  0.00  0.00    +0.092 C 
ATOM      9  C   UNL     1      -5.763 -10.625  10.981  0.00  0.00    +0.097 C 
ATOM     10  C   UNL     1      -7.401  -8.829  10.900  0.00  0.00    +0.029 C 
ATOM     11  C   UNL     1      -6.173  -8.539  10.048  0.00  0.00    +0.085 C 
ENDROOT
BRANCH   8  13
ATOM      1  O   UNL     1      -8.228  -9.584  13.637  0.00  0.00    -0.420 OA
ATOM      5  N   UNL     1      -6.355 -10.777  13.905  0.00  0.00    -0.112 NA
ATOM      6  N   UNL     1      -6.867 -10.499  15.159  0.00  0.00    -0.107 NA
ATOM     13  C   UNL     1      -7.181 -10.224  13.049  0.00  0.00    +0.222 A 
ATOM     17  C   UNL     1      -7.959  -9.800  14.954  0.00  0.00    +0.248 A 
BRANCH  17  21
ATOM      7  N   UNL     1     -10.719  -8.152  17.702  0.00  0.00    -0.263 NA
ATOM     21  C   UNL     1      -8.895  -9.242  15.885  0.00  0.00    +0.041 A 
ATOM     23  C   UNL     1      -9.199  -9.919  17.061  0.00  0.00    +0.033 A 
ATOM     24  C   UNL     1      -9.503  -8.020  15.617  0.00  0.00    +0.033 A 
ATOM     25  C   UNL     1     -10.108  -9.337  17.929  0.00  0.00    +0.111 A 
ATOM     26  C   UNL     1     -10.399  -7.523  16.549  0.00  0.00    +0.111 A 
ENDBRANCH  17  21
ENDBRANCH   8  13
BRANCH   4  12
ATOM     12  C   UNL     1      -4.328  -9.854   9.183  0.00  0.00    +0.119 C 
BRANCH  12  14
ATOM      2  O   UNL     1      -2.575 -10.691  13.735  0.00  0.00    -0.453 OA
ATOM      3  O   UNL     1      -0.542  -9.471  13.306  0.00  0.00    -0.453 OA
ATOM     14  C   UNL     1      -3.291  -9.730  10.267  0.00  0.00    -0.030 A 
ATOM     15  C   UNL     1      -3.514 -10.325  11.512  0.00  0.00    +0.054 A 
ATOM     16  C   UNL     1      -2.104  -9.017  10.016  0.00  0.00    +0.009 A 
ATOM     18  C   UNL     1      -2.533 -10.185  12.472  0.00  0.00    +0.167 A 
ATOM     19  C   UNL     1      -1.128  -8.892  11.007  0.00  0.00    +0.050 A 
ATOM     20  C   UNL     1      -1.372  -9.488  12.227  0.00  0.00    +0.166 A 
ATOM     22  C   UNL     1      -1.310 -10.234  14.257  0.00  0.00    +0.466 C 
ENDBRANCH  12  14
ENDBRANCH   4  12
TORSDOF 4
ENDMDL
MODEL 4
REMARK VINA RESULT:      -2.2     14.857     17.411
REMARK  Name = 51137309
REMARK  4 active torsions:
REMARK  status: ('A' for Active; 'I' for Inactive)
REMARK    1  A    between atoms: N_4  and  C_12
REMARK    2  A    between atoms: C_8  and  C_13
REMARK    3  A    between atoms: C_12  and  C_14
REMARK    4  A    between atoms: C_17  and  C_21
REMARK                            x       y       z     vdW  Elec       q    Type
REMARK                         _______ _______ _______ _____ _____    ______ ____
ROOT
ATOM      4  N   UNL     1      -0.778   4.619  25.126  0.00  0.00    -0.297 NA
ATOM      8  C   UNL     1       0.399   2.628  24.738  0.00  0.00    +0.092 C 
ATOM      9  C   UNL     1      -0.811   3.200  25.488  0.00  0.00    +0.097 C 
ATOM     10  C   UNL     1       0.621   3.594  23.562  0.00  0.00    +0.029 C 
ATOM     11  C   UNL     1      -0.483   4.635  23.692  0.00  0.00    +0.085 C 
ENDROOT
BRANCH   8  13
ATOM      1  O   UNL     1      -1.022   0.646  24.519  0.00  0.00    -0.420 OA
ATOM      5  N   UNL     1       1.089   0.333  23.848  0.00  0.00    -0.112 NA
ATOM      6  N   UNL     1       0.404  -0.855  23.672  0.00  0.00    -0.107 NA
ATOM     13  C   UNL     1       0.218   1.179  24.345  0.00  0.00    +0.222 A 
ATOM     17  C   UNL     1      -0.823  -0.626  24.077  0.00  0.00    +0.248 A 
BRANCH  17  21
ATOM      7  N   UNL     1      -4.193  -3.179  24.215  0.00  0.00    -0.263 NA
ATOM     21  C   UNL     1      -1.966  -1.492  24.123  0.00  0.00    +0.041 A 
ATOM     23  C   UNL     1      -1.813  -2.832  24.457  0.00  0.00    +0.033 A 
ATOM     24  C   UNL     1      -3.232  -0.994  23.834  0.00  0.00    +0.033 A 
ATOM     25  C   UNL     1      -2.947  -3.627  24.490  0.00  0.00    +0.111 A 
ATOM     26  C   UNL     1      -4.303  -1.870  23.894  0.00  0.00    +0.111 A 
ENDBRANCH  17  21
ENDBRANCH   8  13
BRANCH   4  12
ATOM     12  C   UNL     1      -2.022   5.302  25.444  0.00  0.00    +0.119 C 
BRANCH  12  14
ATOM      2  O   UNL     1      -5.812   2.610  27.142  0.00  0.00    -0.453 OA
ATOM      3  O   UNL     1      -6.493   1.952  24.927  0.00  0.00    -0.453 OA
ATOM     14  C   UNL     1      -3.217   4.403  25.268  0.00  0.00    -0.030 A 
ATOM     15  C   UNL     1      -3.922   3.959  26.390  0.00  0.00    +0.054 A 
ATOM     16  C   UNL     1      -3.614   4.018  23.975  0.00  0.00    +0.009 A 
ATOM     18  C   UNL     1      -5.010   3.138  26.177  0.00  0.00    +0.167 A 
ATOM     19  C   UNL     1      -4.720   3.187  23.788  0.00  0.00    +0.050 A 
ATOM     20  C   UNL     1      -5.399   2.762  24.912  0.00  0.00    +0.166 A 
ATOM     22  C   UNL     1      -6.749   1.860  26.342  0.00  0.00    +0.466 C 
ENDBRANCH  12  14
ENDBRANCH   4  12
TORSDOF 4
ENDMDL
MODEL 5
REMARK VINA RESULT:      -2.2     14.411     17.198
REMARK  Name = 51137309
REMARK  4 active torsions:
REMARK  status: ('A' for Active; 'I' for Inactive)
REMARK    1  A    between atoms: N_4  and  C_12
REMARK    2  A    between atoms: C_8  and  C_13
REMARK    3  A    between atoms: C_12  and  C_14
REMARK    4  A    between atoms: C_17  and  C_21
REMARK                            x       y       z     vdW  Elec       q    Type
REMARK                         _______ _______ _______ _____ _____    ______ ____
ROOT
ATOM      4  N   UNL     1      -4.958   2.405  25.396  0.00  0.00    -0.297 NA
ATOM      8  C   UNL     1      -3.039   3.738  25.193  0.00  0.00    +0.092 C 
ATOM      9  C   UNL     1      -3.543   2.409  25.772  0.00  0.00    +0.097 C 
ATOM     10  C   UNL     1      -4.009   4.052  24.040  0.00  0.00    +0.029 C 
ATOM     11  C   UNL     1      -4.982   2.880  24.012  0.00  0.00    +0.085 C 
ENDROOT
BRANCH   8  13
ATOM      1  O   UNL     1      -1.103   2.508  24.335  0.00  0.00    -0.420 OA
ATOM      5  N   UNL     1      -0.676   4.645  24.841  0.00  0.00    -0.112 NA
ATOM      6  N   UNL     1       0.493   4.074  24.372  0.00  0.00    -0.107 NA
ATOM     13  C   UNL     1      -1.580   3.694  24.802  0.00  0.00    +0.222 A 
ATOM     17  C   UNL     1       0.196   2.827  24.090  0.00  0.00    +0.248 A 
BRANCH  17  21
ATOM      7  N   UNL     1       2.611  -0.290  22.558  0.00  0.00    -0.263 NA
ATOM     21  C   UNL     1       1.015   1.770  23.572  0.00  0.00    +0.041 A 
ATOM     23  C   UNL     1       0.458   0.527  23.294  0.00  0.00    +0.033 A 
ATOM     24  C   UNL     1       2.370   1.984  23.343  0.00  0.00    +0.033 A 
ATOM     25  C   UNL     1       1.290  -0.461  22.793  0.00  0.00    +0.111 A 
ATOM     26  C   UNL     1       3.118   0.932  22.840  0.00  0.00    +0.111 A 
ENDBRANCH  17  21
ENDBRANCH   8  13
BRANCH   4  12
ATOM     12  C   UNL     1      -5.567   1.092  25.541  0.00  0.00    +0.119 C 
BRANCH  12  14
ATOM      2  O   UNL     1      -1.275  -1.359  25.802  0.00  0.00    -0.453 OA
ATOM      3  O   UNL     1      -1.959  -2.972  24.148  0.00  0.00    -0.453 OA
ATOM     14  C   UNL     1      -4.624  -0.012  25.142  0.00  0.00    -0.030 A 
ATOM     15  C   UNL     1      -3.361  -0.093  25.736  0.00  0.00    +0.054 A 
ATOM     16  C   UNL     1      -5.023  -0.953  24.176  0.00  0.00    +0.009 A 
ATOM     18  C   UNL     1      -2.533  -1.123  25.338  0.00  0.00    +0.167 A 
ATOM     19  C   UNL     1      -4.165  -1.986  23.793  0.00  0.00    +0.050 A 
ATOM     20  C   UNL     1      -2.924  -2.044  24.394  0.00  0.00    +0.166 A 
ATOM     22  C   UNL     1      -0.919  -2.533  25.043  0.00  0.00    +0.466 C 
ENDBRANCH  12  14
ENDBRANCH   4  12
TORSDOF 4
ENDMDL
MODEL 6
REMARK VINA RESULT:      -2.0     14.852     17.697
REMARK  Name = 51137309
REMARK  4 active torsions:
REMARK  status: ('A' for Active; 'I' for Inactive)
REMARK    1  A    between atoms: N_4  and  C_12
REMARK    2  A    between atoms: C_8  and  C_13
REMARK    3  A    between atoms: C_12  and  C_14
REMARK    4  A    between atoms: C_17  and  C_21
REMARK                            x       y       z     vdW  Elec       q    Type
REMARK                         _______ _______ _______ _____ _____    ______ ____
ROOT
ATOM      4  N   UNL     1      -3.249  -0.853  25.046  0.00  0.00    -0.297 NA
ATOM      8  C   UNL     1      -1.250  -1.472  23.986  0.00  0.00    +0.092 C 
ATOM      9  C   UNL     1      -2.528  -0.646  23.788  0.00  0.00    +0.097 C 
ATOM     10  C   UNL     1      -1.069  -1.549  25.512  0.00  0.00    +0.029 C 
ATOM     11  C   UNL     1      -2.226  -0.744  26.088  0.00  0.00    +0.085 C 
ENDROOT
BRANCH   8  13
ATOM      1  O   UNL     1       1.147  -0.991  23.846  0.00  0.00    -0.420 OA
ATOM      5  N   UNL     1      -0.018  -0.352  22.047  0.00  0.00    -0.112 NA
ATOM      6  N   UNL     1       1.308  -0.023  21.836  0.00  0.00    -0.107 NA
ATOM     13  C   UNL     1      -0.065  -0.914  23.232  0.00  0.00    +0.222 A 
ATOM     17  C   UNL     1       1.950  -0.414  22.912  0.00  0.00    +0.248 A 
BRANCH  17  21
ATOM      7  N   UNL     1       6.056  -0.167  23.897  0.00  0.00    -0.263 NA
ATOM     21  C   UNL     1       3.342  -0.330  23.247  0.00  0.00    +0.041 A 
ATOM     23  C   UNL     1       3.986  -1.413  23.835  0.00  0.00    +0.033 A 
ATOM     24  C   UNL     1       4.055   0.835  22.983  0.00  0.00    +0.033 A 
ATOM     25  C   UNL     1       5.332  -1.283  24.137  0.00  0.00    +0.111 A 
ATOM     26  C   UNL     1       5.397   0.865  23.324  0.00  0.00    +0.111 A 
ENDBRANCH  17  21
ENDBRANCH   8  13
BRANCH   4  12
ATOM     12  C   UNL     1      -4.331   0.102  25.230  0.00  0.00    +0.119 C 
BRANCH  12  14
ATOM      2  O   UNL     1      -0.785   3.538  24.892  0.00  0.00    -0.453 OA
ATOM      3  O   UNL     1      -2.355   5.352  25.125  0.00  0.00    -0.453 OA
ATOM     14  C   UNL     1      -3.835   1.523  25.207  0.00  0.00    -0.030 A 
ATOM     15  C   UNL     1      -2.471   1.780  25.050  0.00  0.00    +0.054 A 
ATOM     16  C   UNL     1      -4.752   2.581  25.344  0.00  0.00    +0.009 A 
ATOM     18  C   UNL     1      -2.066   3.099  25.033  0.00  0.00    +0.167 A 
ATOM     19  C   UNL     1      -4.314   3.907  25.323  0.00  0.00    +0.050 A 
ATOM     20  C   UNL     1      -2.962   4.134  25.166  0.00  0.00    +0.166 A 
ATOM     22  C   UNL     1      -0.977   4.967  24.950  0.00  0.00    +0.466 C 
ENDBRANCH  12  14
ENDBRANCH   4  12
TORSDOF 4
ENDMDL
MODEL 7
REMARK VINA RESULT:      -1.7     14.476     16.755
REMARK  Name = 51137309
REMARK  4 active torsions:
REMARK  status: ('A' for Active; 'I' for Inactive)
REMARK    1  A    between atoms: N_4  and  C_12
REMARK    2  A    between atoms: C_8  and  C_13
REMARK    3  A    between atoms: C_12  and  C_14
REMARK    4  A    between atoms: C_17  and  C_21
REMARK                            x       y       z     vdW  Elec       q    Type
REMARK                         _______ _______ _______ _____ _____    ______ ____
ROOT
ATOM      4  N   UNL     1      -2.139   4.827  25.183  0.00  0.00    -0.297 NA
ATOM      8  C   UNL     1      -4.237   3.790  25.029  0.00  0.00    +0.092 C 
ATOM      9  C   UNL     1      -2.841   3.814  24.392  0.00  0.00    +0.097 C 
ATOM     10  C   UNL     1      -4.018   4.300  26.464  0.00  0.00    +0.029 C 
ATOM     11  C   UNL     1      -2.520   4.553  26.569  0.00  0.00    +0.085 C 
ENDROOT
BRANCH   8  13
ATOM      1  O   UNL     1      -4.091   1.352  24.859  0.00  0.00    -0.420 OA
ATOM      5  N   UNL     1      -6.185   2.140  24.899  0.00  0.00    -0.112 NA
ATOM      6  N   UNL     1      -6.249   0.763  24.802  0.00  0.00    -0.107 NA
ATOM     13  C   UNL     1      -4.907   2.439  24.929  0.00  0.00    +0.222 A 
ATOM     17  C   UNL     1      -5.004   0.346  24.781  0.00  0.00    +0.248 A 
BRANCH  17  21
ATOM      7  N   UNL     1      -3.423  -3.568  24.518  0.00  0.00    -0.263 NA
ATOM     21  C   UNL     1      -4.469  -0.982  24.692  0.00  0.00    +0.041 A 
ATOM     23  C   UNL     1      -4.682  -1.746  23.551  0.00  0.00    +0.033 A 
ATOM     24  C   UNL     1      -3.733  -1.510  25.748  0.00  0.00    +0.033 A 
ATOM     25  C   UNL     1      -4.142  -3.021  23.513  0.00  0.00    +0.111 A 
ATOM     26  C   UNL     1      -3.237  -2.796  25.613  0.00  0.00    +0.111 A 
ENDBRANCH  17  21
ENDBRANCH   8  13
BRANCH   4  12
ATOM     12  C   UNL     1      -0.698   4.784  24.987  0.00  0.00    +0.119 C 
BRANCH  12  14
ATOM      2  O   UNL     1      -0.814  -0.153  25.316  0.00  0.00    -0.453 OA
ATOM      3  O   UNL     1       0.982  -0.420  23.732  0.00  0.00    -0.453 OA
ATOM     14  C   UNL     1      -0.221   3.402  24.627  0.00  0.00    -0.030 A 
ATOM     15  C   UNL     1      -0.824   2.286  25.214  0.00  0.00    +0.054 A 
ATOM     16  C   UNL     1       0.828   3.246  23.703  0.00  0.00    +0.009 A 
ATOM     18  C   UNL     1      -0.353   1.041  24.851  0.00  0.00    +0.167 A 
ATOM     19  C   UNL     1       1.285   1.974  23.354  0.00  0.00    +0.050 A 
ATOM     20  C   UNL     1       0.672   0.888  23.946  0.00  0.00    +0.166 A 
ATOM     22  C   UNL     1       0.037  -1.073  24.602  0.00  0.00    +0.466 C 
ENDBRANCH  12  14
ENDBRANCH   4  12
TORSDOF 4
ENDMDL
MODEL 8
REMARK VINA RESULT:      -1.2     14.881     17.478
REMARK  Name = 51137309
REMARK  4 active torsions:
REMARK  status: ('A' for Active; 'I' for Inactive)
REMARK    1  A    between atoms: N_4  and  C_12
REMARK    2  A    between atoms: C_8  and  C_13
REMARK    3  A    between atoms: C_12  and  C_14
REMARK    4  A    between atoms: C_17  and  C_21
REMARK                            x       y       z     vdW  Elec       q    Type
REMARK                         _______ _______ _______ _____ _____    ______ ____
ROOT
ATOM      4  N   UNL     1      -5.116   0.536  24.761  0.00  0.00    -0.297 NA
ATOM      8  C   UNL     1      -3.533  -1.187  24.603  0.00  0.00    +0.092 C 
ATOM      9  C   UNL     1      -3.954   0.141  23.961  0.00  0.00    +0.097 C 
ATOM     10  C   UNL     1      -4.069  -1.111  26.044  0.00  0.00    +0.029 C 
ATOM     11  C   UNL     1      -4.732   0.256  26.146  0.00  0.00    +0.085 C 
ENDROOT
BRANCH   8  13
ATOM      1  O   UNL     1      -1.275  -0.429  24.035  0.00  0.00    -0.420 OA
ATOM      5  N   UNL     1      -1.370  -2.540  24.770  0.00  0.00    -0.112 NA
ATOM      6  N   UNL     1      -0.049  -2.245  24.489  0.00  0.00    -0.107 NA
ATOM     13  C   UNL     1      -2.049  -1.452  24.490  0.00  0.00    +0.222 A 
ATOM     17  C   UNL     1      -0.042  -1.003  24.062  0.00  0.00    +0.248 A 
BRANCH  17  21
ATOM      7  N   UNL     1       3.165   1.442  22.786  0.00  0.00    -0.263 NA
ATOM     21  C   UNL     1       1.046  -0.174  23.630  0.00  0.00    +0.041 A 
ATOM     23  C   UNL     1       2.103  -0.726  22.915  0.00  0.00    +0.033 A 
ATOM     24  C   UNL     1       1.047   1.185  23.924  0.00  0.00    +0.033 A 
ATOM     25  C   UNL     1       3.129   0.118  22.519  0.00  0.00    +0.111 A 
ATOM     26  C   UNL     1       2.120   1.943  23.484  0.00  0.00    +0.111 A 
ENDBRANCH  17  21
ENDBRANCH   8  13
BRANCH   4  12
ATOM     12  C   UNL     1      -5.481   1.930  24.559  0.00  0.00    +0.119 C 
BRANCH  12  14
ATOM      2  O   UNL     1      -0.930   3.656  23.662  0.00  0.00    -0.453 OA
ATOM      3  O   UNL     1      -1.092   5.323  25.394  0.00  0.00    -0.453 OA
ATOM     14  C   UNL     1      -4.322   2.857  24.811  0.00  0.00    -0.030 A 
ATOM     15  C   UNL     1      -3.163   2.744  24.038  0.00  0.00    +0.054 A 
ATOM     16  C   UNL     1      -4.417   3.829  25.823  0.00  0.00    +0.009 A 
ATOM     18  C   UNL     1      -2.129   3.617  24.307  0.00  0.00    +0.167 A 
ATOM     19  C   UNL     1      -3.354   4.701  26.072  0.00  0.00    +0.050 A 
ATOM     20  C   UNL     1      -2.221   4.569  25.296  0.00  0.00    +0.166 A 
ATOM     22  C   UNL     1      -0.279   4.740  24.357  0.00  0.00    +0.466 C 
ENDBRANCH  12  14
ENDBRANCH   4  12
TORSDOF 4
ENDMDL
