MODEL 1
REMARK VINA RESULT:       7.4      0.000      0.000
REMARK  Name = 51136631
REMARK  12 active torsions:
REMARK  status: ('A' for Active; 'I' for Inactive)
REMARK    1  A    between atoms: O_1  and  C_20
REMARK    2  A    between atoms: O_4  and  C_26
REMARK    3  A    between atoms: O_4  and  C_33
REMARK    4  A    between atoms: O_5  and  C_27
REMARK    5  A    between atoms: O_5  and  C_35
REMARK    6  A    between atoms: O_6  and  C_29
REMARK    7  A    between atoms: O_6  and  C_36
REMARK    8  A    between atoms: N_9  and  C_28
REMARK    9  A    between atoms: C_10  and  C_15
REMARK   10  A    between atoms: C_11  and  C_16
REMARK   11  A    between atoms: C_15  and  C_17
REMARK   12  A    between atoms: C_16  and  C_20
REMARK                            x       y       z     vdW  Elec       q    Type
REMARK                         _______ _______ _______ _____ _____    ______ ____
ROOT
ATOM      2  O   UNL     1       1.351   1.597  25.281  0.00  0.00    -0.252 OA
ATOM      7  N   UNL     1       0.248   0.021  24.000  0.00  0.00    -0.285 N 
ATOM      9  N   UNL     1      -0.145   2.322  23.663  0.00  0.00    -0.266 N 
ATOM     10  C   UNL     1      -1.792  -1.285  23.472  0.00  0.00    +0.016 C 
ATOM     11  C   UNL     1      -1.180  -2.486  24.241  0.00  0.00    +0.006 C 
ATOM     12  C   UNL     1      -0.159  -2.027  25.298  0.00  0.00    +0.023 C 
ATOM     13  C   UNL     1      -0.665  -0.395  22.923  0.00  0.00    +0.113 C 
ATOM     14  C   UNL     1       0.892  -1.094  24.695  0.00  0.00    +0.109 C 
ATOM     18  C   UNL     1       0.552   1.346  24.375  0.00  0.00    +0.307 C 
ATOM     37  H   UNL     1      -0.434   2.119  22.713  0.00  0.00    +0.156 HD
ENDROOT
BRANCH   9  28
ATOM     28  C   UNL     1      -0.534   3.606  24.120  0.00  0.00    +0.077 A 
ATOM     29  C   UNL     1      -1.213   3.756  25.329  0.00  0.00    +0.141 A 
ATOM     30  C   UNL     1      -0.232   4.727  23.347  0.00  0.00    +0.027 A 
ATOM     31  C   UNL     1      -1.591   5.026  25.764  0.00  0.00    +0.047 A 
ATOM     32  C   UNL     1      -0.610   5.997  23.781  0.00  0.00    +0.002 A 
ATOM     34  C   UNL     1      -1.289   6.147  24.990  0.00  0.00    +0.004 A 
BRANCH  29   6
ATOM      6  O   UNL     1      -1.517   2.674  26.101  0.00  0.00    -0.493 OA
ATOM     36  C   UNL     1      -0.633   2.380  27.180  0.00  0.00    +0.277 C 
ENDBRANCH  29   6
ENDBRANCH   9  28
BRANCH  10  15
ATOM     15  C   UNL     1      -2.778  -0.452  24.300  0.00  0.00    +0.061 C 
BRANCH  15  17
ATOM      8  N   UNL     1      -2.767   0.894  22.311  0.00  0.00    -0.287 NA
ATOM     17  C   UNL     1      -3.175   0.786  23.532  0.00  0.00    +0.044 C 
ATOM     19  C   UNL     1      -4.002   1.815  24.212  0.00  0.00    +0.003 A 
ATOM     21  C   UNL     1      -4.026   3.090  23.632  0.00  0.00    -0.033 A 
ATOM     22  C   UNL     1      -3.217   3.333  22.393  0.00  0.00    +0.059 C 
ATOM     23  C   UNL     1      -3.202   2.068  21.545  0.00  0.00    +0.146 C 
ATOM     24  C   UNL     1      -4.721   1.556  25.381  0.00  0.00    +0.059 A 
ATOM     25  C   UNL     1      -4.754   4.114  24.246  0.00  0.00    +0.053 A 
ATOM     26  C   UNL     1      -5.457   2.580  25.978  0.00  0.00    +0.162 A 
ATOM     27  C   UNL     1      -5.471   3.856  25.414  0.00  0.00    +0.162 A 
BRANCH  26   4
ATOM      4  O   UNL     1      -6.158   2.321  27.118  0.00  0.00    -0.491 OA
ATOM     33  C   UNL     1      -6.858   1.082  27.180  0.00  0.00    +0.277 C 
ENDBRANCH  26   4
BRANCH  27   5
ATOM      5  O   UNL     1      -6.182   4.861  25.997  0.00  0.00    -0.491 OA
ATOM     35  C   UNL     1      -6.575   5.946  25.160  0.00  0.00    +0.277 C 
ENDBRANCH  27   5
ENDBRANCH  15  17
ENDBRANCH  10  15
BRANCH  11  16
ATOM     16  C   UNL     1      -2.233  -3.397  24.869  0.00  0.00    +0.124 C 
BRANCH  16  20
ATOM      3  O   UNL     1      -4.410  -2.943  23.869  0.00  0.00    -0.251 OA
ATOM     20  C   UNL     1      -3.610  -2.797  24.781  0.00  0.00    +0.305 C 
BRANCH  20   1
ATOM      1  O   UNL     1      -3.854  -2.047  25.886  0.00  0.00    -0.481 OA
ATOM     38  H   UNL     1      -3.426  -1.166  25.832  0.00  0.00    +0.295 HD
ENDBRANCH  20   1
ENDBRANCH  16  20
ENDBRANCH  11  16
TORSDOF 9
ENDMDL
MODEL 2
REMARK VINA RESULT:       7.9      2.159      5.716
REMARK  Name = 51136631
REMARK  12 active torsions:
REMARK  status: ('A' for Active; 'I' for Inactive)
REMARK    1  A    between atoms: O_1  and  C_20
REMARK    2  A    between atoms: O_4  and  C_26
REMARK    3  A    between atoms: O_4  and  C_33
REMARK    4  A    between atoms: O_5  and  C_27
REMARK    5  A    between atoms: O_5  and  C_35
REMARK    6  A    between atoms: O_6  and  C_29
REMARK    7  A    between atoms: O_6  and  C_36
REMARK    8  A    between atoms: N_9  and  C_28
REMARK    9  A    between atoms: C_10  and  C_15
REMARK   10  A    between atoms: C_11  and  C_16
REMARK   11  A    between atoms: C_15  and  C_17
REMARK   12  A    between atoms: C_16  and  C_20
REMARK                            x       y       z     vdW  Elec       q    Type
REMARK                         _______ _______ _______ _____ _____    ______ ____
ROOT
ATOM      2  O   UNL     1      -5.149   3.346  24.236  0.00  0.00    -0.252 OA
ATOM      7  N   UNL     1      -4.753   1.291  25.217  0.00  0.00    -0.285 N 
ATOM      9  N   UNL     1      -3.245   3.077  25.534  0.00  0.00    -0.266 N 
ATOM     10  C   UNL     1      -3.546  -0.873  25.278  0.00  0.00    +0.016 C 
ATOM     11  C   UNL     1      -4.780  -1.540  24.616  0.00  0.00    +0.006 C 
ATOM     12  C   UNL     1      -5.610  -0.528  23.804  0.00  0.00    +0.023 C 
ATOM     13  C   UNL     1      -3.993   0.365  26.072  0.00  0.00    +0.113 C 
ATOM     14  C   UNL     1      -5.961   0.705  24.635  0.00  0.00    +0.109 C 
ATOM     18  C   UNL     1      -4.434   2.640  24.951  0.00  0.00    +0.307 C 
ATOM     37  H   UNL     1      -2.939   2.646  26.398  0.00  0.00    +0.156 HD
ENDROOT
BRANCH   9  28
ATOM     28  C   UNL     1      -2.364   4.074  25.046  0.00  0.00    +0.077 A 
ATOM     29  C   UNL     1      -1.562   3.831  23.931  0.00  0.00    +0.141 A 
ATOM     30  C   UNL     1      -2.304   5.309  25.692  0.00  0.00    +0.027 A 
ATOM     31  C   UNL     1      -0.698   4.822  23.463  0.00  0.00    +0.047 A 
ATOM     32  C   UNL     1      -1.440   6.299  25.224  0.00  0.00    +0.002 A 
ATOM     34  C   UNL     1      -0.638   6.056  24.110  0.00  0.00    +0.004 A 
BRANCH  29   6
ATOM      6  O   UNL     1      -1.606   2.632  23.284  0.00  0.00    -0.493 OA
ATOM     36  C   UNL     1      -2.503   2.524  22.181  0.00  0.00    +0.277 C 
ENDBRANCH  29   6
ENDBRANCH   9  28
BRANCH  10  15
ATOM     15  C   UNL     1      -2.431  -0.504  24.291  0.00  0.00    +0.061 C 
BRANCH  15  17
ATOM      8  N   UNL     1      -1.585   0.677  26.204  0.00  0.00    -0.287 NA
ATOM     17  C   UNL     1      -1.337   0.248  25.010  0.00  0.00    +0.044 C 
ATOM     19  C   UNL     1      -0.043   0.465  24.315  0.00  0.00    +0.003 A 
ATOM     21  C   UNL     1       0.788   1.470  24.827  0.00  0.00    -0.033 A 
ATOM     22  C   UNL     1       0.317   2.259  26.013  0.00  0.00    +0.059 C 
ATOM     23  C   UNL     1      -0.503   1.356  26.925  0.00  0.00    +0.146 C 
ATOM     24  C   UNL     1       0.347  -0.275  23.197  0.00  0.00    +0.059 A 
ATOM     25  C   UNL     1       2.003   1.750  24.194  0.00  0.00    +0.053 A 
ATOM     26  C   UNL     1       1.569   0.002  22.581  0.00  0.00    +0.162 A 
ATOM     27  C   UNL     1       2.393   1.013  23.076  0.00  0.00    +0.162 A 
BRANCH  26   4
ATOM      4  O   UNL     1       1.945  -0.723  21.490  0.00  0.00    -0.491 OA
ATOM     33  C   UNL     1       0.922  -1.080  20.565  0.00  0.00    +0.277 C 
ENDBRANCH  26   4
BRANCH  27   5
ATOM      5  O   UNL     1       3.582   1.292  22.474  0.00  0.00    -0.491 OA
ATOM     35  C   UNL     1       4.745   0.669  23.018  0.00  0.00    +0.277 C 
ENDBRANCH  27   5
ENDBRANCH  15  17
ENDBRANCH  10  15
BRANCH  11  16
ATOM     16  C   UNL     1      -4.420  -2.753  23.759  0.00  0.00    +0.124 C 
BRANCH  16  20
ATOM      3  O   UNL     1      -2.159  -3.631  23.516  0.00  0.00    -0.251 OA
ATOM     20  C   UNL     1      -3.134  -3.389  24.210  0.00  0.00    +0.305 C 
BRANCH  20   1
ATOM      1  O   UNL     1      -3.203  -3.667  25.538  0.00  0.00    -0.481 OA
ATOM     38  H   UNL     1      -3.062  -4.620  25.719  0.00  0.00    +0.295 HD
ENDBRANCH  20   1
ENDBRANCH  16  20
ENDBRANCH  11  16
TORSDOF 9
ENDMDL
MODEL 3
REMARK VINA RESULT:       8.1      1.902      5.959
REMARK  Name = 51136631
REMARK  12 active torsions:
REMARK  status: ('A' for Active; 'I' for Inactive)
REMARK    1  A    between atoms: O_1  and  C_20
REMARK    2  A    between atoms: O_4  and  C_26
REMARK    3  A    between atoms: O_4  and  C_33
REMARK    4  A    between atoms: O_5  and  C_27
REMARK    5  A    between atoms: O_5  and  C_35
REMARK    6  A    between atoms: O_6  and  C_29
REMARK    7  A    between atoms: O_6  and  C_36
REMARK    8  A    between atoms: N_9  and  C_28
REMARK    9  A    between atoms: C_10  and  C_15
REMARK   10  A    between atoms: C_11  and  C_16
REMARK   11  A    between atoms: C_15  and  C_17
REMARK   12  A    between atoms: C_16  and  C_20
REMARK                            x       y       z     vdW  Elec       q    Type
REMARK                         _______ _______ _______ _____ _____    ______ ____
ROOT
ATOM      2  O   UNL     1       0.171   4.414  23.269  0.00  0.00    -0.252 OA
ATOM      7  N   UNL     1      -1.304   4.095  25.019  0.00  0.00    -0.285 N 
ATOM      9  N   UNL     1       0.401   2.522  24.591  0.00  0.00    -0.266 N 
ATOM     10  C   UNL     1      -3.288   2.967  25.990  0.00  0.00    +0.016 C 
ATOM     11  C   UNL     1      -4.128   4.225  25.644  0.00  0.00    +0.006 C 
ATOM     12  C   UNL     1      -3.517   5.016  24.474  0.00  0.00    +0.023 C 
ATOM     13  C   UNL     1      -1.817   3.369  26.193  0.00  0.00    +0.113 C 
ATOM     14  C   UNL     1      -2.039   5.323  24.713  0.00  0.00    +0.109 C 
ATOM     18  C   UNL     1      -0.199   3.726  24.224  0.00  0.00    +0.307 C 
ATOM     37  H   UNL     1       0.358   2.233  25.561  0.00  0.00    +0.156 HD
ENDROOT
BRANCH   9  28
ATOM     28  C   UNL     1       1.076   1.605  23.748  0.00  0.00    +0.077 A 
ATOM     29  C   UNL     1       0.361   0.728  22.934  0.00  0.00    +0.141 A 
ATOM     30  C   UNL     1       2.471   1.586  23.737  0.00  0.00    +0.027 A 
ATOM     31  C   UNL     1       1.039  -0.171  22.110  0.00  0.00    +0.047 A 
ATOM     32  C   UNL     1       3.149   0.687  22.914  0.00  0.00    +0.002 A 
ATOM     34  C   UNL     1       2.434  -0.191  22.100  0.00  0.00    +0.004 A 
BRANCH  29   6
ATOM      6  O   UNL     1      -1.003   0.731  22.928  0.00  0.00    -0.493 OA
ATOM     36  C   UNL     1      -1.644   1.600  21.997  0.00  0.00    +0.277 C 
ENDBRANCH  29   6
ENDBRANCH   9  28
BRANCH  10  15
ATOM     15  C   UNL     1      -3.398   1.840  24.957  0.00  0.00    +0.061 C 
BRANCH  15  17
ATOM      8  N   UNL     1      -1.498   0.930  26.111  0.00  0.00    -0.287 NA
ATOM     17  C   UNL     1      -2.526   0.678  25.370  0.00  0.00    +0.044 C 
ATOM     19  C   UNL     1      -2.883  -0.685  24.902  0.00  0.00    +0.003 A 
ATOM     21  C   UNL     1      -1.876  -1.658  24.965  0.00  0.00    -0.033 A 
ATOM     22  C   UNL     1      -0.523  -1.262  25.477  0.00  0.00    +0.059 C 
ATOM     23  C   UNL     1      -0.685  -0.205  26.561  0.00  0.00    +0.146 C 
ATOM     24  C   UNL     1      -4.148  -1.008  24.407  0.00  0.00    +0.059 A 
ATOM     25  C   UNL     1      -2.136  -2.951  24.503  0.00  0.00    +0.053 A 
ATOM     26  C   UNL     1      -4.403  -2.305  23.962  0.00  0.00    +0.162 A 
ATOM     27  C   UNL     1      -3.400  -3.274  24.007  0.00  0.00    +0.162 A 
BRANCH  26   4
ATOM      4  O   UNL     1      -5.640  -2.615  23.481  0.00  0.00    -0.491 OA
ATOM     33  C   UNL     1      -5.720  -3.682  22.539  0.00  0.00    +0.277 C 
ENDBRANCH  26   4
BRANCH  27   5
ATOM      5  O   UNL     1      -3.641  -4.540  23.567  0.00  0.00    -0.491 OA
ATOM     35  C   UNL     1      -2.718  -5.086  22.627  0.00  0.00    +0.277 C 
ENDBRANCH  27   5
ENDBRANCH  15  17
ENDBRANCH  10  15
BRANCH  11  16
ATOM     16  C   UNL     1      -5.598   3.909  25.373  0.00  0.00    +0.124 C 
BRANCH  16  20
ATOM      3  O   UNL     1      -5.989   2.364  27.218  0.00  0.00    -0.251 OA
ATOM     20  C   UNL     1      -6.017   2.619  26.023  0.00  0.00    +0.305 C 
BRANCH  20   1
ATOM      1  O   UNL     1      -6.447   1.747  25.075  0.00  0.00    -0.481 OA
ATOM     38  H   UNL     1      -7.116   2.152  24.483  0.00  0.00    +0.295 HD
ENDBRANCH  20   1
ENDBRANCH  16  20
ENDBRANCH  11  16
TORSDOF 9
ENDMDL
MODEL 4
REMARK VINA RESULT:       8.4      2.061      7.353
REMARK  Name = 51136631
REMARK  12 active torsions:
REMARK  status: ('A' for Active; 'I' for Inactive)
REMARK    1  A    between atoms: O_1  and  C_20
REMARK    2  A    between atoms: O_4  and  C_26
REMARK    3  A    between atoms: O_4  and  C_33
REMARK    4  A    between atoms: O_5  and  C_27
REMARK    5  A    between atoms: O_5  and  C_35
REMARK    6  A    between atoms: O_6  and  C_29
REMARK    7  A    between atoms: O_6  and  C_36
REMARK    8  A    between atoms: N_9  and  C_28
REMARK    9  A    between atoms: C_10  and  C_15
REMARK   10  A    between atoms: C_11  and  C_16
REMARK   11  A    between atoms: C_15  and  C_17
REMARK   12  A    between atoms: C_16  and  C_20
REMARK                            x       y       z     vdW  Elec       q    Type
REMARK                         _______ _______ _______ _____ _____    ______ ____
ROOT
ATOM      2  O   UNL     1      -5.404   0.906  26.276  0.00  0.00    -0.252 OA
ATOM      7  N   UNL     1      -4.622   2.625  24.944  0.00  0.00    -0.285 N 
ATOM      9  N   UNL     1      -4.502   0.389  24.203  0.00  0.00    -0.266 N 
ATOM     10  C   UNL     1      -2.743   3.943  24.006  0.00  0.00    +0.016 C 
ATOM     11  C   UNL     1      -3.020   5.032  25.075  0.00  0.00    +0.006 C 
ATOM     12  C   UNL     1      -3.714   4.449  26.319  0.00  0.00    +0.023 C 
ATOM     13  C   UNL     1      -4.040   3.172  23.708  0.00  0.00    +0.113 C 
ATOM     14  C   UNL     1      -4.956   3.641  25.942  0.00  0.00    +0.109 C 
ATOM     18  C   UNL     1      -4.891   1.267  25.214  0.00  0.00    +0.307 C 
ATOM     37  H   UNL     1      -4.492   0.722  23.246  0.00  0.00    +0.156 HD
ENDROOT
BRANCH   9  28
ATOM     28  C   UNL     1      -4.084  -0.958  24.347  0.00  0.00    +0.077 A 
ATOM     29  C   UNL     1      -3.014  -1.285  25.179  0.00  0.00    +0.141 A 
ATOM     30  C   UNL     1      -4.754  -1.960  23.646  0.00  0.00    +0.027 A 
ATOM     31  C   UNL     1      -2.613  -2.615  25.309  0.00  0.00    +0.047 A 
ATOM     32  C   UNL     1      -4.353  -3.289  23.775  0.00  0.00    +0.002 A 
ATOM     34  C   UNL     1      -3.283  -3.617  24.607  0.00  0.00    +0.004 A 
BRANCH  29   6
ATOM      6  O   UNL     1      -2.346  -0.321  25.874  0.00  0.00    -0.493 OA
ATOM     36  C   UNL     1      -0.958  -0.539  26.112  0.00  0.00    +0.277 C 
ENDBRANCH  29   6
ENDBRANCH   9  28
BRANCH  10  15
ATOM     15  C   UNL     1      -1.617   2.972  24.380  0.00  0.00    +0.061 C 
BRANCH  15  17
ATOM      8  N   UNL     1      -2.536   1.617  22.623  0.00  0.00    -0.287 NA
ATOM     17  C   UNL     1      -1.487   1.902  23.323  0.00  0.00    +0.044 C 
ATOM     19  C   UNL     1      -0.176   1.229  23.143  0.00  0.00    +0.003 A 
ATOM     21  C   UNL     1      -0.181   0.010  22.454  0.00  0.00    -0.033 A 
ATOM     22  C   UNL     1      -1.490  -0.534  21.964  0.00  0.00    +0.059 C 
ATOM     23  C   UNL     1      -2.395   0.621  21.556  0.00  0.00    +0.146 C 
ATOM     24  C   UNL     1       1.019   1.757  23.638  0.00  0.00    +0.059 A 
ATOM     25  C   UNL     1       1.015  -0.694  22.286  0.00  0.00    +0.053 A 
ATOM     26  C   UNL     1       2.210   1.055  23.452  0.00  0.00    +0.162 A 
ATOM     27  C   UNL     1       2.208  -0.168  22.781  0.00  0.00    +0.162 A 
BRANCH  26   4
ATOM      4  O   UNL     1       3.373   1.574  23.936  0.00  0.00    -0.491 OA
ATOM     33  C   UNL     1       4.541   1.401  23.138  0.00  0.00    +0.277 C 
ENDBRANCH  26   4
BRANCH  27   5
ATOM      5  O   UNL     1       3.368  -0.861  22.604  0.00  0.00    -0.491 OA
ATOM     35  C   UNL     1       3.879  -1.567  23.733  0.00  0.00    +0.277 C 
ENDBRANCH  27   5
ENDBRANCH  15  17
ENDBRANCH  10  15
BRANCH  11  16
ATOM     16  C   UNL     1      -1.769   5.815  25.473  0.00  0.00    +0.124 C 
BRANCH  16  20
ATOM      3  O   UNL     1       0.027   5.471  23.860  0.00  0.00    -0.251 OA
ATOM     20  C   UNL     1      -0.521   5.187  24.914  0.00  0.00    +0.305 C 
BRANCH  20   1
ATOM      1  O   UNL     1      -0.069   4.231  25.766  0.00  0.00    -0.481 OA
ATOM     38  H   UNL     1      -0.720   3.508  25.882  0.00  0.00    +0.295 HD
ENDBRANCH  20   1
ENDBRANCH  16  20
ENDBRANCH  11  16
TORSDOF 9
ENDMDL
MODEL 5
REMARK VINA RESULT:       8.5      2.016      5.030
REMARK  Name = 51136631
REMARK  12 active torsions:
REMARK  status: ('A' for Active; 'I' for Inactive)
REMARK    1  A    between atoms: O_1  and  C_20
REMARK    2  A    between atoms: O_4  and  C_26
REMARK    3  A    between atoms: O_4  and  C_33
REMARK    4  A    between atoms: O_5  and  C_27
REMARK    5  A    between atoms: O_5  and  C_35
REMARK    6  A    between atoms: O_6  and  C_29
REMARK    7  A    between atoms: O_6  and  C_36
REMARK    8  A    between atoms: N_9  and  C_28
REMARK    9  A    between atoms: C_10  and  C_15
REMARK   10  A    between atoms: C_11  and  C_16
REMARK   11  A    between atoms: C_15  and  C_17
REMARK   12  A    between atoms: C_16  and  C_20
REMARK                            x       y       z     vdW  Elec       q    Type
REMARK                         _______ _______ _______ _____ _____    ______ ____
ROOT
ATOM      2  O   UNL     1      -3.633  -2.206  23.933  0.00  0.00    -0.252 OA
ATOM      7  N   UNL     1      -1.446  -1.715  24.496  0.00  0.00    -0.285 N 
ATOM      9  N   UNL     1      -3.233  -0.605  25.563  0.00  0.00    -0.266 N 
ATOM     10  C   UNL     1       0.533  -0.228  24.364  0.00  0.00    +0.016 C 
ATOM     11  C   UNL     1       1.128  -1.174  23.288  0.00  0.00    +0.006 C 
ATOM     12  C   UNL     1       0.031  -1.958  22.546  0.00  0.00    +0.023 C 
ATOM     13  C   UNL     1      -0.413  -1.021  25.281  0.00  0.00    +0.113 C 
ATOM     14  C   UNL     1      -0.911  -2.665  23.520  0.00  0.00    +0.109 C 
ATOM     18  C   UNL     1      -2.842  -1.560  24.625  0.00  0.00    +0.307 C 
ATOM     37  H   UNL     1      -2.629  -0.427  26.357  0.00  0.00    +0.156 HD
ENDROOT
BRANCH   9  28
ATOM     28  C   UNL     1      -4.403   0.195  25.541  0.00  0.00    +0.077 A 
ATOM     29  C   UNL     1      -5.002   0.546  24.332  0.00  0.00    +0.141 A 
ATOM     30  C   UNL     1      -4.955   0.631  26.745  0.00  0.00    +0.027 A 
ATOM     31  C   UNL     1      -6.152   1.335  24.326  0.00  0.00    +0.047 A 
ATOM     32  C   UNL     1      -6.105   1.421  26.740  0.00  0.00    +0.002 A 
ATOM     34  C   UNL     1      -6.704   1.772  25.530  0.00  0.00    +0.004 A 
BRANCH  29   6
ATOM      6  O   UNL     1      -4.479   0.128  23.144  0.00  0.00    -0.493 OA
ATOM     36  C   UNL     1      -3.247   0.719  22.735  0.00  0.00    +0.277 C 
ENDBRANCH  29   6
ENDBRANCH   9  28
BRANCH  10  15
ATOM     15  C   UNL     1      -0.182   1.000  23.789  0.00  0.00    +0.061 C 
BRANCH  15  17
ATOM      8  N   UNL     1       0.475   2.117  25.811  0.00  0.00    -0.287 NA
ATOM     17  C   UNL     1      -0.416   2.017  24.880  0.00  0.00    +0.044 C 
ATOM     19  C   UNL     1      -1.651   2.841  24.837  0.00  0.00    +0.003 A 
ATOM     21  C   UNL     1      -2.028   3.476  26.027  0.00  0.00    -0.033 A 
ATOM     22  C   UNL     1      -1.183   3.273  27.250  0.00  0.00    +0.059 C 
ATOM     23  C   UNL     1       0.277   3.145  26.838  0.00  0.00    +0.146 C 
ATOM     24  C   UNL     1      -2.424   2.983  23.683  0.00  0.00    +0.059 A 
ATOM     25  C   UNL     1      -3.201   4.234  26.063  0.00  0.00    +0.053 A 
ATOM     26  C   UNL     1      -3.586   3.755  23.725  0.00  0.00    +0.162 A 
ATOM     27  C   UNL     1      -3.976   4.376  24.912  0.00  0.00    +0.162 A 
BRANCH  26   4
ATOM      4  O   UNL     1      -4.337   3.892  22.596  0.00  0.00    -0.491 OA
ATOM     33  C   UNL     1      -3.749   3.463  21.371  0.00  0.00    +0.277 C 
ENDBRANCH  26   4
BRANCH  27   5
ATOM      5  O   UNL     1      -5.113   5.124  24.959  0.00  0.00    -0.491 OA
ATOM     35  C   UNL     1      -6.154   4.665  25.820  0.00  0.00    +0.277 C 
ENDBRANCH  27   5
ENDBRANCH  15  17
ENDBRANCH  10  15
BRANCH  11  16
ATOM     16  C   UNL     1       2.043  -0.456  22.296  0.00  0.00    +0.124 C 
BRANCH  16  20
ATOM      3  O   UNL     1       3.754   1.155  22.945  0.00  0.00    -0.251 OA
ATOM     20  C   UNL     1       3.311   0.016  22.953  0.00  0.00    +0.305 C 
BRANCH  20   1
ATOM      1  O   UNL     1       3.918  -1.026  23.577  0.00  0.00    -0.481 OA
ATOM     38  H   UNL     1       3.416  -1.322  24.365  0.00  0.00    +0.295 HD
ENDBRANCH  20   1
ENDBRANCH  16  20
ENDBRANCH  11  16
TORSDOF 9
ENDMDL
MODEL 6
REMARK VINA RESULT:       8.8      2.072      6.011
REMARK  Name = 51136631
REMARK  12 active torsions:
REMARK  status: ('A' for Active; 'I' for Inactive)
REMARK    1  A    between atoms: O_1  and  C_20
REMARK    2  A    between atoms: O_4  and  C_26
REMARK    3  A    between atoms: O_4  and  C_33
REMARK    4  A    between atoms: O_5  and  C_27
REMARK    5  A    between atoms: O_5  and  C_35
REMARK    6  A    between atoms: O_6  and  C_29
REMARK    7  A    between atoms: O_6  and  C_36
REMARK    8  A    between atoms: N_9  and  C_28
REMARK    9  A    between atoms: C_10  and  C_15
REMARK   10  A    between atoms: C_11  and  C_16
REMARK   11  A    between atoms: C_15  and  C_17
REMARK   12  A    between atoms: C_16  and  C_20
REMARK                            x       y       z     vdW  Elec       q    Type
REMARK                         _______ _______ _______ _____ _____    ______ ____
ROOT
ATOM      2  O   UNL     1       0.833   3.952  23.016  0.00  0.00    -0.252 OA
ATOM      7  N   UNL     1      -0.247   3.834  25.056  0.00  0.00    -0.285 N 
ATOM      9  N   UNL     1       0.971   1.986  24.239  0.00  0.00    -0.266 N 
ATOM     10  C   UNL     1      -2.147   3.063  26.449  0.00  0.00    +0.016 C 
ATOM     11  C   UNL     1      -2.774   4.476  26.313  0.00  0.00    +0.006 C 
ATOM     12  C   UNL     1      -2.295   5.193  25.038  0.00  0.00    +0.023 C 
ATOM     13  C   UNL     1      -0.619   3.162  26.311  0.00  0.00    +0.113 C 
ATOM     14  C   UNL     1      -0.770   5.195  24.934  0.00  0.00    +0.109 C 
ATOM     18  C   UNL     1       0.556   3.301  24.026  0.00  0.00    +0.307 C 
ATOM     37  H   UNL     1       1.088   1.660  25.191  0.00  0.00    +0.156 HD
ENDROOT
BRANCH   9  28
ATOM     28  C   UNL     1       1.243   1.000  23.257  0.00  0.00    +0.077 A 
ATOM     29  C   UNL     1       2.551   0.743  22.852  0.00  0.00    +0.141 A 
ATOM     30  C   UNL     1       0.185   0.285  22.696  0.00  0.00    +0.027 A 
ATOM     31  C   UNL     1       2.803  -0.229  21.883  0.00  0.00    +0.047 A 
ATOM     32  C   UNL     1       0.436  -0.686  21.727  0.00  0.00    +0.002 A 
ATOM     34  C   UNL     1       1.745  -0.944  21.321  0.00  0.00    +0.004 A 
BRANCH  29   6
ATOM      6  O   UNL     1       3.600   1.429  23.389  0.00  0.00    -0.493 OA
ATOM     36  C   UNL     1       4.877   0.797  23.348  0.00  0.00    +0.277 C 
ENDBRANCH  29   6
ENDBRANCH   9  28
BRANCH  10  15
ATOM     15  C   UNL     1      -2.708   2.033  25.462  0.00  0.00    +0.061 C 
BRANCH  15  17
ATOM      8  N   UNL     1      -0.930   0.680  26.342  0.00  0.00    -0.287 NA
ATOM     17  C   UNL     1      -2.036   0.698  25.675  0.00  0.00    +0.044 C 
ATOM     19  C   UNL     1      -2.668  -0.520  25.106  0.00  0.00    +0.003 A 
ATOM     21  C   UNL     1      -1.854  -1.653  24.980  0.00  0.00    -0.033 A 
ATOM     22  C   UNL     1      -0.419  -1.560  25.405  0.00  0.00    +0.059 C 
ATOM     23  C   UNL     1      -0.308  -0.623  26.600  0.00  0.00    +0.146 C 
ATOM     24  C   UNL     1      -4.003  -0.558  24.698  0.00  0.00    +0.059 A 
ATOM     25  C   UNL     1      -2.378  -2.820  24.415  0.00  0.00    +0.053 A 
ATOM     26  C   UNL     1      -4.521  -1.732  24.149  0.00  0.00    +0.162 A 
ATOM     27  C   UNL     1      -3.711  -2.858  24.005  0.00  0.00    +0.162 A 
BRANCH  26   4
ATOM      4  O   UNL     1      -5.825  -1.764  23.753  0.00  0.00    -0.491 OA
ATOM     33  C   UNL     1      -6.583  -0.570  23.924  0.00  0.00    +0.277 C 
ENDBRANCH  26   4
BRANCH  27   5
ATOM      5  O   UNL     1      -4.211  -4.004  23.464  0.00  0.00    -0.491 OA
ATOM     35  C   UNL     1      -3.316  -4.794  22.683  0.00  0.00    +0.277 C 
ENDBRANCH  27   5
ENDBRANCH  15  17
ENDBRANCH  10  15
BRANCH  11  16
ATOM     16  C   UNL     1      -4.301   4.464  26.383  0.00  0.00    +0.124 C 
BRANCH  16  20
ATOM      3  O   UNL     1      -4.568   3.799  24.053  0.00  0.00    -0.251 OA
ATOM     20  C   UNL     1      -4.904   3.718  25.225  0.00  0.00    +0.305 C 
BRANCH  20   1
ATOM      1  O   UNL     1      -5.904   2.914  25.669  0.00  0.00    -0.481 OA
ATOM     38  H   UNL     1      -6.704   3.426  25.911  0.00  0.00    +0.295 HD
ENDBRANCH  20   1
ENDBRANCH  16  20
ENDBRANCH  11  16
TORSDOF 9
ENDMDL
MODEL 7
REMARK VINA RESULT:       9.4      2.011      6.090
REMARK  Name = 51136631
REMARK  12 active torsions:
REMARK  status: ('A' for Active; 'I' for Inactive)
REMARK    1  A    between atoms: O_1  and  C_20
REMARK    2  A    between atoms: O_4  and  C_26
REMARK    3  A    between atoms: O_4  and  C_33
REMARK    4  A    between atoms: O_5  and  C_27
REMARK    5  A    between atoms: O_5  and  C_35
REMARK    6  A    between atoms: O_6  and  C_29
REMARK    7  A    between atoms: O_6  and  C_36
REMARK    8  A    between atoms: N_9  and  C_28
REMARK    9  A    between atoms: C_10  and  C_15
REMARK   10  A    between atoms: C_11  and  C_16
REMARK   11  A    between atoms: C_15  and  C_17
REMARK   12  A    between atoms: C_16  and  C_20
REMARK                            x       y       z     vdW  Elec       q    Type
REMARK                         _______ _______ _______ _____ _____    ______ ____
ROOT
ATOM      2  O   UNL     1       1.756   3.679  23.724  0.00  0.00    -0.252 OA
ATOM      7  N   UNL     1      -0.053   3.576  25.159  0.00  0.00    -0.285 N 
ATOM      9  N   UNL     1       0.859   1.603  24.242  0.00  0.00    -0.266 N 
ATOM     10  C   UNL     1      -2.486   3.298  25.547  0.00  0.00    +0.016 C 
ATOM     11  C   UNL     1      -2.607   4.840  25.666  0.00  0.00    +0.006 C 
ATOM     12  C   UNL     1      -1.479   5.562  24.908  0.00  0.00    +0.023 C 
ATOM     13  C   UNL     1      -1.067   2.860  25.948  0.00  0.00    +0.113 C 
ATOM     14  C   UNL     1      -0.103   5.030  25.309  0.00  0.00    +0.109 C 
ATOM     18  C   UNL     1       0.930   2.993  24.331  0.00  0.00    +0.307 C 
ATOM     37  H   UNL     1       0.487   1.083  25.028  0.00  0.00    +0.156 HD
ENDROOT
BRANCH   9  28
ATOM     28  C   UNL     1       1.239   0.792  23.143  0.00  0.00    +0.077 A 
ATOM     29  C   UNL     1       2.584   0.616  22.820  0.00  0.00    +0.141 A 
ATOM     30  C   UNL     1       0.252   0.166  22.383  0.00  0.00    +0.027 A 
ATOM     31  C   UNL     1       2.943  -0.184  21.735  0.00  0.00    +0.047 A 
ATOM     32  C   UNL     1       0.610  -0.634  21.298  0.00  0.00    +0.002 A 
ATOM     34  C   UNL     1       1.955  -0.809  20.974  0.00  0.00    +0.004 A 
BRANCH  29   6
ATOM      6  O   UNL     1       3.565   1.218  23.552  0.00  0.00    -0.493 OA
ATOM     36  C   UNL     1       4.859   0.621  23.515  0.00  0.00    +0.277 C 
ENDBRANCH  29   6
ENDBRANCH   9  28
BRANCH  10  15
ATOM     15  C   UNL     1      -2.844   2.749  24.160  0.00  0.00    +0.061 C 
BRANCH  15  17
ATOM      8  N   UNL     1      -5.209   2.338  24.222  0.00  0.00    -0.287 NA
ATOM     17  C   UNL     1      -4.027   1.817  24.266  0.00  0.00    +0.044 C 
ATOM     19  C   UNL     1      -3.780   0.362  24.423  0.00  0.00    +0.003 A 
ATOM     21  C   UNL     1      -4.846  -0.412  24.900  0.00  0.00    -0.033 A 
ATOM     22  C   UNL     1      -6.140   0.270  25.229  0.00  0.00    +0.059 C 
ATOM     23  C   UNL     1      -6.359   1.428  24.265  0.00  0.00    +0.146 C 
ATOM     24  C   UNL     1      -2.550  -0.232  24.129  0.00  0.00    +0.059 A 
ATOM     25  C   UNL     1      -4.665  -1.783  25.107  0.00  0.00    +0.053 A 
ATOM     26  C   UNL     1      -2.384  -1.603  24.325  0.00  0.00    +0.162 A 
ATOM     27  C   UNL     1      -3.437  -2.376  24.815  0.00  0.00    +0.162 A 
BRANCH  26   4
ATOM      4  O   UNL     1      -1.183  -2.178  24.036  0.00  0.00    -0.491 OA
ATOM     33  C   UNL     1      -0.166  -2.087  25.030  0.00  0.00    +0.277 C 
ENDBRANCH  26   4
BRANCH  27   5
ATOM      5  O   UNL     1      -3.277  -3.714  25.015  0.00  0.00    -0.491 OA
ATOM     35  C   UNL     1      -3.653  -4.578  23.944  0.00  0.00    +0.277 C 
ENDBRANCH  27   5
ENDBRANCH  15  17
ENDBRANCH  10  15
BRANCH  11  16
ATOM     16  C   UNL     1      -3.973   5.370  25.233  0.00  0.00    +0.124 C 
BRANCH  16  20
ATOM      3  O   UNL     1      -4.981   3.801  26.804  0.00  0.00    -0.251 OA
ATOM     20  C   UNL     1      -5.094   4.658  25.940  0.00  0.00    +0.305 C 
BRANCH  20   1
ATOM      1  O   UNL     1      -6.288   5.110  25.476  0.00  0.00    -0.481 OA
ATOM     38  H   UNL     1      -7.040   4.606  25.852  0.00  0.00    +0.295 HD
ENDBRANCH  20   1
ENDBRANCH  16  20
ENDBRANCH  11  16
TORSDOF 9
ENDMDL
MODEL 8
REMARK VINA RESULT:      10.4      1.982      6.633
REMARK  Name = 51136631
REMARK  12 active torsions:
REMARK  status: ('A' for Active; 'I' for Inactive)
REMARK    1  A    between atoms: O_1  and  C_20
REMARK    2  A    between atoms: O_4  and  C_26
REMARK    3  A    between atoms: O_4  and  C_33
REMARK    4  A    between atoms: O_5  and  C_27
REMARK    5  A    between atoms: O_5  and  C_35
REMARK    6  A    between atoms: O_6  and  C_29
REMARK    7  A    between atoms: O_6  and  C_36
REMARK    8  A    between atoms: N_9  and  C_28
REMARK    9  A    between atoms: C_10  and  C_15
REMARK   10  A    between atoms: C_11  and  C_16
REMARK   11  A    between atoms: C_15  and  C_17
REMARK   12  A    between atoms: C_16  and  C_20
REMARK                            x       y       z     vdW  Elec       q    Type
REMARK                         _______ _______ _______ _____ _____    ______ ____
ROOT
ATOM      2  O   UNL     1      -4.475  -0.889  27.087  0.00  0.00    -0.252 OA
ATOM      7  N   UNL     1      -5.402   0.657  25.640  0.00  0.00    -0.285 N 
ATOM      9  N   UNL     1      -3.687  -0.788  24.908  0.00  0.00    -0.266 N 
ATOM     10  C   UNL     1      -5.285   2.814  24.425  0.00  0.00    +0.016 C 
ATOM     11  C   UNL     1      -6.198   3.437  25.514  0.00  0.00    +0.006 C 
ATOM     12  C   UNL     1      -6.088   2.683  26.851  0.00  0.00    +0.023 C 
ATOM     13  C   UNL     1      -5.556   1.304  24.327  0.00  0.00    +0.113 C 
ATOM     14  C   UNL     1      -6.302   1.180  26.668  0.00  0.00    +0.109 C 
ATOM     18  C   UNL     1      -4.516  -0.394  25.958  0.00  0.00    +0.307 C 
ATOM     37  H   UNL     1      -4.020  -0.677  23.957  0.00  0.00    +0.156 HD
ENDROOT
BRANCH   9  28
ATOM     28  C   UNL     1      -2.380  -1.328  25.000  0.00  0.00    +0.077 A 
ATOM     29  C   UNL     1      -2.027  -2.465  24.274  0.00  0.00    +0.141 A 
ATOM     30  C   UNL     1      -1.443  -0.711  25.828  0.00  0.00    +0.027 A 
ATOM     31  C   UNL     1      -0.737  -2.986  24.376  0.00  0.00    +0.047 A 
ATOM     32  C   UNL     1      -0.153  -1.232  25.931  0.00  0.00    +0.002 A 
ATOM     34  C   UNL     1       0.200  -2.369  25.205  0.00  0.00    +0.004 A 
BRANCH  29   6
ATOM      6  O   UNL     1      -2.928  -3.082  23.457  0.00  0.00    -0.493 OA
ATOM     36  C   UNL     1      -4.232  -3.309  23.986  0.00  0.00    +0.277 C 
ENDBRANCH  29   6
ENDBRANCH   9  28
BRANCH  10  15
ATOM     15  C   UNL     1      -3.790   3.079  24.638  0.00  0.00    +0.061 C 
BRANCH  15  17
ATOM      8  N   UNL     1      -3.610   2.565  22.298  0.00  0.00    -0.287 NA
ATOM     17  C   UNL     1      -3.007   2.594  23.441  0.00  0.00    +0.044 C 
ATOM     19  C   UNL     1      -1.597   2.170  23.633  0.00  0.00    +0.003 A 
ATOM     21  C   UNL     1      -1.032   1.379  22.624  0.00  0.00    -0.033 A 
ATOM     22  C   UNL     1      -1.878   1.007  21.443  0.00  0.00    +0.059 C 
ATOM     23  C   UNL     1      -2.832   2.151  21.125  0.00  0.00    +0.146 C 
ATOM     24  C   UNL     1      -0.850   2.516  24.761  0.00  0.00    +0.059 A 
ATOM     25  C   UNL     1       0.279   0.914  22.763  0.00  0.00    +0.053 A 
ATOM     26  C   UNL     1       0.463   2.060  24.884  0.00  0.00    +0.162 A 
ATOM     27  C   UNL     1       1.025   1.259  23.890  0.00  0.00    +0.162 A 
BRANCH  26   4
ATOM      4  O   UNL     1       1.188   2.402  25.987  0.00  0.00    -0.491 OA
ATOM     33  C   UNL     1       0.472   2.561  27.208  0.00  0.00    +0.277 C 
ENDBRANCH  26   4
BRANCH  27   5
ATOM      5  O   UNL     1       2.304   0.805  24.009  0.00  0.00    -0.491 OA
ATOM     35  C   UNL     1       3.025   0.577  22.800  0.00  0.00    +0.277 C 
ENDBRANCH  27   5
ENDBRANCH  15  17
ENDBRANCH  10  15
BRANCH  11  16
ATOM     16  C   UNL     1      -5.956   4.932  25.717  0.00  0.00    +0.124 C 
BRANCH  16  20
ATOM      3  O   UNL     1      -3.677   5.236  26.527  0.00  0.00    -0.251 OA
ATOM     20  C   UNL     1      -4.495   5.276  25.621  0.00  0.00    +0.305 C 
BRANCH  20   1
ATOM      1  O   UNL     1      -4.195   5.647  24.349  0.00  0.00    -0.481 OA
ATOM     38  H   UNL     1      -4.314   6.611  24.213  0.00  0.00    +0.295 HD
ENDBRANCH  20   1
ENDBRANCH  16  20
ENDBRANCH  11  16
TORSDOF 9
ENDMDL
MODEL 9
REMARK VINA RESULT:      11.1      2.220      4.557
REMARK  Name = 51136631
REMARK  12 active torsions:
REMARK  status: ('A' for Active; 'I' for Inactive)
REMARK    1  A    between atoms: O_1  and  C_20
REMARK    2  A    between atoms: O_4  and  C_26
REMARK    3  A    between atoms: O_4  and  C_33
REMARK    4  A    between atoms: O_5  and  C_27
REMARK    5  A    between atoms: O_5  and  C_35
REMARK    6  A    between atoms: O_6  and  C_29
REMARK    7  A    between atoms: O_6  and  C_36
REMARK    8  A    between atoms: N_9  and  C_28
REMARK    9  A    between atoms: C_10  and  C_15
REMARK   10  A    between atoms: C_11  and  C_16
REMARK   11  A    between atoms: C_15  and  C_17
REMARK   12  A    between atoms: C_16  and  C_20
REMARK                            x       y       z     vdW  Elec       q    Type
REMARK                         _______ _______ _______ _____ _____    ______ ____
ROOT
ATOM      2  O   UNL     1       0.693   4.478  24.205  0.00  0.00    -0.252 OA
ATOM      7  N   UNL     1       0.642   2.441  23.114  0.00  0.00    -0.285 N 
ATOM      9  N   UNL     1      -1.297   3.286  24.160  0.00  0.00    -0.266 N 
ATOM     10  C   UNL     1       0.639  -0.037  23.173  0.00  0.00    +0.016 C 
ATOM     11  C   UNL     1       2.155  -0.012  22.842  0.00  0.00    +0.006 C 
ATOM     12  C   UNL     1       2.815   1.305  23.289  0.00  0.00    +0.023 C 
ATOM     13  C   UNL     1      -0.031   1.230  22.618  0.00  0.00    +0.113 C 
ATOM     14  C   UNL     1       2.059   2.522  22.755  0.00  0.00    +0.109 C 
ATOM     18  C   UNL     1       0.048   3.488  23.850  0.00  0.00    +0.307 C 
ATOM     37  H   UNL     1      -1.861   2.725  23.533  0.00  0.00    +0.156 HD
ENDROOT
BRANCH   9  28
ATOM     28  C   UNL     1      -2.000   3.767  25.292  0.00  0.00    +0.077 A 
ATOM     29  C   UNL     1      -1.759   3.235  26.558  0.00  0.00    +0.141 A 
ATOM     30  C   UNL     1      -2.943   4.782  25.129  0.00  0.00    +0.027 A 
ATOM     31  C   UNL     1      -2.461   3.718  27.663  0.00  0.00    +0.047 A 
ATOM     32  C   UNL     1      -3.645   5.264  26.234  0.00  0.00    +0.002 A 
ATOM     34  C   UNL     1      -3.404   4.733  27.500  0.00  0.00    +0.004 A 
BRANCH  29   6
ATOM      6  O   UNL     1      -0.841   2.243  26.739  0.00  0.00    -0.493 OA
ATOM     36  C   UNL     1       0.454   2.634  27.188  0.00  0.00    +0.277 C 
ENDBRANCH  29   6
ENDBRANCH   9  28
BRANCH  10  15
ATOM     15  C   UNL     1       0.329  -0.198  24.666  0.00  0.00    +0.061 C 
BRANCH  15  17
ATOM      8  N   UNL     1      -0.436  -2.424  25.145  0.00  0.00    -0.287 NA
ATOM     17  C   UNL     1      -0.775  -1.211  24.855  0.00  0.00    +0.044 C 
ATOM     19  C   UNL     1      -2.184  -0.772  24.693  0.00  0.00    +0.003 A 
ATOM     21  C   UNL     1      -3.139  -1.776  24.490  0.00  0.00    -0.033 A 
ATOM     22  C   UNL     1      -2.682  -3.204  24.435  0.00  0.00    +0.059 C 
ATOM     23  C   UNL     1      -1.509  -3.394  25.388  0.00  0.00    +0.146 C 
ATOM     24  C   UNL     1      -2.566   0.571  24.725  0.00  0.00    +0.059 A 
ATOM     25  C   UNL     1      -4.477  -1.426  24.291  0.00  0.00    +0.053 A 
ATOM     26  C   UNL     1      -3.907   0.910  24.540  0.00  0.00    +0.162 A 
ATOM     27  C   UNL     1      -4.859  -0.085  24.321  0.00  0.00    +0.162 A 
BRANCH  26   4
ATOM      4  O   UNL     1      -4.274   2.222  24.573  0.00  0.00    -0.491 OA
ATOM     33  C   UNL     1      -4.348   2.905  23.324  0.00  0.00    +0.277 C 
ENDBRANCH  26   4
BRANCH  27   5
ATOM      5  O   UNL     1      -6.168   0.241  24.133  0.00  0.00    -0.491 OA
ATOM     35  C   UNL     1      -6.676   1.341  24.887  0.00  0.00    +0.277 C 
ENDBRANCH  27   5
ENDBRANCH  15  17
ENDBRANCH  10  15
BRANCH  11  16
ATOM     16  C   UNL     1       2.913  -1.213  23.406  0.00  0.00    +0.124 C 
BRANCH  16  20
ATOM      3  O   UNL     1       4.996  -0.012  23.004  0.00  0.00    -0.251 OA
ATOM     20  C   UNL     1       4.386  -0.932  23.526  0.00  0.00    +0.305 C 
BRANCH  20   1
ATOM      1  O   UNL     1       4.967  -1.869  24.321  0.00  0.00    -0.481 OA
ATOM     38  H   UNL     1       5.715  -2.315  23.871  0.00  0.00    +0.295 HD
ENDBRANCH  20   1
ENDBRANCH  16  20
ENDBRANCH  11  16
TORSDOF 9
ENDMDL
