MODEL 1
REMARK VINA RESULT:      -3.2      0.000      0.000
REMARK  Name = 25338626
REMARK  9 active torsions:
REMARK  status: ('A' for Active; 'I' for Inactive)
REMARK    1  A    between atoms: O_4  and  C_19
REMARK    2  A    between atoms: O_4  and  C_23
REMARK    3  A    between atoms: O_5  and  C_27
REMARK    4  A    between atoms: N_7  and  C_16
REMARK    5  A    between atoms: N_8  and  C_11
REMARK    6  A    between atoms: C_12  and  C_15
REMARK    7  A    between atoms: C_17  and  C_19
REMARK    8  A    between atoms: C_18  and  C_20
REMARK    9  A    between atoms: C_23  and  C_27
REMARK                            x       y       z     vdW  Elec       q    Type
REMARK                         _______ _______ _______ _____ _____    ______ ____
ROOT
ATOM      7  N   UNL     1      -2.615  -0.520  25.647  0.00  0.00    -0.293 NA
ATOM     11  C   UNL     1      -4.461   0.182  24.408  0.00  0.00    +0.089 C 
ATOM     12  C   UNL     1      -2.222  -0.780  24.249  0.00  0.00    +0.147 C 
ATOM     13  C   UNL     1      -3.366  -0.183  23.407  0.00  0.00    +0.052 C 
ATOM     14  C   UNL     1      -4.081  -0.579  25.669  0.00  0.00    +0.107 C 
ATOM     16  C   UNL     1      -2.019  -1.453  26.595  0.00  0.00    +0.105 C 
ENDROOT
BRANCH  12  15
ATOM      2  O   UNL     1      -0.857   1.083  23.449  0.00  0.00    -0.336 OA
ATOM      9  N   UNL     1       0.311  -0.767  23.927  0.00  0.00    -0.190 NA
ATOM     10  N   UNL     1       0.482   1.388  23.178  0.00  0.00    -0.056 NA
ATOM     15  C   UNL     1      -0.870  -0.204  23.886  0.00  0.00    +0.245 A 
ATOM     18  C   UNL     1       1.109   0.247  23.484  0.00  0.00    +0.202 A 
BRANCH  18  20
ATOM      1  F   UNL     1       6.618  -0.359  23.004  0.00  0.00    -0.205 F 
ATOM     20  C   UNL     1       2.529   0.090  23.360  0.00  0.00    +0.023 A 
ATOM     21  C   UNL     1       3.303   1.132  22.849  0.00  0.00    +0.014 A 
ATOM     22  C   UNL     1       3.136  -1.103  23.752  0.00  0.00    +0.014 A 
ATOM     24  C   UNL     1       4.684   0.981  22.729  0.00  0.00    +0.039 A 
ATOM     25  C   UNL     1       4.518  -1.254  23.632  0.00  0.00    +0.039 A 
ATOM     26  C   UNL     1       5.292  -0.213  23.120  0.00  0.00    +0.123 A 
ENDBRANCH  18  20
ENDBRANCH  12  15
BRANCH  11   8
ATOM      3  O   UNL     1      -6.317   1.601  26.112  0.00  0.00    -0.273 OA
ATOM      8  N   UNL     1      -4.510   1.605  24.648  0.00  0.00    -0.309 N 
ATOM     17  C   UNL     1      -5.443   2.196  25.488  0.00  0.00    +0.239 C 
ATOM     28  H   UNL     1      -3.865   2.198  24.135  0.00  0.00    +0.149 HD
BRANCH  17  19
ATOM     19  C   UNL     1      -5.263   3.697  25.555  0.00  0.00    +0.256 C 
BRANCH  19   4
ATOM      4  O   UNL     1      -4.014   4.073  25.016  0.00  0.00    -0.359 OA
BRANCH   4  23
ATOM     23  C   UNL     1      -3.032   4.262  26.032  0.00  0.00    +0.280 C 
BRANCH  23  27
ATOM      6  O   UNL     1      -0.818   4.539  25.069  0.00  0.00    -0.248 OA
ATOM     27  C   UNL     1      -1.688   3.814  25.530  0.00  0.00    +0.331 C 
BRANCH  27   5
ATOM      5  O   UNL     1      -1.564   2.469  25.659  0.00  0.00    -0.479 OA
ATOM     29  H   UNL     1      -1.723   2.003  24.811  0.00  0.00    +0.295 HD
ENDBRANCH  27   5
ENDBRANCH  23  27
ENDBRANCH   4  23
ENDBRANCH  19   4
ENDBRANCH  17  19
ENDBRANCH  11   8
TORSDOF 8
ENDMDL
MODEL 2
REMARK VINA RESULT:      -3.0     17.129     18.780
REMARK  Name = 25338626
REMARK  9 active torsions:
REMARK  status: ('A' for Active; 'I' for Inactive)
REMARK    1  A    between atoms: O_4  and  C_19
REMARK    2  A    between atoms: O_4  and  C_23
REMARK    3  A    between atoms: O_5  and  C_27
REMARK    4  A    between atoms: N_7  and  C_16
REMARK    5  A    between atoms: N_8  and  C_11
REMARK    6  A    between atoms: C_12  and  C_15
REMARK    7  A    between atoms: C_17  and  C_19
REMARK    8  A    between atoms: C_18  and  C_20
REMARK    9  A    between atoms: C_23  and  C_27
REMARK                            x       y       z     vdW  Elec       q    Type
REMARK                         _______ _______ _______ _____ _____    ______ ____
ROOT
ATOM      7  N   UNL     1      16.528  -4.865  30.382  0.00  0.00    -0.293 NA
ATOM     11  C   UNL     1      16.130  -7.050  31.091  0.00  0.00    +0.089 C 
ATOM     12  C   UNL     1      17.397  -5.682  29.513  0.00  0.00    +0.147 C 
ATOM     13  C   UNL     1      17.035  -7.138  29.863  0.00  0.00    +0.052 C 
ATOM     14  C   UNL     1      16.353  -5.639  31.615  0.00  0.00    +0.107 C 
ATOM     16  C   UNL     1      17.066  -3.536  30.645  0.00  0.00    +0.105 C 
ENDROOT
BRANCH  12  15
ATOM      2  O   UNL     1      16.858  -6.418  27.245  0.00  0.00    -0.336 OA
ATOM      9  N   UNL     1      17.395  -4.249  27.400  0.00  0.00    -0.190 NA
ATOM     10  N   UNL     1      16.772  -5.903  25.946  0.00  0.00    -0.056 NA
ATOM     15  C   UNL     1      17.231  -5.380  28.039  0.00  0.00    +0.245 A 
ATOM     18  C   UNL     1      17.103  -4.619  26.119  0.00  0.00    +0.202 A 
BRANCH  18  20
ATOM      1  F   UNL     1      17.280  -0.982  21.913  0.00  0.00    -0.205 F 
ATOM     20  C   UNL     1      17.148  -3.682  25.034  0.00  0.00    +0.023 A 
ATOM     21  C   UNL     1      17.096  -2.312  25.294  0.00  0.00    +0.014 A 
ATOM     22  C   UNL     1      17.246  -4.140  23.720  0.00  0.00    +0.014 A 
ATOM     24  C   UNL     1      17.140  -1.401  24.240  0.00  0.00    +0.039 A 
ATOM     25  C   UNL     1      17.291  -3.227  22.666  0.00  0.00    +0.039 A 
ATOM     26  C   UNL     1      17.237  -1.858  22.925  0.00  0.00    +0.123 A 
ENDBRANCH  18  20
ENDBRANCH  12  15
BRANCH  11   8
ATOM      3  O   UNL     1      13.855  -6.939  32.872  0.00  0.00    -0.273 OA
ATOM      8  N   UNL     1      14.746  -7.271  30.750  0.00  0.00    -0.309 N 
ATOM     17  C   UNL     1      13.719  -7.195  31.679  0.00  0.00    +0.239 C 
ATOM     28  H   UNL     1      14.527  -7.548  29.797  0.00  0.00    +0.149 HD
BRANCH  17  19
ATOM     19  C   UNL     1      12.371  -7.470  31.047  0.00  0.00    +0.256 C 
BRANCH  19   4
ATOM      4  O   UNL     1      12.115  -8.858  31.005  0.00  0.00    -0.359 OA
BRANCH   4  23
ATOM     23  C   UNL     1      11.523  -9.326  32.213  0.00  0.00    +0.280 C 
BRANCH  23  27
ATOM      6  O   UNL     1       9.373  -8.203  32.362  0.00  0.00    -0.248 OA
ATOM     27  C   UNL     1      10.027  -9.209  32.127  0.00  0.00    +0.331 C 
BRANCH  27   5
ATOM      5  O   UNL     1       9.485 -10.392  31.744  0.00  0.00    -0.479 OA
ATOM     29  H   UNL     1      10.076 -10.887  31.138  0.00  0.00    +0.295 HD
ENDBRANCH  27   5
ENDBRANCH  23  27
ENDBRANCH   4  23
ENDBRANCH  19   4
ENDBRANCH  17  19
ENDBRANCH  11   8
TORSDOF 8
ENDMDL
MODEL 3
REMARK VINA RESULT:      -1.6      1.338      1.808
REMARK  Name = 25338626
REMARK  9 active torsions:
REMARK  status: ('A' for Active; 'I' for Inactive)
REMARK    1  A    between atoms: O_4  and  C_19
REMARK    2  A    between atoms: O_4  and  C_23
REMARK    3  A    between atoms: O_5  and  C_27
REMARK    4  A    between atoms: N_7  and  C_16
REMARK    5  A    between atoms: N_8  and  C_11
REMARK    6  A    between atoms: C_12  and  C_15
REMARK    7  A    between atoms: C_17  and  C_19
REMARK    8  A    between atoms: C_18  and  C_20
REMARK    9  A    between atoms: C_23  and  C_27
REMARK                            x       y       z     vdW  Elec       q    Type
REMARK                         _______ _______ _______ _____ _____    ______ ____
ROOT
ATOM      7  N   UNL     1      -3.569   0.239  24.854  0.00  0.00    -0.293 NA
ATOM     11  C   UNL     1      -4.018   2.191  23.662  0.00  0.00    +0.089 C 
ATOM     12  C   UNL     1      -2.836   0.055  23.587  0.00  0.00    +0.147 C 
ATOM     13  C   UNL     1      -2.996   1.398  22.849  0.00  0.00    +0.052 C 
ATOM     14  C   UNL     1      -4.680   1.145  24.547  0.00  0.00    +0.107 C 
ATOM     16  C   UNL     1      -4.035  -1.015  25.435  0.00  0.00    +0.105 C 
ENDROOT
BRANCH  12  15
ATOM      2  O   UNL     1      -1.146  -1.401  24.586  0.00  0.00    -0.336 OA
ATOM      9  N   UNL     1      -0.307   0.213  23.280  0.00  0.00    -0.190 NA
ATOM     10  N   UNL     1       0.244  -1.564  24.611  0.00  0.00    -0.056 NA
ATOM     15  C   UNL     1      -1.386  -0.334  23.780  0.00  0.00    +0.245 A 
ATOM     18  C   UNL     1       0.669  -0.576  23.818  0.00  0.00    +0.202 A 
BRANCH  18  20
ATOM      1  F   UNL     1       6.058   0.296  22.746  0.00  0.00    -0.205 F 
ATOM     20  C   UNL     1       2.058  -0.351  23.542  0.00  0.00    +0.023 A 
ATOM     21  C   UNL     1       2.467   0.845  22.952  0.00  0.00    +0.014 A 
ATOM     22  C   UNL     1       3.000  -1.329  23.863  0.00  0.00    +0.014 A 
ATOM     24  C   UNL     1       3.817   1.063  22.684  0.00  0.00    +0.039 A 
ATOM     25  C   UNL     1       4.351  -1.110  23.595  0.00  0.00    +0.039 A 
ATOM     26  C   UNL     1       4.760   0.086  23.004  0.00  0.00    +0.123 A 
ENDBRANCH  18  20
ENDBRANCH  12  15
BRANCH  11   8
ATOM      3  O   UNL     1      -5.062   3.448  26.048  0.00  0.00    -0.273 OA
ATOM      8  N   UNL     1      -3.387   3.222  24.450  0.00  0.00    -0.309 N 
ATOM     17  C   UNL     1      -3.970   3.766  25.586  0.00  0.00    +0.239 C 
ATOM     28  H   UNL     1      -2.503   3.601  24.122  0.00  0.00    +0.149 HD
BRANCH  17  19
ATOM     19  C   UNL     1      -3.090   4.825  26.214  0.00  0.00    +0.256 C 
BRANCH  19   4
ATOM      4  O   UNL     1      -1.735   4.606  25.884  0.00  0.00    -0.359 OA
BRANCH   4  23
ATOM     23  C   UNL     1      -1.315   3.284  26.212  0.00  0.00    +0.280 C 
BRANCH  23  27
ATOM      6  O   UNL     1      -0.117   3.147  24.103  0.00  0.00    -0.248 OA
ATOM     27  C   UNL     1      -0.211   2.857  25.287  0.00  0.00    +0.331 C 
BRANCH  27   5
ATOM      5  O   UNL     1       0.688   2.089  25.952  0.00  0.00    -0.479 OA
ATOM     29  H   UNL     1       1.488   1.911  25.414  0.00  0.00    +0.295 HD
ENDBRANCH  27   5
ENDBRANCH  23  27
ENDBRANCH   4  23
ENDBRANCH  19   4
ENDBRANCH  17  19
ENDBRANCH  11   8
TORSDOF 8
ENDMDL
MODEL 4
REMARK VINA RESULT:      -0.5      2.120      3.684
REMARK  Name = 25338626
REMARK  9 active torsions:
REMARK  status: ('A' for Active; 'I' for Inactive)
REMARK    1  A    between atoms: O_4  and  C_19
REMARK    2  A    between atoms: O_4  and  C_23
REMARK    3  A    between atoms: O_5  and  C_27
REMARK    4  A    between atoms: N_7  and  C_16
REMARK    5  A    between atoms: N_8  and  C_11
REMARK    6  A    between atoms: C_12  and  C_15
REMARK    7  A    between atoms: C_17  and  C_19
REMARK    8  A    between atoms: C_18  and  C_20
REMARK    9  A    between atoms: C_23  and  C_27
REMARK                            x       y       z     vdW  Elec       q    Type
REMARK                         _______ _______ _______ _____ _____    ______ ____
ROOT
ATOM      7  N   UNL     1      -2.696   1.930  22.934  0.00  0.00    -0.293 NA
ATOM     11  C   UNL     1      -3.550   1.809  25.100  0.00  0.00    +0.089 C 
ATOM     12  C   UNL     1      -1.527   2.207  23.790  0.00  0.00    +0.147 C 
ATOM     13  C   UNL     1      -2.037   1.982  25.227  0.00  0.00    +0.052 C 
ATOM     14  C   UNL     1      -3.869   2.342  23.712  0.00  0.00    +0.107 C 
ATOM     16  C   UNL     1      -2.635   2.604  21.643  0.00  0.00    +0.105 C 
ENDROOT
BRANCH  12  15
ATOM      2  O   UNL     1      -0.559   0.217  22.754  0.00  0.00    -0.336 OA
ATOM      9  N   UNL     1       0.938   1.545  23.759  0.00  0.00    -0.190 NA
ATOM     10  N   UNL     1       0.687  -0.396  22.574  0.00  0.00    -0.056 NA
ATOM     15  C   UNL     1      -0.322   1.353  23.460  0.00  0.00    +0.245 A 
ATOM     18  C   UNL     1       1.519   0.447  23.194  0.00  0.00    +0.202 A 
BRANCH  18  20
ATOM      1  F   UNL     1       7.006  -0.431  23.471  0.00  0.00    -0.205 F 
ATOM     20  C   UNL     1       2.934   0.221  23.266  0.00  0.00    +0.023 A 
ATOM     21  C   UNL     1       3.422  -1.018  23.683  0.00  0.00    +0.014 A 
ATOM     22  C   UNL     1       3.821   1.239  22.917  0.00  0.00    +0.014 A 
ATOM     24  C   UNL     1       4.796  -1.237  23.753  0.00  0.00    +0.039 A 
ATOM     25  C   UNL     1       5.197   1.018  22.986  0.00  0.00    +0.039 A 
ATOM     26  C   UNL     1       5.685  -0.220  23.404  0.00  0.00    +0.123 A 
ENDBRANCH  18  20
ENDBRANCH  12  15
BRANCH  11   8
ATOM      3  O   UNL     1      -3.686  -0.176  23.002  0.00  0.00    -0.273 OA
ATOM      8  N   UNL     1      -3.940   0.426  25.234  0.00  0.00    -0.309 N 
ATOM     17  C   UNL     1      -3.975  -0.454  24.162  0.00  0.00    +0.239 C 
ATOM     28  H   UNL     1      -4.255   0.104  26.145  0.00  0.00    +0.149 HD
BRANCH  17  19
ATOM     19  C   UNL     1      -4.419  -1.837  24.588  0.00  0.00    +0.256 C 
BRANCH  19   4
ATOM      4  O   UNL     1      -3.405  -2.478  25.332  0.00  0.00    -0.359 OA
BRANCH   4  23
ATOM     23  C   UNL     1      -2.128  -2.348  24.712  0.00  0.00    +0.280 C 
BRANCH  23  27
ATOM      6  O   UNL     1      -1.532  -0.915  26.581  0.00  0.00    -0.248 OA
ATOM     27  C   UNL     1      -1.200  -1.584  25.614  0.00  0.00    +0.331 C 
BRANCH  27   5
ATOM      5  O   UNL     1       0.085  -1.738  25.204  0.00  0.00    -0.479 OA
ATOM     29  H   UNL     1       0.504  -0.880  24.983  0.00  0.00    +0.295 HD
ENDBRANCH  27   5
ENDBRANCH  23  27
ENDBRANCH   4  23
ENDBRANCH  19   4
ENDBRANCH  17  19
ENDBRANCH  11   8
TORSDOF 8
ENDMDL
MODEL 5
REMARK VINA RESULT:      -0.1      3.319      6.805
REMARK  Name = 25338626
REMARK  9 active torsions:
REMARK  status: ('A' for Active; 'I' for Inactive)
REMARK    1  A    between atoms: O_4  and  C_19
REMARK    2  A    between atoms: O_4  and  C_23
REMARK    3  A    between atoms: O_5  and  C_27
REMARK    4  A    between atoms: N_7  and  C_16
REMARK    5  A    between atoms: N_8  and  C_11
REMARK    6  A    between atoms: C_12  and  C_15
REMARK    7  A    between atoms: C_17  and  C_19
REMARK    8  A    between atoms: C_18  and  C_20
REMARK    9  A    between atoms: C_23  and  C_27
REMARK                            x       y       z     vdW  Elec       q    Type
REMARK                         _______ _______ _______ _____ _____    ______ ____
ROOT
ATOM      7  N   UNL     1      -3.190  -1.956  24.169  0.00  0.00    -0.293 NA
ATOM     11  C   UNL     1      -1.024  -2.395  24.911  0.00  0.00    +0.089 C 
ATOM     12  C   UNL     1      -3.084  -1.186  25.423  0.00  0.00    +0.147 C 
ATOM     13  C   UNL     1      -1.611  -1.341  25.849  0.00  0.00    +0.052 C 
ATOM     14  C   UNL     1      -2.244  -3.069  24.300  0.00  0.00    +0.107 C 
ATOM     16  C   UNL     1      -4.544  -2.424  23.895  0.00  0.00    +0.105 C 
ENDROOT
BRANCH  12  15
ATOM      2  O   UNL     1      -4.797   0.552  25.556  0.00  0.00    -0.336 OA
ATOM      9  N   UNL     1      -2.784   1.298  24.918  0.00  0.00    -0.190 NA
ATOM     10  N   UNL     1      -4.939   1.930  25.354  0.00  0.00    -0.056 NA
ATOM     15  C   UNL     1      -3.499   0.262  25.279  0.00  0.00    +0.245 A 
ATOM     18  C   UNL     1      -3.710   2.298  24.979  0.00  0.00    +0.202 A 
BRANCH  18  20
ATOM      1  F   UNL     1      -2.410   7.566  23.748  0.00  0.00    -0.205 F 
ATOM     20  C   UNL     1      -3.375   3.657  24.662  0.00  0.00    +0.023 A 
ATOM     21  C   UNL     1      -2.272   4.261  25.265  0.00  0.00    +0.014 A 
ATOM     22  C   UNL     1      -4.152   4.372  23.750  0.00  0.00    +0.014 A 
ATOM     24  C   UNL     1      -1.947   5.581  24.956  0.00  0.00    +0.039 A 
ATOM     25  C   UNL     1      -3.825   5.692  23.441  0.00  0.00    +0.039 A 
ATOM     26  C   UNL     1      -2.723   6.297  24.044  0.00  0.00    +0.123 A 
ENDBRANCH  18  20
ENDBRANCH  12  15
BRANCH  11   8
ATOM      3  O   UNL     1      -0.053   0.328  24.828  0.00  0.00    -0.273 OA
ATOM      8  N   UNL     1      -0.191  -1.797  23.894  0.00  0.00    -0.309 N 
ATOM     17  C   UNL     1       0.226  -0.475  23.942  0.00  0.00    +0.239 C 
ATOM     28  H   UNL     1       0.051  -2.360  23.084  0.00  0.00    +0.149 HD
BRANCH  17  19
ATOM     19  C   UNL     1       1.088  -0.116  22.751  0.00  0.00    +0.256 C 
BRANCH  19   4
ATOM      4  O   UNL     1       2.164   0.708  23.146  0.00  0.00    -0.359 OA
BRANCH   4  23
ATOM     23  C   UNL     1       3.366   0.379  22.454  0.00  0.00    +0.280 C 
BRANCH  23  27
ATOM      6  O   UNL     1       5.297   0.835  23.856  0.00  0.00    -0.248 OA
ATOM     27  C   UNL     1       4.450   0.056  23.443  0.00  0.00    +0.331 C 
BRANCH  27   5
ATOM      5  O   UNL     1       4.365  -1.243  23.826  0.00  0.00    -0.479 OA
ATOM     29  H   UNL     1       4.685  -1.852  23.128  0.00  0.00    +0.295 HD
ENDBRANCH  27   5
ENDBRANCH  23  27
ENDBRANCH   4  23
ENDBRANCH  19   4
ENDBRANCH  17  19
ENDBRANCH  11   8
TORSDOF 8
ENDMDL
MODEL 6
REMARK VINA RESULT:       0.5      1.200      2.471
REMARK  Name = 25338626
REMARK  9 active torsions:
REMARK  status: ('A' for Active; 'I' for Inactive)
REMARK    1  A    between atoms: O_4  and  C_19
REMARK    2  A    between atoms: O_4  and  C_23
REMARK    3  A    between atoms: O_5  and  C_27
REMARK    4  A    between atoms: N_7  and  C_16
REMARK    5  A    between atoms: N_8  and  C_11
REMARK    6  A    between atoms: C_12  and  C_15
REMARK    7  A    between atoms: C_17  and  C_19
REMARK    8  A    between atoms: C_18  and  C_20
REMARK    9  A    between atoms: C_23  and  C_27
REMARK                            x       y       z     vdW  Elec       q    Type
REMARK                         _______ _______ _______ _____ _____    ______ ____
ROOT
ATOM      7  N   UNL     1      -2.369  -0.644  25.380  0.00  0.00    -0.293 NA
ATOM     11  C   UNL     1      -4.077   0.169  24.017  0.00  0.00    +0.089 C 
ATOM     12  C   UNL     1      -1.834  -0.800  24.014  0.00  0.00    +0.147 C 
ATOM     13  C   UNL     1      -2.885  -0.129  23.108  0.00  0.00    +0.052 C 
ATOM     14  C   UNL     1      -3.829  -0.691  25.247  0.00  0.00    +0.107 C 
ATOM     16  C   UNL     1      -1.874  -1.654  26.308  0.00  0.00    +0.105 C 
ENDROOT
BRANCH  12  15
ATOM      2  O   UNL     1      -0.370   1.146  23.806  0.00  0.00    -0.336 OA
ATOM      9  N   UNL     1       0.700  -0.820  23.703  0.00  0.00    -0.190 NA
ATOM     10  N   UNL     1       0.987   1.449  23.635  0.00  0.00    -0.056 NA
ATOM     15  C   UNL     1      -0.452  -0.211  23.836  0.00  0.00    +0.245 A 
ATOM     18  C   UNL     1       1.552   0.239  23.583  0.00  0.00    +0.202 A 
BRANCH  18  20
ATOM      1  F   UNL     1       7.030  -0.478  22.927  0.00  0.00    -0.205 F 
ATOM     20  C   UNL     1       2.965   0.055  23.414  0.00  0.00    +0.023 A 
ATOM     21  C   UNL     1       3.566  -1.137  23.821  0.00  0.00    +0.014 A 
ATOM     22  C   UNL     1       3.737   1.066  22.842  0.00  0.00    +0.014 A 
ATOM     24  C   UNL     1       4.938  -1.316  23.657  0.00  0.00    +0.039 A 
ATOM     25  C   UNL     1       5.110   0.886  22.678  0.00  0.00    +0.039 A 
ATOM     26  C   UNL     1       5.711  -0.305  23.085  0.00  0.00    +0.123 A 
ENDBRANCH  18  20
ENDBRANCH  12  15
BRANCH  11   8
ATOM      3  O   UNL     1      -2.976   2.390  22.527  0.00  0.00    -0.273 OA
ATOM      8  N   UNL     1      -4.147   1.569  24.361  0.00  0.00    -0.309 N 
ATOM     17  C   UNL     1      -3.585   2.567  23.578  0.00  0.00    +0.239 C 
ATOM     28  H   UNL     1      -4.581   1.823  25.244  0.00  0.00    +0.149 HD
BRANCH  17  19
ATOM     19  C   UNL     1      -3.809   3.940  24.175  0.00  0.00    +0.256 C 
BRANCH  19   4
ATOM      4  O   UNL     1      -5.147   4.085  24.601  0.00  0.00    -0.359 OA
BRANCH   4  23
ATOM     23  C   UNL     1      -5.338   3.601  25.927  0.00  0.00    +0.280 C 
BRANCH  23  27
ATOM      6  O   UNL     1      -6.851   1.984  24.926  0.00  0.00    -0.248 OA
ATOM     27  C   UNL     1      -6.330   2.472  25.919  0.00  0.00    +0.331 C 
BRANCH  27   5
ATOM      5  O   UNL     1      -6.576   2.054  27.187  0.00  0.00    -0.479 OA
ATOM     29  H   UNL     1      -7.510   2.200  27.445  0.00  0.00    +0.295 HD
ENDBRANCH  27   5
ENDBRANCH  23  27
ENDBRANCH   4  23
ENDBRANCH  19   4
ENDBRANCH  17  19
ENDBRANCH  11   8
TORSDOF 8
ENDMDL
MODEL 7
REMARK VINA RESULT:       0.6      2.186      3.934
REMARK  Name = 25338626
REMARK  9 active torsions:
REMARK  status: ('A' for Active; 'I' for Inactive)
REMARK    1  A    between atoms: O_4  and  C_19
REMARK    2  A    between atoms: O_4  and  C_23
REMARK    3  A    between atoms: O_5  and  C_27
REMARK    4  A    between atoms: N_7  and  C_16
REMARK    5  A    between atoms: N_8  and  C_11
REMARK    6  A    between atoms: C_12  and  C_15
REMARK    7  A    between atoms: C_17  and  C_19
REMARK    8  A    between atoms: C_18  and  C_20
REMARK    9  A    between atoms: C_23  and  C_27
REMARK                            x       y       z     vdW  Elec       q    Type
REMARK                         _______ _______ _______ _____ _____    ______ ____
ROOT
ATOM      7  N   UNL     1      -3.924   2.477  23.612  0.00  0.00    -0.293 NA
ATOM     11  C   UNL     1      -4.705   0.966  25.207  0.00  0.00    +0.089 C 
ATOM     12  C   UNL     1      -3.027   2.685  24.765  0.00  0.00    +0.147 C 
ATOM     13  C   UNL     1      -3.430   1.591  25.772  0.00  0.00    +0.052 C 
ATOM     14  C   UNL     1      -5.183   1.971  24.170  0.00  0.00    +0.107 C 
ATOM     16  C   UNL     1      -4.127   3.682  22.817  0.00  0.00    +0.105 C 
ENDROOT
BRANCH  12  15
ATOM      2  O   UNL     1      -0.887   3.812  24.415  0.00  0.00    -0.336 OA
ATOM      9  N   UNL     1      -0.823   1.600  24.073  0.00  0.00    -0.190 NA
ATOM     10  N   UNL     1       0.432   3.512  24.052  0.00  0.00    -0.056 NA
ATOM     15  C   UNL     1      -1.558   2.631  24.403  0.00  0.00    +0.245 A 
ATOM     18  C   UNL     1       0.391   2.189  23.867  0.00  0.00    +0.202 A 
BRANCH  18  20
ATOM      1  F   UNL     1       4.861  -0.760  22.361  0.00  0.00    -0.205 F 
ATOM     20  C   UNL     1       1.543   1.428  23.478  0.00  0.00    +0.023 A 
ATOM     21  C   UNL     1       2.765   2.070  23.275  0.00  0.00    +0.014 A 
ATOM     22  C   UNL     1       1.441   0.048  23.305  0.00  0.00    +0.014 A 
ATOM     24  C   UNL     1       3.885   1.330  22.897  0.00  0.00    +0.039 A 
ATOM     25  C   UNL     1       2.563  -0.691  22.928  0.00  0.00    +0.039 A 
ATOM     26  C   UNL     1       3.784  -0.050  22.723  0.00  0.00    +0.123 A 
ENDBRANCH  18  20
ENDBRANCH  12  15
BRANCH  11   8
ATOM      3  O   UNL     1      -3.593  -1.369  26.502  0.00  0.00    -0.273 OA
ATOM      8  N   UNL     1      -4.446  -0.322  24.608  0.00  0.00    -0.309 N 
ATOM     17  C   UNL     1      -3.907  -1.387  25.315  0.00  0.00    +0.239 C 
ATOM     28  H   UNL     1      -4.617  -0.429  23.612  0.00  0.00    +0.149 HD
BRANCH  17  19
ATOM     19  C   UNL     1      -3.743  -2.613  24.442  0.00  0.00    +0.256 C 
BRANCH  19   4
ATOM      4  O   UNL     1      -2.391  -3.014  24.396  0.00  0.00    -0.359 OA
BRANCH   4  23
ATOM     23  C   UNL     1      -1.518  -1.913  24.160  0.00  0.00    +0.280 C 
BRANCH  23  27
ATOM      6  O   UNL     1       0.342  -2.576  25.576  0.00  0.00    -0.248 OA
ATOM     27  C   UNL     1      -0.545  -1.782  25.298  0.00  0.00    +0.331 C 
BRANCH  27   5
ATOM      5  O   UNL     1      -0.785  -0.640  25.991  0.00  0.00    -0.479 OA
ATOM     29  H   UNL     1      -1.612  -0.202  25.701  0.00  0.00    +0.295 HD
ENDBRANCH  27   5
ENDBRANCH  23  27
ENDBRANCH   4  23
ENDBRANCH  19   4
ENDBRANCH  17  19
ENDBRANCH  11   8
TORSDOF 8
ENDMDL
