MODEL 1
REMARK VINA RESULT:       8.4      0.000      0.000
REMARK  Name = 45360396
REMARK  12 active torsions:
REMARK  status: ('A' for Active; 'I' for Inactive)
REMARK    1  A    between atoms: O_1  and  C_13
REMARK    2  A    between atoms: O_4  and  C_28
REMARK    3  A    between atoms: O_4  and  C_33
REMARK    4  A    between atoms: O_5  and  C_32
REMARK    5  A    between atoms: O_5  and  C_39
REMARK    6  A    between atoms: N_9  and  C_12
REMARK    7  A    between atoms: N_10  and  C_21
REMARK    8  A    between atoms: C_19  and  C_20
REMARK    9  A    between atoms: C_24  and  C_32
REMARK   10  A    between atoms: C_33  and  C_34
REMARK   11  A    between atoms: C_35  and  C_37
REMARK   12  A    between atoms: C_36  and  C_38
REMARK                            x       y       z     vdW  Elec       q    Type
REMARK                         _______ _______ _______ _____ _____    ______ ____
ROOT
ATOM      2  O   UNL     1      -6.580   1.331  25.575  0.00  0.00    -0.252 OA
ATOM      8  N   UNL     1      -5.311   3.106  26.338  0.00  0.00    -0.284 N 
ATOM     10  N   UNL     1      -4.328   0.981  26.019  0.00  0.00    -0.269 N 
ATOM     12  C   UNL     1      -3.233   4.275  25.526  0.00  0.00    +0.119 C 
ATOM     13  C   UNL     1      -4.039   4.904  24.375  0.00  0.00    +0.136 C 
ATOM     14  C   UNL     1      -5.274   5.711  24.788  0.00  0.00    +0.035 C 
ATOM     15  C   UNL     1      -4.042   3.743  26.716  0.00  0.00    +0.134 C 
ATOM     16  C   UNL     1      -6.512   4.843  25.023  0.00  0.00    +0.022 C 
ATOM     17  C   UNL     1      -6.465   4.006  26.296  0.00  0.00    +0.109 C 
ATOM     18  C   UNL     1      -5.484   1.756  25.948  0.00  0.00    +0.307 C 
ATOM     42  H   UNL     1      -3.618   1.269  26.683  0.00  0.00    +0.156 HD
ENDROOT
BRANCH  10  21
ATOM     21  C   UNL     1      -3.977  -0.136  25.220  0.00  0.00    +0.049 A 
ATOM     24  C   UNL     1      -3.673   0.016  23.867  0.00  0.00    +0.080 A 
ATOM     25  C   UNL     1      -3.938  -1.401  25.804  0.00  0.00    +0.024 A 
ATOM     29  C   UNL     1      -3.329  -1.097  23.099  0.00  0.00    +0.017 A 
ATOM     30  C   UNL     1      -3.595  -2.514  25.037  0.00  0.00    +0.002 A 
ATOM     31  C   UNL     1      -3.290  -2.362  23.685  0.00  0.00    +0.001 A 
BRANCH  24  32
ATOM      6  O   UNL     1      -4.661   2.106  23.283  0.00  0.00    -0.245 OA
ATOM     32  C   UNL     1      -3.706   1.324  23.224  0.00  0.00    +0.341 C 
BRANCH  32   5
ATOM      5  O   UNL     1      -2.545   1.578  22.547  0.00  0.00    -0.464 OA
ATOM     39  C   UNL     1      -2.656   2.349  21.346  0.00  0.00    +0.280 C 
ENDBRANCH  32   5
ENDBRANCH  24  32
ENDBRANCH  10  21
BRANCH  12   9
ATOM      3  O   UNL     1      -0.959   3.093  26.818  0.00  0.00    -0.270 OA
ATOM      9  N   UNL     1      -2.374   3.238  24.988  0.00  0.00    -0.305 N 
ATOM     19  C   UNL     1      -1.298   2.733  25.693  0.00  0.00    +0.244 C 
ATOM     40  H   UNL     1      -2.626   2.862  24.080  0.00  0.00    +0.149 HD
BRANCH  19  20
ATOM     20  C   UNL     1      -0.502   1.694  24.993  0.00  0.00    +0.037 A 
ATOM     22  C   UNL     1       0.478   2.068  24.073  0.00  0.00    +0.016 A 
ATOM     23  C   UNL     1      -0.735   0.343  25.252  0.00  0.00    +0.016 A 
ATOM     26  C   UNL     1       1.225   1.092  23.413  0.00  0.00    +0.046 A 
ATOM     27  C   UNL     1       0.011  -0.633  24.592  0.00  0.00    +0.046 A 
ATOM     28  C   UNL     1       0.991  -0.259  23.672  0.00  0.00    +0.121 A 
BRANCH  28   4
ATOM      4  O   UNL     1       1.720  -1.211  23.029  0.00  0.00    -0.487 OA
BRANCH   4  33
ATOM     33  C   UNL     1       2.727  -0.756  22.124  0.00  0.00    +0.269 C 
BRANCH  33  34
ATOM      7  O   UNL     1       5.513   0.997  23.793  0.00  0.00    -0.359 OA
ATOM     11  N   UNL     1       5.712  -0.278  24.308  0.00  0.00    -0.083 NA
ATOM     34  C   UNL     1       3.914  -0.282  22.912  0.00  0.00    +0.054 A 
ATOM     35  C   UNL     1       4.439   0.981  22.963  0.00  0.00    +0.141 A 
ATOM     36  C   UNL     1       4.744  -1.025  23.768  0.00  0.00    +0.087 A 
ATOM     37  C   UNL     1       4.088   2.258  22.327  0.00  0.00    +0.089 C 
ATOM     38  C   UNL     1       4.656  -2.456  24.104  0.00  0.00    +0.069 C 
ENDBRANCH  33  34
ENDBRANCH   4  33
ENDBRANCH  28   4
ENDBRANCH  19  20
ENDBRANCH  12   9
BRANCH  13   1
ATOM      1  O   UNL     1      -3.168   5.802  23.672  0.00  0.00    -0.390 OA
ATOM     41  H   UNL     1      -2.256   5.496  23.811  0.00  0.00    +0.210 HD
ENDBRANCH  13   1
TORSDOF 9
ENDMDL
MODEL 2
REMARK VINA RESULT:      10.8      1.295      1.952
REMARK  Name = 45360396
REMARK  12 active torsions:
REMARK  status: ('A' for Active; 'I' for Inactive)
REMARK    1  A    between atoms: O_1  and  C_13
REMARK    2  A    between atoms: O_4  and  C_28
REMARK    3  A    between atoms: O_4  and  C_33
REMARK    4  A    between atoms: O_5  and  C_32
REMARK    5  A    between atoms: O_5  and  C_39
REMARK    6  A    between atoms: N_9  and  C_12
REMARK    7  A    between atoms: N_10  and  C_21
REMARK    8  A    between atoms: C_19  and  C_20
REMARK    9  A    between atoms: C_24  and  C_32
REMARK   10  A    between atoms: C_33  and  C_34
REMARK   11  A    between atoms: C_35  and  C_37
REMARK   12  A    between atoms: C_36  and  C_38
REMARK                            x       y       z     vdW  Elec       q    Type
REMARK                         _______ _______ _______ _____ _____    ______ ____
ROOT
ATOM      2  O   UNL     1      -6.554   0.937  25.530  0.00  0.00    -0.252 OA
ATOM      8  N   UNL     1      -5.345   2.750  26.301  0.00  0.00    -0.284 N 
ATOM     10  N   UNL     1      -4.287   0.666  25.954  0.00  0.00    -0.269 N 
ATOM     12  C   UNL     1      -3.317   4.002  25.487  0.00  0.00    +0.119 C 
ATOM     13  C   UNL     1      -4.154   4.613  24.347  0.00  0.00    +0.136 C 
ATOM     14  C   UNL     1      -5.414   5.370  24.778  0.00  0.00    +0.035 C 
ATOM     15  C   UNL     1      -4.097   3.429  26.676  0.00  0.00    +0.134 C 
ATOM     16  C   UNL     1      -6.618   4.455  25.013  0.00  0.00    +0.022 C 
ATOM     17  C   UNL     1      -6.531   3.608  26.277  0.00  0.00    +0.109 C 
ATOM     18  C   UNL     1      -5.472   1.399  25.898  0.00  0.00    +0.307 C 
ATOM     42  H   UNL     1      -3.583   0.973  26.615  0.00  0.00    +0.156 HD
ENDROOT
BRANCH  10  21
ATOM     21  C   UNL     1      -3.901  -0.430  25.140  0.00  0.00    +0.049 A 
ATOM     24  C   UNL     1      -2.609  -0.952  25.203  0.00  0.00    +0.080 A 
ATOM     25  C   UNL     1      -4.835  -0.986  24.268  0.00  0.00    +0.024 A 
ATOM     29  C   UNL     1      -2.251  -2.030  24.394  0.00  0.00    +0.017 A 
ATOM     30  C   UNL     1      -4.478  -2.064  23.458  0.00  0.00    +0.002 A 
ATOM     31  C   UNL     1      -3.187  -2.586  23.521  0.00  0.00    +0.001 A 
BRANCH  24  32
ATOM      6  O   UNL     1      -1.538   0.802  26.413  0.00  0.00    -0.245 OA
ATOM     32  C   UNL     1      -1.608  -0.392  26.103  0.00  0.00    +0.341 C 
BRANCH  32   5
ATOM      5  O   UNL     1      -0.754  -1.356  26.562  0.00  0.00    -0.464 OA
ATOM     39  C   UNL     1       0.101  -1.974  25.594  0.00  0.00    +0.280 C 
ENDBRANCH  32   5
ENDBRANCH  24  32
ENDBRANCH  10  21
BRANCH  12   9
ATOM      3  O   UNL     1      -0.628   4.424  24.575  0.00  0.00    -0.270 OA
ATOM      9  N   UNL     1      -2.425   3.003  24.932  0.00  0.00    -0.305 N 
ATOM     19  C   UNL     1      -1.141   3.308  24.520  0.00  0.00    +0.244 C 
ATOM     40  H   UNL     1      -2.770   2.050  24.900  0.00  0.00    +0.149 HD
BRANCH  19  20
ATOM     20  C   UNL     1      -0.364   2.178  23.950  0.00  0.00    +0.037 A 
ATOM     22  C   UNL     1       0.972   2.001  24.309  0.00  0.00    +0.016 A 
ATOM     23  C   UNL     1      -0.968   1.297  23.054  0.00  0.00    +0.016 A 
ATOM     26  C   UNL     1       1.704   0.941  23.773  0.00  0.00    +0.046 A 
ATOM     27  C   UNL     1      -0.237   0.238  22.517  0.00  0.00    +0.046 A 
ATOM     28  C   UNL     1       1.099   0.060  22.876  0.00  0.00    +0.121 A 
BRANCH  28   4
ATOM      4  O   UNL     1       1.812  -0.975  22.353  0.00  0.00    -0.487 OA
BRANCH   4  33
ATOM     33  C   UNL     1       3.039  -0.652  21.698  0.00  0.00    +0.269 C 
BRANCH  33  34
ATOM      7  O   UNL     1       5.396   1.065  23.960  0.00  0.00    -0.359 OA
ATOM     11  N   UNL     1       5.528  -0.231  24.443  0.00  0.00    -0.083 NA
ATOM     34  C   UNL     1       4.036  -0.196  22.724  0.00  0.00    +0.054 A 
ATOM     35  C   UNL     1       4.504   1.073  22.936  0.00  0.00    +0.141 A 
ATOM     36  C   UNL     1       4.706  -0.967  23.689  0.00  0.00    +0.087 A 
ATOM     37  C   UNL     1       4.246   2.374  22.306  0.00  0.00    +0.089 C 
ATOM     38  C   UNL     1       4.597  -2.415  23.933  0.00  0.00    +0.069 C 
ENDBRANCH  33  34
ENDBRANCH   4  33
ENDBRANCH  28   4
ENDBRANCH  19  20
ENDBRANCH  12   9
BRANCH  13   1
ATOM      1  O   UNL     1      -3.322   5.549  23.647  0.00  0.00    -0.390 OA
ATOM     41  H   UNL     1      -2.955   5.093  22.870  0.00  0.00    +0.210 HD
ENDBRANCH  13   1
TORSDOF 9
ENDMDL
