MODEL 1
REMARK VINA RESULT:       3.9      0.000      0.000
REMARK  Name = 7134313
REMARK  13 active torsions:
REMARK  status: ('A' for Active; 'I' for Inactive)
REMARK    1  A    between atoms: S_1  and  N_12
REMARK    2  A    between atoms: S_1  and  C_26
REMARK    3  A    between atoms: O_7  and  C_24
REMARK    4  A    between atoms: O_7  and  C_35
REMARK    5  A    between atoms: O_9  and  C_40
REMARK    6  A    between atoms: N_12  and  C_16
REMARK    7  A    between atoms: N_13  and  C_23
REMARK    8  A    between atoms: C_17  and  C_21
REMARK    9  A    between atoms: C_22  and  C_24
REMARK   10  A    between atoms: C_23  and  C_25
REMARK   11  A    between atoms: C_23  and  C_28
REMARK   12  A    between atoms: C_25  and  C_27
REMARK   13  A    between atoms: C_35  and  C_40
REMARK                            x       y       z     vdW  Elec       q    Type
REMARK                         _______ _______ _______ _____ _____    ______ ____
ROOT
ATOM      4  O   UNL     1      -4.396   0.207  24.219  0.00  0.00    -0.273 OA
ATOM     11  N   UNL     1      -2.096   0.304  24.568  0.00  0.00    -0.288 N 
ATOM     16  C   UNL     1       0.584   0.402  23.429  0.00  0.00    +0.080 C 
ATOM     17  C   UNL     1      -0.936   0.188  25.469  0.00  0.00    +0.163 C 
ATOM     18  C   UNL     1       0.328  -0.303  24.762  0.00  0.00    +0.052 C 
ATOM     19  C   UNL     1      -0.659   0.346  22.547  0.00  0.00    +0.039 C 
ATOM     20  C   UNL     1      -1.858   0.946  23.270  0.00  0.00    +0.110 C 
ATOM     22  C   UNL     1      -3.411  -0.016  24.928  0.00  0.00    +0.242 C 
ENDROOT
BRANCH  17  21
ATOM      3  O   UNL     1      -0.256   1.660  27.224  0.00  0.00    -0.274 OA
ATOM     13  N   UNL     1      -1.188   2.565  25.292  0.00  0.00    -0.302 N 
ATOM     21  C   UNL     1      -0.742   1.535  26.103  0.00  0.00    +0.234 C 
ATOM     42  H   UNL     1      -1.550   2.357  24.367  0.00  0.00    +0.150 HD
BRANCH  13  23
ATOM     23  C   UNL     1      -1.135   3.956  25.681  0.00  0.00    +0.163 C 
BRANCH  23  28
ATOM      8  O   UNL     1      -0.302   5.926  24.527  0.00  0.00    -0.274 OA
ATOM     15  N   UNL     1       0.143   3.858  23.631  0.00  0.00    -0.328 N 
ATOM     28  C   UNL     1      -0.416   4.703  24.567  0.00  0.00    +0.231 C 
ATOM     44  H   UNL     1       0.061   2.848  23.690  0.00  0.00    +0.145 HD
ATOM     45  H   UNL     1       0.664   4.227  22.843  0.00  0.00    +0.145 HD
ENDBRANCH  23  28
BRANCH  23  25
ATOM     25  C   UNL     1      -2.532   4.548  25.909  0.00  0.00    +0.069 C 
BRANCH  25  27
ATOM     14  N   UNL     1      -4.780   3.218  23.323  0.00  0.00    -0.360 N 
ATOM     27  C   UNL     1      -3.594   3.893  25.075  0.00  0.00    -0.020 A 
ATOM     29  C   UNL     1      -4.694   3.127  25.551  0.00  0.00    +0.003 A 
ATOM     31  C   UNL     1      -3.674   3.932  23.702  0.00  0.00    +0.087 A 
ATOM     32  C   UNL     1      -5.422   2.715  24.433  0.00  0.00    +0.047 A 
ATOM     34  C   UNL     1      -5.143   2.743  26.831  0.00  0.00    +0.010 A 
ATOM     37  C   UNL     1      -6.580   1.935  24.530  0.00  0.00    +0.026 A 
ATOM     38  C   UNL     1      -6.299   1.963  26.945  0.00  0.00    +0.001 A 
ATOM     39  C   UNL     1      -7.005   1.566  25.810  0.00  0.00    +0.002 A 
ATOM     43  H   UNL     1      -5.079   3.077  22.369  0.00  0.00    +0.165 HD
ENDBRANCH  25  27
ENDBRANCH  23  25
ENDBRANCH  13  23
ENDBRANCH  17  21
BRANCH  16  12
ATOM     12  N   UNL     1       1.713  -0.263  22.734  0.00  0.00    -0.186 NA
ATOM     41  H   UNL     1       1.435  -0.984  22.056  0.00  0.00    +0.148 HD
BRANCH  12   1
ATOM      1  S   UNL     1       3.081   0.689  22.349  0.00  0.00    +0.065 S 
ATOM      5  O   UNL     1       2.919   2.016  22.908  0.00  0.00    -0.153 OA
ATOM      6  O   UNL     1       3.405   0.496  20.948  0.00  0.00    -0.153 OA
BRANCH   1  26
ATOM      2  S   UNL     1       4.229  -1.611  23.803  0.00  0.00    -0.077 S 
ATOM     26  C   UNL     1       4.483  -0.025  23.208  0.00  0.00    +0.142 A 
ATOM     30  C   UNL     1       5.747   0.439  23.498  0.00  0.00    +0.036 A 
ATOM     33  C   UNL     1       6.517  -0.519  24.219  0.00  0.00    +0.010 A 
ATOM     36  C   UNL     1       5.813  -1.679  24.452  0.00  0.00    +0.047 A 
ENDBRANCH   1  26
ENDBRANCH  12   1
ENDBRANCH  16  12
BRANCH  22  24
ATOM     24  C   UNL     1      -3.606  -0.684  26.266  0.00  0.00    +0.256 C 
BRANCH  24   7
ATOM      7  O   UNL     1      -2.757  -1.805  26.284  0.00  0.00    -0.359 OA
BRANCH   7  35
ATOM     35  C   UNL     1      -3.357  -2.943  25.668  0.00  0.00    +0.280 C 
BRANCH  35  40
ATOM     10  O   UNL     1      -1.948  -3.004  23.689  0.00  0.00    -0.248 OA
ATOM     40  C   UNL     1      -3.059  -2.941  24.194  0.00  0.00    +0.331 C 
BRANCH  40   9
ATOM      9  O   UNL     1      -4.211  -2.859  23.483  0.00  0.00    -0.479 OA
ATOM     46  H   UNL     1      -4.047  -2.888  22.516  0.00  0.00    +0.295 HD
ENDBRANCH  40   9
ENDBRANCH  35  40
ENDBRANCH   7  35
ENDBRANCH  24   7
ENDBRANCH  22  24
TORSDOF 13
ENDMDL
MODEL 2
REMARK VINA RESULT:       4.4      2.141      5.236
REMARK  Name = 7134313
REMARK  13 active torsions:
REMARK  status: ('A' for Active; 'I' for Inactive)
REMARK    1  A    between atoms: S_1  and  N_12
REMARK    2  A    between atoms: S_1  and  C_26
REMARK    3  A    between atoms: O_7  and  C_24
REMARK    4  A    between atoms: O_7  and  C_35
REMARK    5  A    between atoms: O_9  and  C_40
REMARK    6  A    between atoms: N_12  and  C_16
REMARK    7  A    between atoms: N_13  and  C_23
REMARK    8  A    between atoms: C_17  and  C_21
REMARK    9  A    between atoms: C_22  and  C_24
REMARK   10  A    between atoms: C_23  and  C_25
REMARK   11  A    between atoms: C_23  and  C_28
REMARK   12  A    between atoms: C_25  and  C_27
REMARK   13  A    between atoms: C_35  and  C_40
REMARK                            x       y       z     vdW  Elec       q    Type
REMARK                         _______ _______ _______ _____ _____    ______ ____
ROOT
ATOM      4  O   UNL     1      -2.147   3.940  27.841  0.00  0.00    -0.273 OA
ATOM     11  N   UNL     1      -1.608   3.106  25.735  0.00  0.00    -0.288 N 
ATOM     16  C   UNL     1       0.293   1.690  24.041  0.00  0.00    +0.080 C 
ATOM     17  C   UNL     1      -1.857   3.045  24.285  0.00  0.00    +0.163 C 
ATOM     18  C   UNL     1      -0.588   2.800  23.466  0.00  0.00    +0.052 C 
ATOM     19  C   UNL     1       0.570   1.938  25.520  0.00  0.00    +0.039 C 
ATOM     20  C   UNL     1      -0.734   2.068  26.296  0.00  0.00    +0.110 C 
ATOM     22  C   UNL     1      -2.259   3.981  26.613  0.00  0.00    +0.242 C 
ENDROOT
BRANCH  17  21
ATOM      3  O   UNL     1      -2.991   1.385  22.992  0.00  0.00    -0.274 OA
ATOM     13  N   UNL     1      -3.679   1.772  25.182  0.00  0.00    -0.302 N 
ATOM     21  C   UNL     1      -2.886   1.975  24.065  0.00  0.00    +0.234 C 
ATOM     42  H   UNL     1      -3.492   2.294  26.033  0.00  0.00    +0.150 HD
BRANCH  13  23
ATOM     23  C   UNL     1      -4.759   0.813  25.222  0.00  0.00    +0.163 C 
BRANCH  23  28
ATOM      8  O   UNL     1      -6.871   1.784  24.511  0.00  0.00    -0.274 OA
ATOM     15  N   UNL     1      -6.224   2.042  26.700  0.00  0.00    -0.328 N 
ATOM     28  C   UNL     1      -6.049   1.599  25.405  0.00  0.00    +0.231 C 
ATOM     44  H   UNL     1      -5.548   1.863  27.434  0.00  0.00    +0.145 HD
ATOM     45  H   UNL     1      -7.051   2.568  26.962  0.00  0.00    +0.145 HD
ENDBRANCH  23  28
BRANCH  23  25
ATOM     25  C   UNL     1      -4.826  -0.038  23.947  0.00  0.00    +0.069 C 
BRANCH  25  27
ATOM     14  N   UNL     1      -3.674  -3.528  23.967  0.00  0.00    -0.360 N 
ATOM     27  C   UNL     1      -4.120  -1.356  24.081  0.00  0.00    -0.020 A 
ATOM     29  C   UNL     1      -2.835  -1.576  24.650  0.00  0.00    +0.003 A 
ATOM     31  C   UNL     1      -4.611  -2.575  23.671  0.00  0.00    +0.087 A 
ATOM     32  C   UNL     1      -2.578  -2.947  24.566  0.00  0.00    +0.047 A 
ATOM     34  C   UNL     1      -1.861  -0.739  25.230  0.00  0.00    +0.010 A 
ATOM     37  C   UNL     1      -1.393  -3.523  25.035  0.00  0.00    +0.026 A 
ATOM     38  C   UNL     1      -0.670  -1.300  25.703  0.00  0.00    +0.001 A 
ATOM     39  C   UNL     1      -0.442  -2.673  25.606  0.00  0.00    +0.002 A 
ATOM     43  H   UNL     1      -3.769  -4.515  23.772  0.00  0.00    +0.165 HD
ENDBRANCH  25  27
ENDBRANCH  23  25
ENDBRANCH  13  23
ENDBRANCH  17  21
BRANCH  16  12
ATOM     12  N   UNL     1       1.577   1.651  23.298  0.00  0.00    -0.186 NA
ATOM     41  H   UNL     1       2.284   2.320  23.627  0.00  0.00    +0.148 HD
BRANCH  12   1
ATOM      1  S   UNL     1       2.132   0.129  22.749  0.00  0.00    +0.065 S 
ATOM      5  O   UNL     1       2.140   0.111  21.300  0.00  0.00    -0.153 OA
ATOM      6  O   UNL     1       1.470  -0.912  23.511  0.00  0.00    -0.153 OA
BRANCH   1  26
ATOM      2  S   UNL     1       4.284  -1.540  23.892  0.00  0.00    -0.077 S 
ATOM     26  C   UNL     1       3.850  -0.017  23.240  0.00  0.00    +0.142 A 
ATOM     30  C   UNL     1       4.918   0.853  23.203  0.00  0.00    +0.036 A 
ATOM     33  C   UNL     1       6.108   0.261  23.718  0.00  0.00    +0.010 A 
ATOM     36  C   UNL     1       5.905  -1.038  24.128  0.00  0.00    +0.047 A 
ENDBRANCH   1  26
ENDBRANCH  12   1
ENDBRANCH  16  12
BRANCH  22  24
ATOM     24  C   UNL     1      -3.138   5.038  25.991  0.00  0.00    +0.256 C 
BRANCH  24   7
ATOM      7  O   UNL     1      -4.454   4.543  26.036  0.00  0.00    -0.359 OA
BRANCH   7  35
ATOM     35  C   UNL     1      -5.250   5.040  24.961  0.00  0.00    +0.280 C 
BRANCH  35  40
ATOM     10  O   UNL     1      -3.859   5.882  23.156  0.00  0.00    -0.248 OA
ATOM     40  C   UNL     1      -4.475   4.963  23.675  0.00  0.00    +0.331 C 
BRANCH  40   9
ATOM      9  O   UNL     1      -4.551   3.712  23.157  0.00  0.00    -0.479 OA
ATOM     46  H   UNL     1      -5.437   3.313  23.291  0.00  0.00    +0.295 HD
ENDBRANCH  40   9
ENDBRANCH  35  40
ENDBRANCH   7  35
ENDBRANCH  24   7
ENDBRANCH  22  24
TORSDOF 13
ENDMDL
MODEL 3
REMARK VINA RESULT:       4.6      2.996      8.204
REMARK  Name = 7134313
REMARK  13 active torsions:
REMARK  status: ('A' for Active; 'I' for Inactive)
REMARK    1  A    between atoms: S_1  and  N_12
REMARK    2  A    between atoms: S_1  and  C_26
REMARK    3  A    between atoms: O_7  and  C_24
REMARK    4  A    between atoms: O_7  and  C_35
REMARK    5  A    between atoms: O_9  and  C_40
REMARK    6  A    between atoms: N_12  and  C_16
REMARK    7  A    between atoms: N_13  and  C_23
REMARK    8  A    between atoms: C_17  and  C_21
REMARK    9  A    between atoms: C_22  and  C_24
REMARK   10  A    between atoms: C_23  and  C_25
REMARK   11  A    between atoms: C_23  and  C_28
REMARK   12  A    between atoms: C_25  and  C_27
REMARK   13  A    between atoms: C_35  and  C_40
REMARK                            x       y       z     vdW  Elec       q    Type
REMARK                         _______ _______ _______ _____ _____    ______ ____
ROOT
ATOM      4  O   UNL     1       1.125   4.302  26.081  0.00  0.00    -0.273 OA
ATOM     11  N   UNL     1      -0.771   3.028  25.628  0.00  0.00    -0.288 N 
ATOM     16  C   UNL     1      -3.489   2.910  24.587  0.00  0.00    +0.080 C 
ATOM     17  C   UNL     1      -1.544   1.786  25.799  0.00  0.00    +0.163 C 
ATOM     18  C   UNL     1      -3.057   2.006  25.742  0.00  0.00    +0.052 C 
ATOM     19  C   UNL     1      -2.692   4.210  24.597  0.00  0.00    +0.039 C 
ATOM     20  C   UNL     1      -1.196   3.924  24.546  0.00  0.00    +0.110 C 
ATOM     22  C   UNL     1       0.409   3.325  26.322  0.00  0.00    +0.242 C 
ENDROOT
BRANCH  17  21
ATOM      3  O   UNL     1      -1.433   0.929  23.571  0.00  0.00    -0.274 OA
ATOM     13  N   UNL     1      -0.231  -0.144  25.252  0.00  0.00    -0.302 N 
ATOM     21  C   UNL     1      -1.072   0.831  24.742  0.00  0.00    +0.234 C 
ATOM     42  H   UNL     1       0.029  -0.120  26.234  0.00  0.00    +0.150 HD
BRANCH  13  23
ATOM     23  C   UNL     1       0.342  -1.196  24.445  0.00  0.00    +0.163 C 
BRANCH  23  28
ATOM      8  O   UNL     1      -1.234  -2.634  23.281  0.00  0.00    -0.274 OA
ATOM     15  N   UNL     1      -0.958  -2.911  25.545  0.00  0.00    -0.328 N 
ATOM     28  C   UNL     1      -0.704  -2.296  24.337  0.00  0.00    +0.231 C 
ATOM     44  H   UNL     1      -0.495  -2.637  26.405  0.00  0.00    +0.145 HD
ATOM     45  H   UNL     1      -1.625  -3.672  25.610  0.00  0.00    +0.145 HD
ENDBRANCH  23  28
BRANCH  23  25
ATOM     25  C   UNL     1       0.747  -0.701  23.050  0.00  0.00    +0.069 C 
BRANCH  25  27
ATOM     14  N   UNL     1       3.434   1.801  22.876  0.00  0.00    -0.360 N 
ATOM     27  C   UNL     1       2.015   0.103  23.055  0.00  0.00    -0.020 A 
ATOM     29  C   UNL     1       3.320  -0.375  23.358  0.00  0.00    +0.003 A 
ATOM     31  C   UNL     1       2.117   1.443  22.763  0.00  0.00    +0.087 A 
ATOM     32  C   UNL     1       4.192   0.710  23.239  0.00  0.00    +0.047 A 
ATOM     34  C   UNL     1       3.847  -1.630  23.724  0.00  0.00    +0.010 A 
ATOM     37  C   UNL     1       5.568   0.602  23.468  0.00  0.00    +0.026 A 
ATOM     38  C   UNL     1       5.221  -1.754  23.956  0.00  0.00    +0.001 A 
ATOM     39  C   UNL     1       6.067  -0.652  23.830  0.00  0.00    +0.002 A 
ATOM     43  H   UNL     1       3.797   2.731  22.721  0.00  0.00    +0.165 HD
ENDBRANCH  25  27
ENDBRANCH  23  25
ENDBRANCH  13  23
ENDBRANCH  17  21
BRANCH  16  12
ATOM     12  N   UNL     1      -4.935   3.216  24.720  0.00  0.00    -0.186 NA
ATOM     41  H   UNL     1      -5.297   3.885  24.029  0.00  0.00    +0.148 HD
BRANCH  12   1
ATOM      1  S   UNL     1      -5.975   1.947  25.204  0.00  0.00    +0.065 S 
ATOM      5  O   UNL     1      -7.138   1.919  24.339  0.00  0.00    -0.153 OA
ATOM      6  O   UNL     1      -6.111   1.981  26.647  0.00  0.00    -0.153 OA
BRANCH   1  26
ATOM      2  S   UNL     1      -4.466  -0.346  26.294  0.00  0.00    -0.077 S 
ATOM     26  C   UNL     1      -5.112   0.407  24.897  0.00  0.00    +0.142 A 
ATOM     30  C   UNL     1      -4.852  -0.316  23.754  0.00  0.00    +0.036 A 
ATOM     33  C   UNL     1      -4.112  -1.503  24.028  0.00  0.00    +0.010 A 
ATOM     36  C   UNL     1      -3.835  -1.642  25.370  0.00  0.00    +0.047 A 
ENDBRANCH   1  26
ENDBRANCH  12   1
ENDBRANCH  16  12
BRANCH  22  24
ATOM     24  C   UNL     1       0.802   2.383  27.432  0.00  0.00    +0.256 C 
BRANCH  24   7
ATOM      7  O   UNL     1       2.159   2.631  27.708  0.00  0.00    -0.359 OA
BRANCH   7  35
ATOM     35  C   UNL     1       2.348   3.195  29.005  0.00  0.00    +0.280 C 
BRANCH  35  40
ATOM     10  O   UNL     1       0.606   2.714  30.629  0.00  0.00    -0.248 OA
ATOM     40  C   UNL     1       1.614   2.374  30.029  0.00  0.00    +0.331 C 
BRANCH  40   9
ATOM      9  O   UNL     1       2.232   1.179  30.202  0.00  0.00    -0.479 OA
ATOM     46  H   UNL     1       2.339   0.956  31.152  0.00  0.00    +0.295 HD
ENDBRANCH  40   9
ENDBRANCH  35  40
ENDBRANCH   7  35
ENDBRANCH  24   7
ENDBRANCH  22  24
TORSDOF 13
ENDMDL
MODEL 4
REMARK VINA RESULT:       5.0      2.967      8.249
REMARK  Name = 7134313
REMARK  13 active torsions:
REMARK  status: ('A' for Active; 'I' for Inactive)
REMARK    1  A    between atoms: S_1  and  N_12
REMARK    2  A    between atoms: S_1  and  C_26
REMARK    3  A    between atoms: O_7  and  C_24
REMARK    4  A    between atoms: O_7  and  C_35
REMARK    5  A    between atoms: O_9  and  C_40
REMARK    6  A    between atoms: N_12  and  C_16
REMARK    7  A    between atoms: N_13  and  C_23
REMARK    8  A    between atoms: C_17  and  C_21
REMARK    9  A    between atoms: C_22  and  C_24
REMARK   10  A    between atoms: C_23  and  C_25
REMARK   11  A    between atoms: C_23  and  C_28
REMARK   12  A    between atoms: C_25  and  C_27
REMARK   13  A    between atoms: C_35  and  C_40
REMARK                            x       y       z     vdW  Elec       q    Type
REMARK                         _______ _______ _______ _____ _____    ______ ____
ROOT
ATOM      4  O   UNL     1       0.077   3.618  23.765  0.00  0.00    -0.273 OA
ATOM     11  N   UNL     1      -1.399   2.075  24.691  0.00  0.00    -0.288 N 
ATOM     16  C   UNL     1      -3.837   0.502  24.420  0.00  0.00    +0.080 C 
ATOM     17  C   UNL     1      -1.894   1.324  25.858  0.00  0.00    +0.163 C 
ATOM     18  C   UNL     1      -3.392   1.022  25.788  0.00  0.00    +0.052 C 
ATOM     19  C   UNL     1      -3.359   1.435  23.312  0.00  0.00    +0.039 C 
ATOM     20  C   UNL     1      -1.846   1.610  23.373  0.00  0.00    +0.110 C 
ATOM     22  C   UNL     1      -0.431   3.085  24.755  0.00  0.00    +0.242 C 
ENDROOT
BRANCH  17  21
ATOM      3  O   UNL     1      -0.900  -0.515  27.017  0.00  0.00    -0.274 OA
ATOM     13  N   UNL     1      -0.531  -0.293  24.729  0.00  0.00    -0.302 N 
ATOM     21  C   UNL     1      -1.069   0.073  25.952  0.00  0.00    +0.234 C 
ATOM     42  H   UNL     1      -0.755   0.247  23.899  0.00  0.00    +0.150 HD
BRANCH  13  23
ATOM     23  C   UNL     1       0.320  -1.448  24.554  0.00  0.00    +0.163 C 
BRANCH  23  28
ATOM      8  O   UNL     1      -0.308  -3.636  25.404  0.00  0.00    -0.274 OA
ATOM     15  N   UNL     1      -1.719  -2.584  23.929  0.00  0.00    -0.328 N 
ATOM     28  C   UNL     1      -0.566  -2.678  24.679  0.00  0.00    +0.231 C 
ATOM     44  H   UNL     1      -1.931  -1.776  23.352  0.00  0.00    +0.145 HD
ATOM     45  H   UNL     1      -2.405  -3.332  23.933  0.00  0.00    +0.145 HD
ENDBRANCH  23  28
BRANCH  23  25
ATOM     25  C   UNL     1       1.038  -1.438  23.199  0.00  0.00    +0.069 C 
BRANCH  25  27
ATOM     14  N   UNL     1       3.214   1.497  22.794  0.00  0.00    -0.360 N 
ATOM     27  C   UNL     1       2.136  -0.416  23.121  0.00  0.00    -0.020 A 
ATOM     29  C   UNL     1       3.509  -0.622  23.428  0.00  0.00    +0.003 A 
ATOM     31  C   UNL     1       1.985   0.896  22.734  0.00  0.00    +0.087 A 
ATOM     32  C   UNL     1       4.164   0.593  23.215  0.00  0.00    +0.047 A 
ATOM     34  C   UNL     1       4.263  -1.729  23.868  0.00  0.00    +0.010 A 
ATOM     37  C   UNL     1       5.538   0.757  23.421  0.00  0.00    +0.026 A 
ATOM     38  C   UNL     1       5.638  -1.581  24.078  0.00  0.00    +0.001 A 
ATOM     39  C   UNL     1       6.264  -0.355  23.858  0.00  0.00    +0.002 A 
ATOM     43  H   UNL     1       3.397   2.464  22.567  0.00  0.00    +0.165 HD
ENDBRANCH  25  27
ENDBRANCH  23  25
ENDBRANCH  13  23
ENDBRANCH  17  21
BRANCH  16  12
ATOM     12  N   UNL     1      -5.317   0.416  24.388  0.00  0.00    -0.186 NA
ATOM     41  H   UNL     1      -5.693  -0.538  24.461  0.00  0.00    +0.148 HD
BRANCH  12   1
ATOM      1  S   UNL     1      -6.204   1.669  25.143  0.00  0.00    +0.065 S 
ATOM      5  O   UNL     1      -6.557   1.267  26.490  0.00  0.00    -0.153 OA
ATOM      6  O   UNL     1      -7.207   2.155  24.216  0.00  0.00    -0.153 OA
BRANCH   1  26
ATOM      2  S   UNL     1      -4.621   3.811  23.868  0.00  0.00    -0.077 S 
ATOM     26  C   UNL     1      -5.094   3.063  25.334  0.00  0.00    +0.142 A 
ATOM     30  C   UNL     1      -4.529   3.674  26.432  0.00  0.00    +0.036 A 
ATOM     33  C   UNL     1      -3.696   4.770  26.064  0.00  0.00    +0.010 A 
ATOM     36  C   UNL     1      -3.656   4.956  24.700  0.00  0.00    +0.047 A 
ENDBRANCH   1  26
ENDBRANCH  12   1
ENDBRANCH  16  12
BRANCH  22  24
ATOM     24  C   UNL     1      -0.009   3.538  26.131  0.00  0.00    +0.256 C 
BRANCH  24   7
ATOM      7  O   UNL     1       0.879   2.563  26.619  0.00  0.00    -0.359 OA
BRANCH   7  35
ATOM     35  C   UNL     1       0.687   2.312  28.011  0.00  0.00    +0.280 C 
BRANCH  35  40
ATOM     10  O   UNL     1       2.872   3.303  28.392  0.00  0.00    -0.248 OA
ATOM     40  C   UNL     1       1.967   2.567  28.756  0.00  0.00    +0.331 C 
BRANCH  40   9
ATOM      9  O   UNL     1       1.986   1.858  29.912  0.00  0.00    -0.479 OA
ATOM     46  H   UNL     1       1.960   2.443  30.701  0.00  0.00    +0.295 HD
ENDBRANCH  40   9
ENDBRANCH  35  40
ENDBRANCH   7  35
ENDBRANCH  24   7
ENDBRANCH  22  24
TORSDOF 13
ENDMDL
MODEL 5
REMARK VINA RESULT:       6.1      2.573      6.500
REMARK  Name = 7134313
REMARK  13 active torsions:
REMARK  status: ('A' for Active; 'I' for Inactive)
REMARK    1  A    between atoms: S_1  and  N_12
REMARK    2  A    between atoms: S_1  and  C_26
REMARK    3  A    between atoms: O_7  and  C_24
REMARK    4  A    between atoms: O_7  and  C_35
REMARK    5  A    between atoms: O_9  and  C_40
REMARK    6  A    between atoms: N_12  and  C_16
REMARK    7  A    between atoms: N_13  and  C_23
REMARK    8  A    between atoms: C_17  and  C_21
REMARK    9  A    between atoms: C_22  and  C_24
REMARK   10  A    between atoms: C_23  and  C_25
REMARK   11  A    between atoms: C_23  and  C_28
REMARK   12  A    between atoms: C_25  and  C_27
REMARK   13  A    between atoms: C_35  and  C_40
REMARK                            x       y       z     vdW  Elec       q    Type
REMARK                         _______ _______ _______ _____ _____    ______ ____
ROOT
ATOM      4  O   UNL     1       3.146  -1.493  23.609  0.00  0.00    -0.273 OA
ATOM     11  N   UNL     1       0.989  -0.704  23.987  0.00  0.00    -0.288 N 
ATOM     16  C   UNL     1      -1.642  -1.141  25.159  0.00  0.00    +0.080 C 
ATOM     17  C   UNL     1      -0.091   0.253  23.688  0.00  0.00    +0.163 C 
ATOM     18  C   UNL     1      -1.489  -0.343  23.865  0.00  0.00    +0.052 C 
ATOM     19  C   UNL     1      -0.528  -2.175  25.287  0.00  0.00    +0.039 C 
ATOM     20  C   UNL     1       0.838  -1.504  25.208  0.00  0.00    +0.110 C 
ATOM     22  C   UNL     1       2.192  -0.785  23.275  0.00  0.00    +0.242 C 
ENDROOT
BRANCH  17  21
ATOM      3  O   UNL     1       0.953   2.316  24.292  0.00  0.00    -0.274 OA
ATOM     13  N   UNL     1      -0.669   1.419  25.701  0.00  0.00    -0.302 N 
ATOM     21  C   UNL     1       0.130   1.447  24.570  0.00  0.00    +0.234 C 
ATOM     42  H   UNL     1      -1.339   0.666  25.824  0.00  0.00    +0.150 HD
BRANCH  13  23
ATOM     23  C   UNL     1      -0.631   2.441  26.721  0.00  0.00    +0.163 C 
BRANCH  23  28
ATOM      8  O   UNL     1       1.785   2.678  26.844  0.00  0.00    -0.274 OA
ATOM     15  N   UNL     1       0.658   1.921  28.698  0.00  0.00    -0.328 N 
ATOM     28  C   UNL     1       0.732   2.354  27.390  0.00  0.00    +0.231 C 
ATOM     44  H   UNL     1      -0.220   1.679  29.144  0.00  0.00    +0.145 HD
ATOM     45  H   UNL     1       1.495   1.831  29.264  0.00  0.00    +0.145 HD
ENDBRANCH  23  28
BRANCH  23  25
ATOM     25  C   UNL     1      -0.857   3.845  26.145  0.00  0.00    +0.069 C 
BRANCH  25  27
ATOM     14  N   UNL     1      -4.331   4.581  25.194  0.00  0.00    -0.360 N 
ATOM     27  C   UNL     1      -2.209   4.011  25.512  0.00  0.00    -0.020 A 
ATOM     29  C   UNL     1      -2.604   3.554  24.224  0.00  0.00    +0.003 A 
ATOM     31  C   UNL     1      -3.292   4.639  26.084  0.00  0.00    +0.087 A 
ATOM     32  C   UNL     1      -3.940   3.925  24.048  0.00  0.00    +0.047 A 
ATOM     34  C   UNL     1      -1.952   2.858  23.186  0.00  0.00    +0.010 A 
ATOM     37  C   UNL     1      -4.658   3.633  22.884  0.00  0.00    +0.026 A 
ATOM     38  C   UNL     1      -2.657   2.560  22.015  0.00  0.00    +0.001 A 
ATOM     39  C   UNL     1      -3.990   2.943  21.868  0.00  0.00    +0.002 A 
ATOM     43  H   UNL     1      -5.251   4.968  25.352  0.00  0.00    +0.165 HD
ENDBRANCH  25  27
ENDBRANCH  23  25
ENDBRANCH  13  23
ENDBRANCH  17  21
BRANCH  16  12
ATOM     12  N   UNL     1      -2.956  -1.830  25.156  0.00  0.00    -0.186 NA
ATOM     41  H   UNL     1      -3.313  -2.078  26.087  0.00  0.00    +0.148 HD
BRANCH  12   1
ATOM      1  S   UNL     1      -4.101  -1.353  23.979  0.00  0.00    +0.065 S 
ATOM      5  O   UNL     1      -5.065  -2.418  23.782  0.00  0.00    -0.153 OA
ATOM      6  O   UNL     1      -3.399  -0.757  22.859  0.00  0.00    -0.153 OA
BRANCH   1  26
ATOM      2  S   UNL     1      -4.351   0.710  26.078  0.00  0.00    -0.077 S 
ATOM     26  C   UNL     1      -5.033   0.015  24.668  0.00  0.00    +0.142 A 
ATOM     30  C   UNL     1      -6.204   0.638  24.299  0.00  0.00    +0.036 A 
ATOM     33  C   UNL     1      -6.547   1.701  25.185  0.00  0.00    +0.010 A 
ATOM     36  C   UNL     1      -5.625   1.849  26.197  0.00  0.00    +0.047 A 
ENDBRANCH   1  26
ENDBRANCH  12   1
ENDBRANCH  16  12
BRANCH  22  24
ATOM     24  C   UNL     1       2.298   0.047  22.021  0.00  0.00    +0.256 C 
BRANCH  24   7
ATOM      7  O   UNL     1       3.666   0.310  21.828  0.00  0.00    -0.359 OA
BRANCH   7  35
ATOM     35  C   UNL     1       4.206   1.128  22.865  0.00  0.00    +0.280 C 
BRANCH  35  40
ATOM     10  O   UNL     1       6.218  -0.225  23.020  0.00  0.00    -0.248 OA
ATOM     40  C   UNL     1       5.318   0.396  23.565  0.00  0.00    +0.331 C 
BRANCH  40   9
ATOM      9  O   UNL     1       5.187   0.520  24.909  0.00  0.00    -0.479 OA
ATOM     46  H   UNL     1       5.868   1.116  25.290  0.00  0.00    +0.295 HD
ENDBRANCH  40   9
ENDBRANCH  35  40
ENDBRANCH   7  35
ENDBRANCH  24   7
ENDBRANCH  22  24
TORSDOF 13
ENDMDL
MODEL 6
REMARK VINA RESULT:       7.2      3.039      6.942
REMARK  Name = 7134313
REMARK  13 active torsions:
REMARK  status: ('A' for Active; 'I' for Inactive)
REMARK    1  A    between atoms: S_1  and  N_12
REMARK    2  A    between atoms: S_1  and  C_26
REMARK    3  A    between atoms: O_7  and  C_24
REMARK    4  A    between atoms: O_7  and  C_35
REMARK    5  A    between atoms: O_9  and  C_40
REMARK    6  A    between atoms: N_12  and  C_16
REMARK    7  A    between atoms: N_13  and  C_23
REMARK    8  A    between atoms: C_17  and  C_21
REMARK    9  A    between atoms: C_22  and  C_24
REMARK   10  A    between atoms: C_23  and  C_25
REMARK   11  A    between atoms: C_23  and  C_28
REMARK   12  A    between atoms: C_25  and  C_27
REMARK   13  A    between atoms: C_35  and  C_40
REMARK                            x       y       z     vdW  Elec       q    Type
REMARK                         _______ _______ _______ _____ _____    ______ ____
ROOT
ATOM      4  O   UNL     1       2.048  -0.733  22.406  0.00  0.00    -0.273 OA
ATOM     11  N   UNL     1       0.749   1.033  23.191  0.00  0.00    -0.288 N 
ATOM     16  C   UNL     1      -1.880   2.267  23.421  0.00  0.00    +0.080 C 
ATOM     17  C   UNL     1       0.648   2.388  23.759  0.00  0.00    +0.163 C 
ATOM     18  C   UNL     1      -0.620   3.128  23.326  0.00  0.00    +0.052 C 
ATOM     19  C   UNL     1      -1.679   0.942  22.692  0.00  0.00    +0.039 C 
ATOM     20  C   UNL     1      -0.463   0.207  23.241  0.00  0.00    +0.110 C 
ATOM     22  C   UNL     1       1.944   0.447  22.755  0.00  0.00    +0.242 C 
ENDROOT
BRANCH  17  21
ATOM      3  O   UNL     1       1.386   3.023  25.941  0.00  0.00    -0.274 OA
ATOM     13  N   UNL     1       0.034   1.142  25.712  0.00  0.00    -0.302 N 
ATOM     21  C   UNL     1       0.736   2.243  25.250  0.00  0.00    +0.234 C 
ATOM     42  H   UNL     1      -0.496   0.573  25.059  0.00  0.00    +0.150 HD
BRANCH  13  23
ATOM     23  C   UNL     1      -0.021   0.768  27.106  0.00  0.00    +0.163 C 
BRANCH  23  28
ATOM      8  O   UNL     1      -1.090   2.858  27.735  0.00  0.00    -0.274 OA
ATOM     15  N   UNL     1       0.782   2.190  28.888  0.00  0.00    -0.328 N 
ATOM     28  C   UNL     1      -0.179   2.051  27.908  0.00  0.00    +0.231 C 
ATOM     44  H   UNL     1       1.515   1.504  29.035  0.00  0.00    +0.145 HD
ATOM     45  H   UNL     1       0.783   2.995  29.505  0.00  0.00    +0.145 HD
ENDBRANCH  23  28
BRANCH  23  25
ATOM     25  C   UNL     1      -1.177  -0.197  27.403  0.00  0.00    +0.069 C 
BRANCH  25  27
ATOM     14  N   UNL     1      -1.084  -2.884  24.897  0.00  0.00    -0.360 N 
ATOM     27  C   UNL     1      -1.402  -1.202  26.311  0.00  0.00    -0.020 A 
ATOM     29  C   UNL     1      -2.562  -1.323  25.497  0.00  0.00    +0.003 A 
ATOM     31  C   UNL     1      -0.511  -2.174  25.918  0.00  0.00    +0.087 A 
ATOM     32  C   UNL     1      -2.337  -2.387  24.618  0.00  0.00    +0.047 A 
ATOM     34  C   UNL     1      -3.786  -0.630  25.421  0.00  0.00    +0.010 A 
ATOM     37  C   UNL     1      -3.278  -2.791  23.666  0.00  0.00    +0.026 A 
ATOM     38  C   UNL     1      -4.738  -1.024  24.474  0.00  0.00    +0.001 A 
ATOM     39  C   UNL     1      -4.486  -2.089  23.611  0.00  0.00    +0.002 A 
ATOM     43  H   UNL     1      -0.652  -3.663  24.419  0.00  0.00    +0.165 HD
ENDBRANCH  25  27
ENDBRANCH  23  25
ENDBRANCH  13  23
ENDBRANCH  17  21
BRANCH  16  12
ATOM     12  N   UNL     1      -3.018   2.998  22.811  0.00  0.00    -0.186 NA
ATOM     41  H   UNL     1      -3.546   2.463  22.110  0.00  0.00    +0.148 HD
BRANCH  12   1
ATOM      1  S   UNL     1      -3.903   4.069  23.809  0.00  0.00    +0.065 S 
ATOM      5  O   UNL     1      -4.734   4.923  22.985  0.00  0.00    -0.153 OA
ATOM      6  O   UNL     1      -3.008   4.624  24.806  0.00  0.00    -0.153 OA
BRANCH   1  26
ATOM      2  S   UNL     1      -4.973   3.339  26.463  0.00  0.00    -0.077 S 
ATOM     26  C   UNL     1      -5.043   3.076  24.772  0.00  0.00    +0.142 A 
ATOM     30  C   UNL     1      -5.982   2.127  24.435  0.00  0.00    +0.036 A 
ATOM     33  C   UNL     1      -6.654   1.608  25.580  0.00  0.00    +0.010 A 
ATOM     36  C   UNL     1      -6.202   2.181  26.749  0.00  0.00    +0.047 A 
ENDBRANCH   1  26
ENDBRANCH  12   1
ENDBRANCH  16  12
BRANCH  22  24
ATOM     24  C   UNL     1       3.161   1.336  22.710  0.00  0.00    +0.256 C 
BRANCH  24   7
ATOM      7  O   UNL     1       4.252   0.508  22.390  0.00  0.00    -0.359 OA
BRANCH   7  35
ATOM     35  C   UNL     1       5.199   0.433  23.454  0.00  0.00    +0.280 C 
BRANCH  35  40
ATOM     10  O   UNL     1       4.333  -1.805  23.838  0.00  0.00    -0.248 OA
ATOM     40  C   UNL     1       5.154  -0.934  24.080  0.00  0.00    +0.331 C 
BRANCH  40   9
ATOM      9  O   UNL     1       6.170  -1.076  24.968  0.00  0.00    -0.479 OA
ATOM     46  H   UNL     1       6.743  -1.842  24.750  0.00  0.00    +0.295 HD
ENDBRANCH  40   9
ENDBRANCH  35  40
ENDBRANCH   7  35
ENDBRANCH  24   7
ENDBRANCH  22  24
TORSDOF 13
ENDMDL
MODEL 7
REMARK VINA RESULT:       7.5      1.656      2.880
REMARK  Name = 7134313
REMARK  13 active torsions:
REMARK  status: ('A' for Active; 'I' for Inactive)
REMARK    1  A    between atoms: S_1  and  N_12
REMARK    2  A    between atoms: S_1  and  C_26
REMARK    3  A    between atoms: O_7  and  C_24
REMARK    4  A    between atoms: O_7  and  C_35
REMARK    5  A    between atoms: O_9  and  C_40
REMARK    6  A    between atoms: N_12  and  C_16
REMARK    7  A    between atoms: N_13  and  C_23
REMARK    8  A    between atoms: C_17  and  C_21
REMARK    9  A    between atoms: C_22  and  C_24
REMARK   10  A    between atoms: C_23  and  C_25
REMARK   11  A    between atoms: C_23  and  C_28
REMARK   12  A    between atoms: C_25  and  C_27
REMARK   13  A    between atoms: C_35  and  C_40
REMARK                            x       y       z     vdW  Elec       q    Type
REMARK                         _______ _______ _______ _____ _____    ______ ____
ROOT
ATOM      4  O   UNL     1      -4.256  -0.640  22.976  0.00  0.00    -0.273 OA
ATOM     11  N   UNL     1      -2.154  -0.377  23.943  0.00  0.00    -0.288 N 
ATOM     16  C   UNL     1       0.714  -0.008  23.582  0.00  0.00    +0.080 C 
ATOM     17  C   UNL     1      -1.274  -0.447  25.123  0.00  0.00    +0.163 C 
ATOM     18  C   UNL     1       0.173  -0.799  24.773  0.00  0.00    +0.052 C 
ATOM     19  C   UNL     1      -0.235  -0.117  22.392  0.00  0.00    +0.039 C 
ATOM     20  C   UNL     1      -1.634   0.348  22.777  0.00  0.00    +0.110 C 
ATOM     22  C   UNL     1      -3.482  -0.820  23.921  0.00  0.00    +0.242 C 
ENDROOT
BRANCH  17  21
ATOM      3  O   UNL     1      -2.445   1.485  25.903  0.00  0.00    -0.274 OA
ATOM     13  N   UNL     1      -0.161   1.306  26.320  0.00  0.00    -0.302 N 
ATOM     21  C   UNL     1      -1.380   0.876  25.823  0.00  0.00    +0.234 C 
ATOM     42  H   UNL     1       0.658   0.713  26.225  0.00  0.00    +0.150 HD
BRANCH  13  23
ATOM     23  C   UNL     1       0.010   2.560  27.016  0.00  0.00    +0.163 C 
BRANCH  23  28
ATOM      8  O   UNL     1       2.367   2.768  27.574  0.00  0.00    -0.274 OA
ATOM     15  N   UNL     1       0.939   1.889  29.144  0.00  0.00    -0.328 N 
ATOM     28  C   UNL     1       1.237   2.414  27.904  0.00  0.00    +0.231 C 
ATOM     44  H   UNL     1      -0.003   1.623  29.413  0.00  0.00    +0.145 HD
ATOM     45  H   UNL     1       1.665   1.753  29.840  0.00  0.00    +0.145 HD
ENDBRANCH  23  28
BRANCH  23  25
ATOM     25  C   UNL     1       0.183   3.740  26.051  0.00  0.00    +0.069 C 
BRANCH  25  27
ATOM     14  N   UNL     1      -1.902   3.752  23.024  0.00  0.00    -0.360 N 
ATOM     27  C   UNL     1      -0.884   3.801  24.997  0.00  0.00    -0.020 A 
ATOM     29  C   UNL     1      -2.267   4.056  25.205  0.00  0.00    +0.003 A 
ATOM     31  C   UNL     1      -0.689   3.618  23.647  0.00  0.00    +0.087 A 
ATOM     32  C   UNL     1      -2.884   4.020  23.951  0.00  0.00    +0.047 A 
ATOM     34  C   UNL     1      -3.059   4.316  26.342  0.00  0.00    +0.010 A 
ATOM     37  C   UNL     1      -4.256   4.231  23.779  0.00  0.00    +0.026 A 
ATOM     38  C   UNL     1      -4.433   4.528  26.185  0.00  0.00    +0.001 A 
ATOM     39  C   UNL     1      -5.020   4.485  24.921  0.00  0.00    +0.002 A 
ATOM     43  H   UNL     1      -2.055   3.663  22.030  0.00  0.00    +0.165 HD
ENDBRANCH  25  27
ENDBRANCH  23  25
ENDBRANCH  13  23
ENDBRANCH  17  21
BRANCH  16  12
ATOM     12  N   UNL     1       2.044  -0.543  23.202  0.00  0.00    -0.186 NA
ATOM     41  H   UNL     1       2.025  -1.479  22.778  0.00  0.00    +0.148 HD
BRANCH  12   1
ATOM      1  S   UNL     1       3.208   0.562  22.611  0.00  0.00    +0.065 S 
ATOM      5  O   UNL     1       2.938   1.881  23.148  0.00  0.00    -0.153 OA
ATOM      6  O   UNL     1       3.373   0.349  21.187  0.00  0.00    -0.153 OA
BRANCH   1  26
ATOM      2  S   UNL     1       4.849  -1.510  23.929  0.00  0.00    -0.077 S 
ATOM     26  C   UNL     1       4.793   0.081  23.297  0.00  0.00    +0.142 A 
ATOM     30  C   UNL     1       6.000   0.731  23.426  0.00  0.00    +0.036 A 
ATOM     33  C   UNL     1       6.984  -0.086  24.053  0.00  0.00    +0.010 A 
ATOM     36  C   UNL     1       6.492  -1.331  24.379  0.00  0.00    +0.047 A 
ENDBRANCH   1  26
ENDBRANCH  12   1
ENDBRANCH  16  12
BRANCH  22  24
ATOM     24  C   UNL     1      -3.969  -1.570  25.136  0.00  0.00    +0.256 C 
BRANCH  24   7
ATOM      7  O   UNL     1      -4.733  -0.660  25.890  0.00  0.00    -0.359 OA
BRANCH   7  35
ATOM     35  C   UNL     1      -5.134   0.471  25.119  0.00  0.00    +0.280 C 
BRANCH  35  40
ATOM     10  O   UNL     1      -6.422   1.156  27.062  0.00  0.00    -0.248 OA
ATOM     40  C   UNL     1      -6.172   1.258  25.871  0.00  0.00    +0.331 C 
BRANCH  40   9
ATOM      9  O   UNL     1      -6.807   2.115  25.033  0.00  0.00    -0.479 OA
ATOM     46  H   UNL     1      -7.339   2.779  25.523  0.00  0.00    +0.295 HD
ENDBRANCH  40   9
ENDBRANCH  35  40
ENDBRANCH   7  35
ENDBRANCH  24   7
ENDBRANCH  22  24
TORSDOF 13
ENDMDL
MODEL 8
REMARK VINA RESULT:       7.6      2.351      5.669
REMARK  Name = 7134313
REMARK  13 active torsions:
REMARK  status: ('A' for Active; 'I' for Inactive)
REMARK    1  A    between atoms: S_1  and  N_12
REMARK    2  A    between atoms: S_1  and  C_26
REMARK    3  A    between atoms: O_7  and  C_24
REMARK    4  A    between atoms: O_7  and  C_35
REMARK    5  A    between atoms: O_9  and  C_40
REMARK    6  A    between atoms: N_12  and  C_16
REMARK    7  A    between atoms: N_13  and  C_23
REMARK    8  A    between atoms: C_17  and  C_21
REMARK    9  A    between atoms: C_22  and  C_24
REMARK   10  A    between atoms: C_23  and  C_25
REMARK   11  A    between atoms: C_23  and  C_28
REMARK   12  A    between atoms: C_25  and  C_27
REMARK   13  A    between atoms: C_35  and  C_40
REMARK                            x       y       z     vdW  Elec       q    Type
REMARK                         _______ _______ _______ _____ _____    ______ ____
ROOT
ATOM      4  O   UNL     1       2.606  -1.403  23.527  0.00  0.00    -0.273 OA
ATOM     11  N   UNL     1       0.706  -0.064  23.397  0.00  0.00    -0.288 N 
ATOM     16  C   UNL     1      -2.197   0.142  23.529  0.00  0.00    +0.080 C 
ATOM     17  C   UNL     1       0.067   1.211  23.029  0.00  0.00    +0.163 C 
ATOM     18  C   UNL     1      -1.393   1.050  22.598  0.00  0.00    +0.052 C 
ATOM     19  C   UNL     1      -1.479  -1.189  23.731  0.00  0.00    +0.039 C 
ATOM     20  C   UNL     1      -0.068  -0.963  24.260  0.00  0.00    +0.110 C 
ATOM     22  C   UNL     1       2.035  -0.394  23.103  0.00  0.00    +0.242 C 
ENDROOT
BRANCH  17  21
ATOM      3  O   UNL     1       1.094   1.970  25.049  0.00  0.00    -0.274 OA
ATOM     13  N   UNL     1      -0.767   3.107  24.235  0.00  0.00    -0.302 N 
ATOM     21  C   UNL     1       0.209   2.125  24.211  0.00  0.00    +0.234 C 
ATOM     42  H   UNL     1      -1.440   3.167  23.477  0.00  0.00    +0.150 HD
BRANCH  13  23
ATOM     23  C   UNL     1      -0.865   4.099  25.281  0.00  0.00    +0.163 C 
BRANCH  23  28
ATOM      8  O   UNL     1      -1.304   6.473  25.002  0.00  0.00    -0.274 OA
ATOM     15  N   UNL     1       0.179   5.454  23.575  0.00  0.00    -0.328 N 
ATOM     28  C   UNL     1      -0.720   5.462  24.620  0.00  0.00    +0.231 C 
ATOM     44  H   UNL     1       0.673   4.617  23.285  0.00  0.00    +0.145 HD
ATOM     45  H   UNL     1       0.381   6.303  23.056  0.00  0.00    +0.145 HD
ENDBRANCH  23  28
BRANCH  23  25
ATOM     25  C   UNL     1      -2.194   4.010  26.042  0.00  0.00    +0.069 C 
BRANCH  25  27
ATOM     14  N   UNL     1      -4.578   3.016  23.427  0.00  0.00    -0.360 N 
ATOM     27  C   UNL     1      -3.327   3.510  25.194  0.00  0.00    -0.020 A 
ATOM     29  C   UNL     1      -4.522   2.891  25.654  0.00  0.00    +0.003 A 
ATOM     31  C   UNL     1      -3.391   3.573  23.820  0.00  0.00    +0.087 A 
ATOM     32  C   UNL     1      -5.290   2.590  24.526  0.00  0.00    +0.047 A 
ATOM     34  C   UNL     1      -5.028   2.555  26.926  0.00  0.00    +0.010 A 
ATOM     37  C   UNL     1      -6.541   1.969  24.607  0.00  0.00    +0.026 A 
ATOM     38  C   UNL     1      -6.278   1.933  27.024  0.00  0.00    +0.001 A 
ATOM     39  C   UNL     1      -7.021   1.645  25.880  0.00  0.00    +0.002 A 
ATOM     43  H   UNL     1      -4.886   2.926  22.469  0.00  0.00    +0.165 HD
ENDBRANCH  25  27
ENDBRANCH  23  25
ENDBRANCH  13  23
ENDBRANCH  17  21
BRANCH  16  12
ATOM     12  N   UNL     1      -3.535  -0.104  22.936  0.00  0.00    -0.186 NA
ATOM     41  H   UNL     1      -3.564  -0.059  21.910  0.00  0.00    +0.148 HD
BRANCH  12   1
ATOM      1  S   UNL     1      -4.544  -1.254  23.700  0.00  0.00    +0.065 S 
ATOM      5  O   UNL     1      -4.527  -2.491  22.943  0.00  0.00    -0.153 OA
ATOM      6  O   UNL     1      -5.792  -0.612  24.064  0.00  0.00    -0.153 OA
BRANCH   1  26
ATOM      2  S   UNL     1      -3.181  -3.243  25.406  0.00  0.00    -0.077 S 
ATOM     26  C   UNL     1      -3.796  -1.649  25.280  0.00  0.00    +0.142 A 
ATOM     30  C   UNL     1      -3.607  -0.930  26.439  0.00  0.00    +0.036 A 
ATOM     33  C   UNL     1      -2.949  -1.697  27.444  0.00  0.00    +0.010 A 
ATOM     36  C   UNL     1      -2.660  -2.973  27.015  0.00  0.00    +0.047 A 
ENDBRANCH   1  26
ENDBRANCH  12   1
ENDBRANCH  16  12
BRANCH  22  24
ATOM     24  C   UNL     1       2.789   0.553  22.204  0.00  0.00    +0.256 C 
BRANCH  24   7
ATOM      7  O   UNL     1       3.746   1.195  23.009  0.00  0.00    -0.359 OA
BRANCH   7  35
ATOM     35  C   UNL     1       5.009   0.531  22.975  0.00  0.00    +0.280 C 
BRANCH  35  40
ATOM     10  O   UNL     1       5.637   0.675  25.318  0.00  0.00    -0.248 OA
ATOM     40  C   UNL     1       5.342   0.002  24.343  0.00  0.00    +0.331 C 
BRANCH  40   9
ATOM      9  O   UNL     1       5.270  -1.353  24.350  0.00  0.00    -0.479 OA
ATOM     46  H   UNL     1       5.584  -1.731  25.200  0.00  0.00    +0.295 HD
ENDBRANCH  40   9
ENDBRANCH  35  40
ENDBRANCH   7  35
ENDBRANCH  24   7
ENDBRANCH  22  24
TORSDOF 13
ENDMDL
