MODEL 1
REMARK VINA RESULT:      -5.9      0.000      0.000
REMARK  Name = 28962858
REMARK  11 active torsions:
REMARK  status: ('A' for Active; 'I' for Inactive)
REMARK    1  A    between atoms: O_1  and  C_10
REMARK    2  A    between atoms: O_4  and  C_26
REMARK    3  A    between atoms: O_4  and  C_27
REMARK    4  A    between atoms: N_5  and  C_14
REMARK    5  A    between atoms: N_6  and  C_22
REMARK    6  A    between atoms: C_7  and  C_17
REMARK    7  A    between atoms: C_9  and  C_19
REMARK    8  A    between atoms: C_12  and  C_18
REMARK    9  A    between atoms: C_18  and  C_20
REMARK   10  A    between atoms: C_18  and  C_21
REMARK   11  A    between atoms: C_25  and  C_26
REMARK                            x       y       z     vdW  Elec       q    Type
REMARK                         _______ _______ _______ _____ _____    ______ ____
ROOT
ATOM      7  C   UNL     1      -2.124  -0.908  25.131  0.00  0.00    -0.027 C 
ATOM      8  C   UNL     1      -2.133   0.339  24.185  0.00  0.00    +0.028 C 
ATOM      9  C   UNL     1      -0.679   0.899  23.985  0.00  0.00    +0.012 C 
ATOM     10  C   UNL     1      -3.196   1.382  24.636  0.00  0.00    +0.122 C 
ATOM     11  C   UNL     1      -3.551  -1.502  25.216  0.00  0.00    +0.007 C 
ATOM     12  C   UNL     1      -4.599   0.759  24.820  0.00  0.00    +0.029 C 
ATOM     13  C   UNL     1      -1.198  -1.991  24.531  0.00  0.00    +0.009 C 
ATOM     14  C   UNL     1       0.260  -0.219  23.453  0.00  0.00    +0.076 C 
ATOM     15  C   UNL     1      -4.587  -0.494  25.695  0.00  0.00    +0.007 C 
ATOM     16  C   UNL     1       0.221  -1.497  24.290  0.00  0.00    +0.023 C 
ATOM     17  C   UNL     1      -1.643  -0.563  26.564  0.00  0.00    +0.011 C 
ATOM     19  C   UNL     1      -0.610   2.111  23.041  0.00  0.00    +0.010 C 
ENDROOT
BRANCH  14   5
ATOM      3  O   UNL     1       1.998  -0.343  21.143  0.00  0.00    -0.273 OA
ATOM      5  N   UNL     1       1.634   0.231  23.367  0.00  0.00    -0.310 N 
ATOM     25  C   UNL     1       2.386   0.127  22.210  0.00  0.00    +0.239 C 
ATOM     28  H   UNL     1       2.076   0.579  24.213  0.00  0.00    +0.149 HD
BRANCH  25  26
ATOM     26  C   UNL     1       3.784   0.675  22.402  0.00  0.00    +0.255 C 
BRANCH  26   4
ATOM      4  O   UNL     1       4.595  -0.255  23.088  0.00  0.00    -0.374 OA
ATOM     27  C   UNL     1       5.483   0.385  24.000  0.00  0.00    +0.194 C 
ENDBRANCH  26   4
ENDBRANCH  25  26
ENDBRANCH  14   5
BRANCH  10   1
ATOM      1  O   UNL     1      -3.325   2.393  23.637  0.00  0.00    -0.391 OA
ATOM     29  H   UNL     1      -3.901   2.051  22.932  0.00  0.00    +0.210 HD
ENDBRANCH  10   1
BRANCH  12  18
ATOM     18  C   UNL     1      -5.601   1.771  25.389  0.00  0.00    +0.077 C 
ATOM     21  C   UNL     1      -6.823   1.867  24.482  0.00  0.00    +0.017 C 
BRANCH  18  20
ATOM      2  O   UNL     1      -5.477   4.186  25.255  0.00  0.00    -0.276 OA
ATOM      6  N   UNL     1      -3.650   3.027  26.090  0.00  0.00    -0.312 N 
ATOM     20  C   UNL     1      -4.928   3.129  25.560  0.00  0.00    +0.216 C 
ATOM     30  H   UNL     1      -3.266   2.111  26.313  0.00  0.00    +0.149 HD
BRANCH   6  22
ATOM     22  C   UNL     1      -2.814   4.177  26.342  0.00  0.00    +0.073 C 
ATOM     23  C   UNL     1      -2.265   5.000  25.213  0.00  0.00    +0.024 C 
ATOM     24  C   UNL     1      -1.344   4.150  26.039  0.00  0.00    +0.024 C 
ENDBRANCH   6  22
ENDBRANCH  18  20
ENDBRANCH  12  18
TORSDOF 7
ENDMDL
