MODEL 1
REMARK VINA RESULT:      -1.2      0.000      0.000
REMARK  Name = 44716332
REMARK  9 active torsions:
REMARK  status: ('A' for Active; 'I' for Inactive)
REMARK    1  A    between atoms: O_2  and  C_29
REMARK    2  A    between atoms: O_2  and  C_30
REMARK    3  A    between atoms: N_4  and  C_19
REMARK    4  A    between atoms: N_5  and  C_14
REMARK    5  A    between atoms: N_5  and  C_18
REMARK    6  A    between atoms: C_8  and  C_15
REMARK    7  A    between atoms: C_9  and  C_14
REMARK    8  A    between atoms: C_17  and  C_20
REMARK    9  A    between atoms: C_18  and  C_21
REMARK                            x       y       z     vdW  Elec       q    Type
REMARK                         _______ _______ _______ _____ _____    ______ ____
ROOT
ATOM      3  N   UNL     1      -3.781  -1.090  25.832  0.00  0.00    -0.298 NA
ATOM      7  C   UNL     1      -2.565  -2.149  23.786  0.00  0.00    +0.002 C 
ATOM      8  C   UNL     1      -1.532  -1.615  24.817  0.00  0.00    +0.055 C 
ATOM      9  C   UNL     1      -4.340  -0.541  24.568  0.00  0.00    +0.071 C 
ATOM     10  C   UNL     1      -3.498  -0.997  23.357  0.00  0.00    +0.024 C 
ATOM     11  C   UNL     1      -3.436  -3.187  24.527  0.00  0.00    +0.019 C 
ATOM     12  C   UNL     1      -2.322  -0.824  25.899  0.00  0.00    +0.094 C 
ATOM     13  C   UNL     1      -3.984  -2.558  25.819  0.00  0.00    +0.085 C 
ENDROOT
BRANCH   8  15
ATOM      4  N   UNL     1      -0.419   0.444  23.835  0.00  0.00    -0.270 N 
ATOM      6  N   UNL     1       0.754   0.952  23.418  0.00  0.00    -0.171 NA
ATOM     15  C   UNL     1      -0.332  -0.836  24.295  0.00  0.00    +0.044 A 
ATOM     16  C   UNL     1       0.989  -1.192  24.171  0.00  0.00    +0.053 A 
ATOM     17  C   UNL     1       1.610  -0.052  23.626  0.00  0.00    +0.100 A 
ATOM     19  C   UNL     1      -1.606   1.262  23.762  0.00  0.00    +0.172 C 
BRANCH  17  20
ATOM      1  S   UNL     1       4.217  -1.090  23.754  0.00  0.00    -0.095 S 
ATOM     20  C   UNL     1       3.044   0.071  23.304  0.00  0.00    +0.039 A 
ATOM     22  C   UNL     1       3.597   1.125  22.611  0.00  0.00    +0.018 A 
ATOM     25  C   UNL     1       5.005   0.976  22.447  0.00  0.00    +0.008 A 
ATOM     26  C   UNL     1       5.473  -0.185  23.022  0.00  0.00    +0.046 A 
ENDBRANCH  17  20
ENDBRANCH   8  15
BRANCH   9  14
ATOM     14  C   UNL     1      -4.498   0.980  24.612  0.00  0.00    +0.100 C 
BRANCH  14   5
ATOM      5  N   UNL     1      -5.855   1.347  24.983  0.00  0.00    -0.311 NA
ATOM     31  H   UNL     1      -6.195   0.689  25.683  0.00  0.00    +0.122 HD
BRANCH   5  18
ATOM     18  C   UNL     1      -5.900   2.695  25.535  0.00  0.00    +0.116 C 
BRANCH  18  21
ATOM     21  C   UNL     1      -4.581   3.407  25.387  0.00  0.00    -0.033 A 
ATOM     23  C   UNL     1      -3.769   3.612  26.502  0.00  0.00    +0.008 A 
ATOM     24  C   UNL     1      -4.171   3.860  24.133  0.00  0.00    +0.008 A 
ATOM     27  C   UNL     1      -2.548   4.270  26.364  0.00  0.00    +0.046 A 
ATOM     28  C   UNL     1      -2.950   4.519  23.995  0.00  0.00    +0.046 A 
ATOM     29  C   UNL     1      -2.137   4.724  25.110  0.00  0.00    +0.120 A 
BRANCH  29   2
ATOM      2  O   UNL     1      -0.945   5.366  24.976  0.00  0.00    -0.495 OA
ATOM     30  C   UNL     1       0.047   4.731  24.171  0.00  0.00    +0.277 C 
ENDBRANCH  29   2
ENDBRANCH  18  21
ENDBRANCH   5  18
ENDBRANCH  14   5
ENDBRANCH   9  14
TORSDOF 7
ENDMDL
MODEL 2
REMARK VINA RESULT:       0.1      2.513      6.560
REMARK  Name = 44716332
REMARK  9 active torsions:
REMARK  status: ('A' for Active; 'I' for Inactive)
REMARK    1  A    between atoms: O_2  and  C_29
REMARK    2  A    between atoms: O_2  and  C_30
REMARK    3  A    between atoms: N_4  and  C_19
REMARK    4  A    between atoms: N_5  and  C_14
REMARK    5  A    between atoms: N_5  and  C_18
REMARK    6  A    between atoms: C_8  and  C_15
REMARK    7  A    between atoms: C_9  and  C_14
REMARK    8  A    between atoms: C_17  and  C_20
REMARK    9  A    between atoms: C_18  and  C_21
REMARK                            x       y       z     vdW  Elec       q    Type
REMARK                         _______ _______ _______ _____ _____    ______ ____
ROOT
ATOM      3  N   UNL     1      -2.832  -2.552  23.711  0.00  0.00    -0.298 NA
ATOM      7  C   UNL     1      -2.920  -1.434  26.061  0.00  0.00    +0.002 C 
ATOM      8  C   UNL     1      -3.760  -0.619  25.039  0.00  0.00    +0.055 C 
ATOM      9  C   UNL     1      -1.456  -2.400  24.254  0.00  0.00    +0.071 C 
ATOM     10  C   UNL     1      -1.470  -1.556  25.546  0.00  0.00    +0.024 C 
ATOM     11  C   UNL     1      -3.514  -2.859  26.090  0.00  0.00    +0.019 C 
ATOM     12  C   UNL     1      -3.496  -1.227  23.632  0.00  0.00    +0.094 C 
ATOM     13  C   UNL     1      -3.601  -3.400  24.653  0.00  0.00    +0.085 C 
ENDROOT
BRANCH   8  15
ATOM      4  N   UNL     1      -4.698   1.736  25.157  0.00  0.00    -0.270 N 
ATOM      6  N   UNL     1      -4.370   3.040  25.141  0.00  0.00    -0.171 NA
ATOM     15  C   UNL     1      -3.629   0.898  25.046  0.00  0.00    +0.044 A 
ATOM     16  C   UNL     1      -2.524   1.708  24.952  0.00  0.00    +0.053 A 
ATOM     17  C   UNL     1      -3.040   3.016  25.016  0.00  0.00    +0.100 A 
ATOM     19  C   UNL     1      -6.087   1.361  25.284  0.00  0.00    +0.172 C 
BRANCH  17  20
ATOM      1  S   UNL     1      -0.558   4.283  24.663  0.00  0.00    -0.095 S 
ATOM     20  C   UNL     1      -2.244   4.255  24.958  0.00  0.00    +0.039 A 
ATOM     22  C   UNL     1      -2.760   5.520  25.133  0.00  0.00    +0.018 A 
ATOM     25  C   UNL     1      -1.757   6.527  25.023  0.00  0.00    +0.008 A 
ATOM     26  C   UNL     1      -0.513   5.992  24.769  0.00  0.00    +0.046 A 
ENDBRANCH  17  20
ENDBRANCH   8  15
BRANCH   9  14
ATOM     14  C   UNL     1      -0.479  -1.839  23.218  0.00  0.00    +0.100 C 
BRANCH  14   5
ATOM      5  N   UNL     1       0.218  -0.676  23.743  0.00  0.00    -0.311 NA
ATOM     31  H   UNL     1       0.833  -0.974  24.499  0.00  0.00    +0.122 HD
BRANCH   5  18
ATOM     18  C   UNL     1       1.017  -0.034  22.707  0.00  0.00    +0.116 C 
BRANCH  18  21
ATOM     21  C   UNL     1       2.490  -0.095  23.015  0.00  0.00    -0.033 A 
ATOM     23  C   UNL     1       3.305   1.006  22.750  0.00  0.00    +0.008 A 
ATOM     24  C   UNL     1       3.039  -1.253  23.567  0.00  0.00    +0.008 A 
ATOM     27  C   UNL     1       4.668   0.949  23.036  0.00  0.00    +0.046 A 
ATOM     28  C   UNL     1       4.403  -1.310  23.853  0.00  0.00    +0.046 A 
ATOM     29  C   UNL     1       5.218  -0.209  23.587  0.00  0.00    +0.120 A 
BRANCH  29   2
ATOM      2  O   UNL     1       6.549  -0.264  23.867  0.00  0.00    -0.495 OA
ATOM     30  C   UNL     1       7.430  -0.544  22.781  0.00  0.00    +0.277 C 
ENDBRANCH  29   2
ENDBRANCH  18  21
ENDBRANCH   5  18
ENDBRANCH  14   5
ENDBRANCH   9  14
TORSDOF 7
ENDMDL
MODEL 3
REMARK VINA RESULT:       0.1      2.041      4.715
REMARK  Name = 44716332
REMARK  9 active torsions:
REMARK  status: ('A' for Active; 'I' for Inactive)
REMARK    1  A    between atoms: O_2  and  C_29
REMARK    2  A    between atoms: O_2  and  C_30
REMARK    3  A    between atoms: N_4  and  C_19
REMARK    4  A    between atoms: N_5  and  C_14
REMARK    5  A    between atoms: N_5  and  C_18
REMARK    6  A    between atoms: C_8  and  C_15
REMARK    7  A    between atoms: C_9  and  C_14
REMARK    8  A    between atoms: C_17  and  C_20
REMARK    9  A    between atoms: C_18  and  C_21
REMARK                            x       y       z     vdW  Elec       q    Type
REMARK                         _______ _______ _______ _____ _____    ______ ____
ROOT
ATOM      3  N   UNL     1      -3.364   3.875  24.290  0.00  0.00    -0.298 NA
ATOM      7  C   UNL     1      -0.962   4.155  25.259  0.00  0.00    +0.002 C 
ATOM      8  C   UNL     1      -0.907   3.513  23.845  0.00  0.00    +0.055 C 
ATOM      9  C   UNL     1      -3.303   3.318  25.668  0.00  0.00    +0.071 C 
ATOM     10  C   UNL     1      -1.847   3.286  26.179  0.00  0.00    +0.024 C 
ATOM     11  C   UNL     1      -1.672   5.517  25.102  0.00  0.00    +0.019 C 
ATOM     12  C   UNL     1      -2.369   3.194  23.423  0.00  0.00    +0.094 C 
ATOM     13  C   UNL     1      -3.006   5.311  24.364  0.00  0.00    +0.085 C 
ENDROOT
BRANCH   8  15
ATOM      4  N   UNL     1      -0.408   1.102  23.231  0.00  0.00    -0.270 N 
ATOM      6  N   UNL     1       0.575   0.194  23.098  0.00  0.00    -0.171 NA
ATOM     15  C   UNL     1       0.027   2.331  23.628  0.00  0.00    +0.044 A 
ATOM     16  C   UNL     1       1.390   2.221  23.765  0.00  0.00    +0.053 A 
ATOM     17  C   UNL     1       1.671   0.884  23.426  0.00  0.00    +0.100 A 
ATOM     19  C   UNL     1      -1.770   0.711  22.953  0.00  0.00    +0.172 C 
BRANCH  17  20
ATOM      1  S   UNL     1       3.294  -1.379  23.797  0.00  0.00    -0.095 S 
ATOM     20  C   UNL     1       3.009   0.265  23.415  0.00  0.00    +0.039 A 
ATOM     22  C   UNL     1       4.172   0.933  23.101  0.00  0.00    +0.018 A 
ATOM     25  C   UNL     1       5.313   0.082  23.175  0.00  0.00    +0.008 A 
ATOM     26  C   UNL     1       4.978  -1.202  23.543  0.00  0.00    +0.046 A 
ENDBRANCH  17  20
ENDBRANCH   8  15
BRANCH   9  14
ATOM     14  C   UNL     1      -3.974   1.947  25.772  0.00  0.00    +0.100 C 
BRANCH  14   5
ATOM      5  N   UNL     1      -5.138   1.875  24.903  0.00  0.00    -0.311 NA
ATOM     31  H   UNL     1      -4.896   2.269  23.995  0.00  0.00    +0.122 HD
BRANCH   5  18
ATOM     18  C   UNL     1      -5.570   0.494  24.722  0.00  0.00    +0.116 C 
BRANCH  18  21
ATOM     21  C   UNL     1      -4.416  -0.470  24.798  0.00  0.00    -0.033 A 
ATOM     23  C   UNL     1      -3.414  -0.286  25.751  0.00  0.00    +0.008 A 
ATOM     24  C   UNL     1      -4.348  -1.547  23.914  0.00  0.00    +0.008 A 
ATOM     27  C   UNL     1      -2.346  -1.179  25.821  0.00  0.00    +0.046 A 
ATOM     28  C   UNL     1      -3.279  -2.440  23.983  0.00  0.00    +0.046 A 
ATOM     29  C   UNL     1      -2.277  -2.256  24.937  0.00  0.00    +0.120 A 
BRANCH  29   2
ATOM      2  O   UNL     1      -1.235  -3.128  25.006  0.00  0.00    -0.495 OA
ATOM     30  C   UNL     1       0.035  -2.594  25.378  0.00  0.00    +0.277 C 
ENDBRANCH  29   2
ENDBRANCH  18  21
ENDBRANCH   5  18
ENDBRANCH  14   5
ENDBRANCH   9  14
TORSDOF 7
ENDMDL
MODEL 4
REMARK VINA RESULT:       0.9      1.539      1.772
REMARK  Name = 44716332
REMARK  9 active torsions:
REMARK  status: ('A' for Active; 'I' for Inactive)
REMARK    1  A    between atoms: O_2  and  C_29
REMARK    2  A    between atoms: O_2  and  C_30
REMARK    3  A    between atoms: N_4  and  C_19
REMARK    4  A    between atoms: N_5  and  C_14
REMARK    5  A    between atoms: N_5  and  C_18
REMARK    6  A    between atoms: C_8  and  C_15
REMARK    7  A    between atoms: C_9  and  C_14
REMARK    8  A    between atoms: C_17  and  C_20
REMARK    9  A    between atoms: C_18  and  C_21
REMARK                            x       y       z     vdW  Elec       q    Type
REMARK                         _______ _______ _______ _____ _____    ______ ____
ROOT
ATOM      3  N   UNL     1      -3.753  -0.072  25.549  0.00  0.00    -0.298 NA
ATOM      7  C   UNL     1      -2.613  -1.921  24.112  0.00  0.00    +0.002 C 
ATOM      8  C   UNL     1      -1.552  -1.145  24.940  0.00  0.00    +0.055 C 
ATOM      9  C   UNL     1      -4.216   0.022  24.139  0.00  0.00    +0.071 C 
ATOM     10  C   UNL     1      -3.401  -0.926  23.233  0.00  0.00    +0.024 C 
ATOM     11  C   UNL     1      -3.612  -2.525  25.122  0.00  0.00    +0.019 C 
ATOM     12  C   UNL     1      -2.275   0.060  25.607  0.00  0.00    +0.094 C 
ATOM     13  C   UNL     1      -4.118  -1.415  26.059  0.00  0.00    +0.085 C 
ENDROOT
BRANCH   8  15
ATOM      4  N   UNL     1      -0.231   0.070  23.147  0.00  0.00    -0.270 N 
ATOM      6  N   UNL     1       1.009   0.316  22.687  0.00  0.00    -0.171 NA
ATOM     15  C   UNL     1      -0.261  -0.732  24.249  0.00  0.00    +0.044 A 
ATOM     16  C   UNL     1       1.050  -1.032  24.531  0.00  0.00    +0.053 A 
ATOM     17  C   UNL     1       1.787  -0.360  23.537  0.00  0.00    +0.100 A 
ATOM     19  C   UNL     1      -1.363   0.652  22.464  0.00  0.00    +0.172 C 
BRANCH  17  20
ATOM      1  S   UNL     1       4.145   0.889  22.659  0.00  0.00    -0.095 S 
ATOM     20  C   UNL     1       3.255  -0.368  23.406  0.00  0.00    +0.039 A 
ATOM     22  C   UNL     1       4.071  -1.378  23.865  0.00  0.00    +0.018 A 
ATOM     25  C   UNL     1       5.447  -1.116  23.599  0.00  0.00    +0.008 A 
ATOM     26  C   UNL     1       5.629   0.084  22.948  0.00  0.00    +0.046 A 
ENDBRANCH  17  20
ENDBRANCH   8  15
BRANCH   9  14
ATOM     14  C   UNL     1      -4.204   1.460  23.616  0.00  0.00    +0.100 C 
BRANCH  14   5
ATOM      5  N   UNL     1      -5.000   2.326  24.471  0.00  0.00    -0.311 NA
ATOM     31  H   UNL     1      -5.125   1.872  25.375  0.00  0.00    +0.122 HD
BRANCH   5  18
ATOM     18  C   UNL     1      -4.341   3.611  24.672  0.00  0.00    +0.116 C 
BRANCH  18  21
ATOM     21  C   UNL     1      -2.925   3.445  25.160  0.00  0.00    -0.033 A 
ATOM     23  C   UNL     1      -2.663   3.366  26.528  0.00  0.00    +0.008 A 
ATOM     24  C   UNL     1      -1.877   3.369  24.242  0.00  0.00    +0.008 A 
ATOM     27  C   UNL     1      -1.353   3.213  26.978  0.00  0.00    +0.046 A 
ATOM     28  C   UNL     1      -0.566   3.216  24.693  0.00  0.00    +0.046 A 
ATOM     29  C   UNL     1      -0.303   3.138  26.061  0.00  0.00    +0.120 A 
BRANCH  29   2
ATOM      2  O   UNL     1       0.975   2.987  26.501  0.00  0.00    -0.495 OA
ATOM     30  C   UNL     1       1.152   2.563  27.852  0.00  0.00    +0.277 C 
ENDBRANCH  29   2
ENDBRANCH  18  21
ENDBRANCH   5  18
ENDBRANCH  14   5
ENDBRANCH   9  14
TORSDOF 7
ENDMDL
MODEL 5
REMARK VINA RESULT:       1.3      2.180      5.054
REMARK  Name = 44716332
REMARK  9 active torsions:
REMARK  status: ('A' for Active; 'I' for Inactive)
REMARK    1  A    between atoms: O_2  and  C_29
REMARK    2  A    between atoms: O_2  and  C_30
REMARK    3  A    between atoms: N_4  and  C_19
REMARK    4  A    between atoms: N_5  and  C_14
REMARK    5  A    between atoms: N_5  and  C_18
REMARK    6  A    between atoms: C_8  and  C_15
REMARK    7  A    between atoms: C_9  and  C_14
REMARK    8  A    between atoms: C_17  and  C_20
REMARK    9  A    between atoms: C_18  and  C_21
REMARK                            x       y       z     vdW  Elec       q    Type
REMARK                         _______ _______ _______ _____ _____    ______ ____
ROOT
ATOM      3  N   UNL     1      -4.802   4.080  24.470  0.00  0.00    -0.298 NA
ATOM      7  C   UNL     1      -3.123   3.773  26.437  0.00  0.00    +0.002 C 
ATOM      8  C   UNL     1      -2.361   3.951  25.094  0.00  0.00    +0.055 C 
ATOM      9  C   UNL     1      -5.180   2.892  25.280  0.00  0.00    +0.071 C 
ATOM     10  C   UNL     1      -4.085   2.572  26.321  0.00  0.00    +0.024 C 
ATOM     11  C   UNL     1      -3.992   5.035  26.627  0.00  0.00    +0.019 C 
ATOM     12  C   UNL     1      -3.419   3.925  23.954  0.00  0.00    +0.094 C 
ATOM     13  C   UNL     1      -4.833   5.265  25.360  0.00  0.00    +0.085 C 
ENDROOT
BRANCH   8  15
ATOM      4  N   UNL     1      -0.298   2.636  25.767  0.00  0.00    -0.270 N 
ATOM      6  N   UNL     1       0.673   1.826  25.310  0.00  0.00    -0.171 NA
ATOM     15  C   UNL     1      -1.182   3.032  24.808  0.00  0.00    +0.044 A 
ATOM     16  C   UNL     1      -0.760   2.442  23.642  0.00  0.00    +0.053 A 
ATOM     17  C   UNL     1       0.385   1.711  24.011  0.00  0.00    +0.100 A 
ATOM     19  C   UNL     1      -0.316   2.994  27.167  0.00  0.00    +0.172 C 
BRANCH  17  20
ATOM      1  S   UNL     1       2.913   1.019  23.000  0.00  0.00    -0.095 S 
ATOM     20  C   UNL     1       1.209   0.893  23.103  0.00  0.00    +0.039 A 
ATOM     22  C   UNL     1       0.708  -0.057  22.241  0.00  0.00    +0.018 A 
ATOM     25  C   UNL     1       1.737  -0.690  21.486  0.00  0.00    +0.008 A 
ATOM     26  C   UNL     1       2.985  -0.200  21.799  0.00  0.00    +0.046 A 
ENDBRANCH  17  20
ENDBRANCH   8  15
BRANCH   9  14
ATOM     14  C   UNL     1      -5.513   1.677  24.412  0.00  0.00    +0.100 C 
BRANCH  14   5
ATOM      5  N   UNL     1      -5.267   0.441  25.137  0.00  0.00    -0.311 NA
ATOM     31  H   UNL     1      -6.132   0.147  25.589  0.00  0.00    +0.122 HD
BRANCH   5  18
ATOM     18  C   UNL     1      -4.819  -0.614  24.237  0.00  0.00    +0.116 C 
BRANCH  18  21
ATOM     21  C   UNL     1      -3.464  -1.144  24.625  0.00  0.00    -0.033 A 
ATOM     23  C   UNL     1      -3.075  -2.424  24.228  0.00  0.00    +0.008 A 
ATOM     24  C   UNL     1      -2.597  -0.355  25.381  0.00  0.00    +0.008 A 
ATOM     27  C   UNL     1      -1.821  -2.915  24.587  0.00  0.00    +0.046 A 
ATOM     28  C   UNL     1      -1.342  -0.847  25.741  0.00  0.00    +0.046 A 
ATOM     29  C   UNL     1      -0.953  -2.126  25.344  0.00  0.00    +0.120 A 
BRANCH  29   2
ATOM      2  O   UNL     1       0.271  -2.605  25.694  0.00  0.00    -0.495 OA
ATOM     30  C   UNL     1       1.387  -2.159  24.925  0.00  0.00    +0.277 C 
ENDBRANCH  29   2
ENDBRANCH  18  21
ENDBRANCH   5  18
ENDBRANCH  14   5
ENDBRANCH   9  14
TORSDOF 7
ENDMDL
MODEL 6
REMARK VINA RESULT:       1.8      1.859      2.779
REMARK  Name = 44716332
REMARK  9 active torsions:
REMARK  status: ('A' for Active; 'I' for Inactive)
REMARK    1  A    between atoms: O_2  and  C_29
REMARK    2  A    between atoms: O_2  and  C_30
REMARK    3  A    between atoms: N_4  and  C_19
REMARK    4  A    between atoms: N_5  and  C_14
REMARK    5  A    between atoms: N_5  and  C_18
REMARK    6  A    between atoms: C_8  and  C_15
REMARK    7  A    between atoms: C_9  and  C_14
REMARK    8  A    between atoms: C_17  and  C_20
REMARK    9  A    between atoms: C_18  and  C_21
REMARK                            x       y       z     vdW  Elec       q    Type
REMARK                         _______ _______ _______ _____ _____    ______ ____
ROOT
ATOM      3  N   UNL     1      -4.247   1.869  25.087  0.00  0.00    -0.298 NA
ATOM      7  C   UNL     1      -3.874  -0.368  23.807  0.00  0.00    +0.002 C 
ATOM      8  C   UNL     1      -2.750  -0.149  24.857  0.00  0.00    +0.055 C 
ATOM      9  C   UNL     1      -4.334   2.102  23.621  0.00  0.00    +0.071 C 
ATOM     10  C   UNL     1      -3.912   0.837  22.843  0.00  0.00    +0.024 C 
ATOM     11  C   UNL     1      -5.210  -0.375  24.579  0.00  0.00    +0.019 C 
ATOM     12  C   UNL     1      -2.926   1.286  25.431  0.00  0.00    +0.094 C 
ATOM     13  C   UNL     1      -5.296   0.887  25.454  0.00  0.00    +0.085 C 
ENDROOT
BRANCH   8  15
ATOM      4  N   UNL     1      -0.807  -1.693  24.328  0.00  0.00    -0.270 N 
ATOM      6  N   UNL     1       0.483  -1.728  23.953  0.00  0.00    -0.171 NA
ATOM     15  C   UNL     1      -1.313  -0.432  24.444  0.00  0.00    +0.044 A 
ATOM     16  C   UNL     1      -0.282   0.417  24.122  0.00  0.00    +0.053 A 
ATOM     17  C   UNL     1       0.798  -0.436  23.828  0.00  0.00    +0.100 A 
ATOM     19  C   UNL     1      -1.506  -2.934  24.563  0.00  0.00    +0.172 C 
BRANCH  17  20
ATOM      1  S   UNL     1       3.529  -1.008  23.503  0.00  0.00    -0.095 S 
ATOM     20  C   UNL     1       2.147  -0.001  23.422  0.00  0.00    +0.039 A 
ATOM     22  C   UNL     1       2.447   1.251  22.936  0.00  0.00    +0.018 A 
ATOM     25  C   UNL     1       3.831   1.387  22.625  0.00  0.00    +0.008 A 
ATOM     26  C   UNL     1       4.536   0.233  22.887  0.00  0.00    +0.046 A 
ENDBRANCH  17  20
ENDBRANCH   8  15
BRANCH   9  14
ATOM     14  C   UNL     1      -3.542   3.334  23.179  0.00  0.00    +0.100 C 
BRANCH  14   5
ATOM      5  N   UNL     1      -4.055   4.534  23.820  0.00  0.00    -0.311 NA
ATOM     31  H   UNL     1      -4.638   4.262  24.611  0.00  0.00    +0.122 HD
BRANCH   5  18
ATOM     18  C   UNL     1      -2.966   5.376  24.301  0.00  0.00    +0.116 C 
BRANCH  18  21
ATOM     21  C   UNL     1      -1.904   4.572  25.004  0.00  0.00    -0.033 A 
ATOM     23  C   UNL     1      -2.128   4.099  26.297  0.00  0.00    +0.008 A 
ATOM     24  C   UNL     1      -0.696   4.301  24.361  0.00  0.00    +0.008 A 
ATOM     27  C   UNL     1      -1.144   3.355  26.947  0.00  0.00    +0.046 A 
ATOM     28  C   UNL     1       0.288   3.557  25.011  0.00  0.00    +0.046 A 
ATOM     29  C   UNL     1       0.064   3.084  26.305  0.00  0.00    +0.120 A 
BRANCH  29   2
ATOM      2  O   UNL     1       1.024   2.357  26.939  0.00  0.00    -0.495 OA
ATOM     30  C   UNL     1       1.070   2.444  28.362  0.00  0.00    +0.277 C 
ENDBRANCH  29   2
ENDBRANCH  18  21
ENDBRANCH   5  18
ENDBRANCH  14   5
ENDBRANCH   9  14
TORSDOF 7
ENDMDL
MODEL 7
REMARK VINA RESULT:       1.9      2.993      5.476
REMARK  Name = 44716332
REMARK  9 active torsions:
REMARK  status: ('A' for Active; 'I' for Inactive)
REMARK    1  A    between atoms: O_2  and  C_29
REMARK    2  A    between atoms: O_2  and  C_30
REMARK    3  A    between atoms: N_4  and  C_19
REMARK    4  A    between atoms: N_5  and  C_14
REMARK    5  A    between atoms: N_5  and  C_18
REMARK    6  A    between atoms: C_8  and  C_15
REMARK    7  A    between atoms: C_9  and  C_14
REMARK    8  A    between atoms: C_17  and  C_20
REMARK    9  A    between atoms: C_18  and  C_21
REMARK                            x       y       z     vdW  Elec       q    Type
REMARK                         _______ _______ _______ _____ _____    ______ ____
ROOT
ATOM      3  N   UNL     1      -4.545   2.278  23.744  0.00  0.00    -0.298 NA
ATOM      7  C   UNL     1      -4.127   3.602  25.947  0.00  0.00    +0.002 C 
ATOM      8  C   UNL     1      -2.851   3.605  25.060  0.00  0.00    +0.055 C 
ATOM      9  C   UNL     1      -4.973   1.466  24.914  0.00  0.00    +0.071 C 
ATOM     10  C   UNL     1      -4.545   2.144  26.233  0.00  0.00    +0.024 C 
ATOM     11  C   UNL     1      -5.254   4.241  25.107  0.00  0.00    +0.019 C 
ATOM     12  C   UNL     1      -3.109   2.635  23.872  0.00  0.00    +0.094 C 
ATOM     13  C   UNL     1      -5.336   3.531  23.745  0.00  0.00    +0.085 C 
ENDROOT
BRANCH   8  15
ATOM      4  N   UNL     1      -0.325   3.358  25.053  0.00  0.00    -0.270 N 
ATOM      6  N   UNL     1       0.746   3.110  25.827  0.00  0.00    -0.171 NA
ATOM     15  C   UNL     1      -1.508   3.350  25.730  0.00  0.00    +0.044 A 
ATOM     16  C   UNL     1      -1.190   3.078  27.039  0.00  0.00    +0.053 A 
ATOM     17  C   UNL     1       0.211   2.940  27.039  0.00  0.00    +0.100 A 
ATOM     19  C   UNL     1      -0.133   3.600  23.642  0.00  0.00    +0.172 C 
BRANCH  17  20
ATOM      1  S   UNL     1       2.750   2.766  28.229  0.00  0.00    -0.095 S 
ATOM     20  C   UNL     1       1.042   2.642  28.220  0.00  0.00    +0.039 A 
ATOM     22  C   UNL     1       0.546   2.234  29.437  0.00  0.00    +0.018 A 
ATOM     25  C   UNL     1       1.582   2.020  30.393  0.00  0.00    +0.008 A 
ATOM     26  C   UNL     1       2.830   2.272  29.867  0.00  0.00    +0.046 A 
ENDBRANCH  17  20
ENDBRANCH   8  15
BRANCH   9  14
ATOM     14  C   UNL     1      -4.483   0.020  24.831  0.00  0.00    +0.100 C 
BRANCH  14   5
ATOM      5  N   UNL     1      -4.143  -0.487  26.151  0.00  0.00    -0.311 NA
ATOM     31  H   UNL     1      -4.998  -0.785  26.619  0.00  0.00    +0.122 HD
BRANCH   5  18
ATOM     18  C   UNL     1      -3.232  -1.620  26.058  0.00  0.00    +0.116 C 
BRANCH  18  21
ATOM     21  C   UNL     1      -2.039  -1.311  25.191  0.00  0.00    -0.033 A 
ATOM     23  C   UNL     1      -1.312  -0.139  25.397  0.00  0.00    +0.008 A 
ATOM     24  C   UNL     1      -1.662  -2.199  24.183  0.00  0.00    +0.008 A 
ATOM     27  C   UNL     1      -0.208   0.146  24.594  0.00  0.00    +0.046 A 
ATOM     28  C   UNL     1      -0.558  -1.913  23.379  0.00  0.00    +0.046 A 
ATOM     29  C   UNL     1       0.169  -0.740  23.585  0.00  0.00    +0.120 A 
BRANCH  29   2
ATOM      2  O   UNL     1       1.247  -0.462  22.803  0.00  0.00    -0.495 OA
ATOM     30  C   UNL     1       2.104   0.596  23.230  0.00  0.00    +0.277 C 
ENDBRANCH  29   2
ENDBRANCH  18  21
ENDBRANCH   5  18
ENDBRANCH  14   5
ENDBRANCH   9  14
TORSDOF 7
ENDMDL
MODEL 8
REMARK VINA RESULT:       2.4      2.673      7.401
REMARK  Name = 44716332
REMARK  9 active torsions:
REMARK  status: ('A' for Active; 'I' for Inactive)
REMARK    1  A    between atoms: O_2  and  C_29
REMARK    2  A    between atoms: O_2  and  C_30
REMARK    3  A    between atoms: N_4  and  C_19
REMARK    4  A    between atoms: N_5  and  C_14
REMARK    5  A    between atoms: N_5  and  C_18
REMARK    6  A    between atoms: C_8  and  C_15
REMARK    7  A    between atoms: C_9  and  C_14
REMARK    8  A    between atoms: C_17  and  C_20
REMARK    9  A    between atoms: C_18  and  C_21
REMARK                            x       y       z     vdW  Elec       q    Type
REMARK                         _______ _______ _______ _____ _____    ______ ____
ROOT
ATOM      3  N   UNL     1      -0.466   3.971  25.474  0.00  0.00    -0.298 NA
ATOM      7  C   UNL     1      -2.411   3.863  23.745  0.00  0.00    +0.002 C 
ATOM      8  C   UNL     1      -2.800   3.112  25.049  0.00  0.00    +0.055 C 
ATOM      9  C   UNL     1       0.052   3.523  24.154  0.00  0.00    +0.071 C 
ATOM     10  C   UNL     1      -1.112   3.255  23.175  0.00  0.00    +0.024 C 
ATOM     11  C   UNL     1      -2.092   5.319  24.149  0.00  0.00    +0.019 C 
ATOM     12  C   UNL     1      -1.528   3.045  25.943  0.00  0.00    +0.094 C 
ATOM     13  C   UNL     1      -1.067   5.314  25.296  0.00  0.00    +0.085 C 
ENDROOT
BRANCH   8  15
ATOM      4  N   UNL     1      -4.818   1.578  25.152  0.00  0.00    -0.270 N 
ATOM      6  N   UNL     1      -5.230   0.309  24.988  0.00  0.00    -0.171 NA
ATOM     15  C   UNL     1      -3.487   1.760  24.922  0.00  0.00    +0.044 A 
ATOM     16  C   UNL     1      -2.992   0.524  24.584  0.00  0.00    +0.053 A 
ATOM     17  C   UNL     1      -4.109  -0.330  24.641  0.00  0.00    +0.100 A 
ATOM     19  C   UNL     1      -5.779   2.585  25.538  0.00  0.00    +0.172 C 
BRANCH  17  20
ATOM      1  S   UNL     1      -3.019  -2.878  25.100  0.00  0.00    -0.095 S 
ATOM     20  C   UNL     1      -4.097  -1.777  24.356  0.00  0.00    +0.039 A 
ATOM     22  C   UNL     1      -4.943  -2.401  23.468  0.00  0.00    +0.018 A 
ATOM     25  C   UNL     1      -4.703  -3.805  23.396  0.00  0.00    +0.008 A 
ATOM     26  C   UNL     1      -3.682  -4.198  24.233  0.00  0.00    +0.046 A 
ENDBRANCH  17  20
ENDBRANCH   8  15
BRANCH   9  14
ATOM     14  C   UNL     1       0.987   2.319  24.272  0.00  0.00    +0.100 C 
BRANCH  14   5
ATOM      5  N   UNL     1       0.298   1.093  23.902  0.00  0.00    -0.311 NA
ATOM     31  H   UNL     1      -0.662   1.319  23.644  0.00  0.00    +0.122 HD
BRANCH   5  18
ATOM     18  C   UNL     1       0.954   0.445  22.773  0.00  0.00    +0.116 C 
BRANCH  18  21
ATOM     21  C   UNL     1       2.404   0.155  23.057  0.00  0.00    -0.033 A 
ATOM     23  C   UNL     1       3.370   1.136  22.830  0.00  0.00    +0.008 A 
ATOM     24  C   UNL     1       2.782  -1.095  23.548  0.00  0.00    +0.008 A 
ATOM     27  C   UNL     1       4.712   0.868  23.094  0.00  0.00    +0.046 A 
ATOM     28  C   UNL     1       4.125  -1.364  23.811  0.00  0.00    +0.046 A 
ATOM     29  C   UNL     1       5.090  -0.383  23.584  0.00  0.00    +0.120 A 
BRANCH  29   2
ATOM      2  O   UNL     1       6.400  -0.645  23.842  0.00  0.00    -0.495 OA
ATOM     30  C   UNL     1       7.302  -0.599  22.737  0.00  0.00    +0.277 C 
ENDBRANCH  29   2
ENDBRANCH  18  21
ENDBRANCH   5  18
ENDBRANCH  14   5
ENDBRANCH   9  14
TORSDOF 7
ENDMDL
MODEL 9
REMARK VINA RESULT:       2.8      2.551      6.687
REMARK  Name = 44716332
REMARK  9 active torsions:
REMARK  status: ('A' for Active; 'I' for Inactive)
REMARK    1  A    between atoms: O_2  and  C_29
REMARK    2  A    between atoms: O_2  and  C_30
REMARK    3  A    between atoms: N_4  and  C_19
REMARK    4  A    between atoms: N_5  and  C_14
REMARK    5  A    between atoms: N_5  and  C_18
REMARK    6  A    between atoms: C_8  and  C_15
REMARK    7  A    between atoms: C_9  and  C_14
REMARK    8  A    between atoms: C_17  and  C_20
REMARK    9  A    between atoms: C_18  and  C_21
REMARK                            x       y       z     vdW  Elec       q    Type
REMARK                         _______ _______ _______ _____ _____    ______ ____
ROOT
ATOM      3  N   UNL     1      -1.781   5.081  25.721  0.00  0.00    -0.298 NA
ATOM      7  C   UNL     1      -3.094   4.241  23.634  0.00  0.00    +0.002 C 
ATOM      8  C   UNL     1      -3.732   3.686  24.938  0.00  0.00    +0.055 C 
ATOM      9  C   UNL     1      -0.838   4.511  24.722  0.00  0.00    +0.071 C 
ATOM     10  C   UNL     1      -1.610   3.823  23.576  0.00  0.00    +0.024 C 
ATOM     11  C   UNL     1      -3.129   5.780  23.743  0.00  0.00    +0.019 C 
ATOM     12  C   UNL     1      -2.783   4.059  26.113  0.00  0.00    +0.094 C 
ATOM     13  C   UNL     1      -2.497   6.209  25.078  0.00  0.00    +0.085 C 
ENDROOT
BRANCH   8  15
ATOM      4  N   UNL     1      -5.336   1.793  25.470  0.00  0.00    -0.270 N 
ATOM      6  N   UNL     1      -5.505   0.461  25.409  0.00  0.00    -0.171 NA
ATOM     15  C   UNL     1      -4.142   2.220  24.971  0.00  0.00    +0.044 A 
ATOM     16  C   UNL     1      -3.483   1.089  24.554  0.00  0.00    +0.053 A 
ATOM     17  C   UNL     1      -4.370   0.036  24.849  0.00  0.00    +0.100 A 
ATOM     19  C   UNL     1      -6.386   2.611  26.031  0.00  0.00    +0.172 C 
BRANCH  17  20
ATOM      1  S   UNL     1      -3.129  -2.378  25.573  0.00  0.00    -0.095 S 
ATOM     20  C   UNL     1      -4.121  -1.393  24.585  0.00  0.00    +0.039 A 
ATOM     22  C   UNL     1      -4.652  -2.092  23.525  0.00  0.00    +0.018 A 
ATOM     25  C   UNL     1      -4.239  -3.456  23.523  0.00  0.00    +0.008 A 
ATOM     26  C   UNL     1      -3.408  -3.746  24.582  0.00  0.00    +0.046 A 
ENDBRANCH  17  20
ENDBRANCH   8  15
BRANCH   9  14
ATOM     14  C   UNL     1       0.190   3.575  25.360  0.00  0.00    +0.100 C 
BRANCH  14   5
ATOM      5  N   UNL     1      -0.415   2.794  26.427  0.00  0.00    -0.311 NA
ATOM     31  H   UNL     1      -1.244   3.282  26.763  0.00  0.00    +0.122 HD
BRANCH   5  18
ATOM     18  C   UNL     1      -0.802   1.471  25.952  0.00  0.00    +0.116 C 
BRANCH  18  21
ATOM     21  C   UNL     1       0.047   1.020  24.793  0.00  0.00    -0.033 A 
ATOM     23  C   UNL     1       1.163   1.766  24.413  0.00  0.00    +0.008 A 
ATOM     24  C   UNL     1      -0.283  -0.144  24.099  0.00  0.00    +0.008 A 
ATOM     27  C   UNL     1       1.949   1.349  23.340  0.00  0.00    +0.046 A 
ATOM     28  C   UNL     1       0.503  -0.562  23.025  0.00  0.00    +0.046 A 
ATOM     29  C   UNL     1       1.619   0.184  22.645  0.00  0.00    +0.120 A 
BRANCH  29   2
ATOM      2  O   UNL     1       2.387  -0.224  21.598  0.00  0.00    -0.495 OA
ATOM     30  C   UNL     1       3.744   0.215  21.579  0.00  0.00    +0.277 C 
ENDBRANCH  29   2
ENDBRANCH  18  21
ENDBRANCH   5  18
ENDBRANCH  14   5
ENDBRANCH   9  14
TORSDOF 7
ENDMDL
