MODEL 1
REMARK VINA RESULT:      -3.5      0.000      0.000
REMARK  Name = 45361078
REMARK  8 active torsions:
REMARK  status: ('A' for Active; 'I' for Inactive)
REMARK    1  A    between atoms: O_4  and  C_30
REMARK    2  A    between atoms: O_4  and  C_31
REMARK    3  A    between atoms: N_5  and  C_18
REMARK    4  A    between atoms: N_6  and  C_17
REMARK    5  A    between atoms: C_13  and  C_16
REMARK    6  A    between atoms: C_16  and  C_19
REMARK    7  A    between atoms: C_17  and  C_20
REMARK    8  A    between atoms: C_19  and  C_21
REMARK                            x       y       z     vdW  Elec       q    Type
REMARK                         _______ _______ _______ _____ _____    ______ ____
ROOT
ATOM      1  O   UNL     1      13.434  -6.784  28.843  0.00  0.00    -0.274 OA
ATOM      5  N   UNL     1      16.153  -8.875  27.048  0.00  0.00    -0.296 NA
ATOM      6  N   UNL     1      14.087  -9.104  30.061  0.00  0.00    -0.286 NA
ATOM      7  N   UNL     1      15.571  -6.290  28.190  0.00  0.00    -0.312 N 
ATOM      9  C   UNL     1      15.857  -9.354  28.417  0.00  0.00    +0.084 C 
ATOM     10  C   UNL     1      15.192  -8.366  29.420  0.00  0.00    +0.161 C 
ATOM     11  C   UNL     1      14.893 -10.554  28.464  0.00  0.00    +0.036 C 
ATOM     12  C   UNL     1      14.363 -10.525  29.882  0.00  0.00    +0.087 C 
ATOM     13  C   UNL     1      17.150  -7.771  26.985  0.00  0.00    +0.074 C 
ATOM     14  C   UNL     1      14.623  -7.095  28.794  0.00  0.00    +0.232 C 
ATOM     15  C   UNL     1      16.963  -6.666  28.043  0.00  0.00    +0.123 C 
ATOM     18  C   UNL     1      16.572  -9.991  26.183  0.00  0.00    +0.105 C 
ATOM     32  H   UNL     1      15.269  -5.392  27.822  0.00  0.00    +0.149 HD
ENDROOT
BRANCH  13  16
ATOM     16  C   UNL     1      17.118  -7.094  25.598  0.00  0.00    +0.029 C 
BRANCH  16  19
ATOM     19  C   UNL     1      17.248  -5.587  25.699  0.00  0.00    +0.097 C 
BRANCH  19  21
ATOM      2  O   UNL     1      17.280  -5.666  23.330  0.00  0.00    -0.276 OA
ATOM      3  O   UNL     1      16.557  -0.839  24.127  0.00  0.00    -0.377 OA
ATOM      8  N   UNL     1      17.284  -3.556  24.298  0.00  0.00    -0.297 N 
ATOM     21  C   UNL     1      17.274  -4.948  24.333  0.00  0.00    +0.216 C 
ATOM     24  C   UNL     1      17.305  -2.856  23.014  0.00  0.00    +0.136 C 
ATOM     25  C   UNL     1      17.405  -2.676  25.466  0.00  0.00    +0.136 C 
ATOM     28  C   UNL     1      16.305  -1.708  23.020  0.00  0.00    +0.179 C 
ATOM     29  C   UNL     1      16.404  -1.531  25.369  0.00  0.00    +0.179 C 
ENDBRANCH  19  21
ENDBRANCH  16  19
ENDBRANCH  13  16
BRANCH   6  17
ATOM     17  C   UNL     1      13.896  -8.754  31.462  0.00  0.00    +0.120 C 
BRANCH  17  20
ATOM     20  C   UNL     1      12.437  -8.635  31.816  0.00  0.00    -0.033 A 
ATOM     22  C   UNL     1      11.848  -7.376  31.931  0.00  0.00    +0.008 A 
ATOM     23  C   UNL     1      11.676  -9.783  32.029  0.00  0.00    +0.008 A 
ATOM     26  C   UNL     1      10.497  -7.266  32.258  0.00  0.00    +0.046 A 
ATOM     27  C   UNL     1      10.324  -9.674  32.357  0.00  0.00    +0.046 A 
ATOM     30  C   UNL     1       9.735  -8.414  32.471  0.00  0.00    +0.120 A 
BRANCH  30   4
ATOM      4  O   UNL     1       8.416  -8.307  32.790  0.00  0.00    -0.495 OA
ATOM     31  C   UNL     1       7.499  -9.091  32.030  0.00  0.00    +0.277 C 
ENDBRANCH  30   4
ENDBRANCH  17  20
ENDBRANCH   6  17
TORSDOF 6
ENDMDL
MODEL 2
REMARK VINA RESULT:      -2.8      2.381      3.730
REMARK  Name = 45361078
REMARK  8 active torsions:
REMARK  status: ('A' for Active; 'I' for Inactive)
REMARK    1  A    between atoms: O_4  and  C_30
REMARK    2  A    between atoms: O_4  and  C_31
REMARK    3  A    between atoms: N_5  and  C_18
REMARK    4  A    between atoms: N_6  and  C_17
REMARK    5  A    between atoms: C_13  and  C_16
REMARK    6  A    between atoms: C_16  and  C_19
REMARK    7  A    between atoms: C_17  and  C_20
REMARK    8  A    between atoms: C_19  and  C_21
REMARK                            x       y       z     vdW  Elec       q    Type
REMARK                         _______ _______ _______ _____ _____    ______ ____
ROOT
ATOM      1  O   UNL     1      13.296  -6.335  29.546  0.00  0.00    -0.274 OA
ATOM      5  N   UNL     1      15.829  -8.776  27.929  0.00  0.00    -0.296 NA
ATOM      6  N   UNL     1      13.940  -8.484  31.050  0.00  0.00    -0.286 NA
ATOM      7  N   UNL     1      15.405  -6.032  28.713  0.00  0.00    -0.312 N 
ATOM      9  C   UNL     1      15.598  -9.041  29.366  0.00  0.00    +0.084 C 
ATOM     10  C   UNL     1      15.029  -7.892  30.250  0.00  0.00    +0.161 C 
ATOM     11  C   UNL     1      14.597 -10.180  29.639  0.00  0.00    +0.036 C 
ATOM     12  C   UNL     1      14.155  -9.926  31.064  0.00  0.00    +0.087 C 
ATOM     13  C   UNL     1      16.857  -7.735  27.652  0.00  0.00    +0.074 C 
ATOM     14  C   UNL     1      14.468  -6.700  29.478  0.00  0.00    +0.232 C 
ATOM     15  C   UNL     1      16.772  -6.483  28.548  0.00  0.00    +0.123 C 
ATOM     18  C   UNL     1      16.156 -10.020  27.213  0.00  0.00    +0.105 C 
ATOM     32  H   UNL     1      15.114  -5.183  28.237  0.00  0.00    +0.149 HD
ENDROOT
BRANCH  13  16
ATOM     16  C   UNL     1      16.766  -7.263  26.186  0.00  0.00    +0.029 C 
BRANCH  16  19
ATOM     19  C   UNL     1      17.404  -5.902  25.988  0.00  0.00    +0.097 C 
BRANCH  19  21
ATOM      2  O   UNL     1      17.400  -6.358  23.661  0.00  0.00    -0.276 OA
ATOM      3  O   UNL     1      16.439  -1.507  23.696  0.00  0.00    -0.377 OA
ATOM      8  N   UNL     1      17.310  -4.122  24.280  0.00  0.00    -0.297 N 
ATOM     21  C   UNL     1      17.374  -5.490  24.537  0.00  0.00    +0.216 C 
ATOM     24  C   UNL     1      17.272  -3.638  22.900  0.00  0.00    +0.136 C 
ATOM     25  C   UNL     1      17.405  -3.062  25.289  0.00  0.00    +0.136 C 
ATOM     28  C   UNL     1      16.213  -2.555  22.749  0.00  0.00    +0.179 C 
ATOM     29  C   UNL     1      16.344  -1.998  25.036  0.00  0.00    +0.179 C 
ENDBRANCH  19  21
ENDBRANCH  16  19
ENDBRANCH  13  16
BRANCH   6  17
ATOM     17  C   UNL     1      13.845  -7.929  32.394  0.00  0.00    +0.120 C 
BRANCH  17  20
ATOM     20  C   UNL     1      14.515  -6.585  32.495  0.00  0.00    -0.033 A 
ATOM     22  C   UNL     1      15.907  -6.502  32.545  0.00  0.00    +0.008 A 
ATOM     23  C   UNL     1      13.746  -5.424  32.539  0.00  0.00    +0.008 A 
ATOM     26  C   UNL     1      16.528  -5.257  32.638  0.00  0.00    +0.046 A 
ATOM     27  C   UNL     1      14.367  -4.178  32.632  0.00  0.00    +0.046 A 
ATOM     30  C   UNL     1      15.759  -4.095  32.682  0.00  0.00    +0.120 A 
BRANCH  30   4
ATOM      4  O   UNL     1      16.364  -2.880  32.772  0.00  0.00    -0.495 OA
ATOM     31  C   UNL     1      16.428  -2.096  31.582  0.00  0.00    +0.277 C 
ENDBRANCH  30   4
ENDBRANCH  17  20
ENDBRANCH   6  17
TORSDOF 6
ENDMDL
MODEL 3
REMARK VINA RESULT:      -2.7      1.475      1.963
REMARK  Name = 45361078
REMARK  8 active torsions:
REMARK  status: ('A' for Active; 'I' for Inactive)
REMARK    1  A    between atoms: O_4  and  C_30
REMARK    2  A    between atoms: O_4  and  C_31
REMARK    3  A    between atoms: N_5  and  C_18
REMARK    4  A    between atoms: N_6  and  C_17
REMARK    5  A    between atoms: C_13  and  C_16
REMARK    6  A    between atoms: C_16  and  C_19
REMARK    7  A    between atoms: C_17  and  C_20
REMARK    8  A    between atoms: C_19  and  C_21
REMARK                            x       y       z     vdW  Elec       q    Type
REMARK                         _______ _______ _______ _____ _____    ______ ____
ROOT
ATOM      1  O   UNL     1      13.508  -6.312  29.318  0.00  0.00    -0.274 OA
ATOM      5  N   UNL     1      15.694  -8.904  27.450  0.00  0.00    -0.296 NA
ATOM      6  N   UNL     1      13.907  -8.637  30.632  0.00  0.00    -0.286 NA
ATOM      7  N   UNL     1      15.625  -6.201  28.457  0.00  0.00    -0.312 N 
ATOM      9  C   UNL     1      15.456  -9.254  28.867  0.00  0.00    +0.084 C 
ATOM     10  C   UNL     1      15.047  -8.120  29.853  0.00  0.00    +0.161 C 
ATOM     11  C   UNL     1      14.327 -10.281  29.076  0.00  0.00    +0.036 C 
ATOM     12  C   UNL     1      13.943 -10.092  30.528  0.00  0.00    +0.087 C 
ATOM     13  C   UNL     1      16.839  -7.977  27.228  0.00  0.00    +0.074 C 
ATOM     14  C   UNL     1      14.625  -6.811  29.191  0.00  0.00    +0.232 C 
ATOM     15  C   UNL     1      16.923  -6.801  28.221  0.00  0.00    +0.123 C 
ATOM     18  C   UNL     1      15.854 -10.117  26.630  0.00  0.00    +0.105 C 
ATOM     32  H   UNL     1      15.433  -5.288  28.056  0.00  0.00    +0.149 HD
ENDROOT
BRANCH  13  16
ATOM     16  C   UNL     1      16.782  -7.381  25.806  0.00  0.00    +0.029 C 
BRANCH  16  19
ATOM     19  C   UNL     1      17.368  -5.983  25.754  0.00  0.00    +0.097 C 
BRANCH  19  21
ATOM      2  O   UNL     1      17.233  -6.161  23.394  0.00  0.00    -0.276 OA
ATOM      3  O   UNL     1      16.390  -1.332  24.048  0.00  0.00    -0.377 OA
ATOM      8  N   UNL     1      17.228  -4.012  24.274  0.00  0.00    -0.297 N 
ATOM     21  C   UNL     1      17.272  -5.402  24.366  0.00  0.00    +0.216 C 
ATOM     24  C   UNL     1      17.131  -3.368  22.965  0.00  0.00    +0.136 C 
ATOM     25  C   UNL     1      17.400  -3.081  25.394  0.00  0.00    +0.136 C 
ATOM     28  C   UNL     1      16.091  -2.256  22.999  0.00  0.00    +0.179 C 
ATOM     29  C   UNL     1      16.353  -1.975  25.325  0.00  0.00    +0.179 C 
ENDBRANCH  19  21
ENDBRANCH  16  19
ENDBRANCH  13  16
BRANCH   6  17
ATOM     17  C   UNL     1      13.903  -8.186  32.018  0.00  0.00    +0.120 C 
BRANCH  17  20
ATOM     20  C   UNL     1      12.902  -7.085  32.245  0.00  0.00    -0.033 A 
ATOM     22  C   UNL     1      13.319  -5.754  32.252  0.00  0.00    +0.008 A 
ATOM     23  C   UNL     1      11.558  -7.395  32.450  0.00  0.00    +0.008 A 
ATOM     26  C   UNL     1      12.391  -4.734  32.463  0.00  0.00    +0.046 A 
ATOM     27  C   UNL     1      10.630  -6.375  32.661  0.00  0.00    +0.046 A 
ATOM     30  C   UNL     1      11.047  -5.044  32.667  0.00  0.00    +0.120 A 
BRANCH  30   4
ATOM      4  O   UNL     1      10.142  -4.049  32.872  0.00  0.00    -0.495 OA
ATOM     31  C   UNL     1      10.012  -3.067  31.846  0.00  0.00    +0.277 C 
ENDBRANCH  30   4
ENDBRANCH  17  20
ENDBRANCH   6  17
TORSDOF 6
ENDMDL
