MODEL 1
REMARK VINA RESULT:      -1.7      0.000      0.000
REMARK  Name = 7142730
REMARK  5 active torsions:
REMARK  status: ('A' for Active; 'I' for Inactive)
REMARK    1  A    between atoms: O_4  and  C_21
REMARK    2  A    between atoms: O_4  and  C_23
REMARK    3  A    between atoms: N_8  and  C_19
REMARK    4  A    between atoms: C_18  and  C_21
REMARK    5  A    between atoms: C_22  and  C_24
REMARK                            x       y       z     vdW  Elec       q    Type
REMARK                         _______ _______ _______ _____ _____    ______ ____
ROOT
ATOM      2  O   UNL     1       0.042   2.344  26.043  0.00  0.00    -0.266 OA
ATOM      3  O   UNL     1      -4.742   0.015  26.649  0.00  0.00    -0.272 OA
ATOM      6  N   UNL     1      -4.861   1.757  25.116  0.00  0.00    -0.298 N 
ATOM      7  N   UNL     1      -1.877   2.868  24.817  0.00  0.00    -0.310 N 
ATOM      9  C   UNL     1      -3.941   3.954  25.873  0.00  0.00    +0.027 C 
ATOM     10  C   UNL     1      -3.946   3.394  23.480  0.00  0.00    +0.054 C 
ATOM     11  C   UNL     1      -4.182   4.522  24.480  0.00  0.00    +0.018 C 
ATOM     12  C   UNL     1      -4.906   2.789  26.155  0.00  0.00    +0.113 C 
ATOM     13  C   UNL     1      -2.472   3.526  25.988  0.00  0.00    +0.130 C 
ATOM     14  C   UNL     1      -4.954   2.255  23.736  0.00  0.00    +0.117 C 
ATOM     15  C   UNL     1      -2.529   2.859  23.581  0.00  0.00    +0.027 A 
ATOM     16  C   UNL     1      -1.917   2.355  22.497  0.00  0.00    +0.024 A 
ATOM     17  C   UNL     1      -0.579   2.343  24.980  0.00  0.00    +0.273 A 
ATOM     18  C   UNL     1      -4.820   0.412  25.483  0.00  0.00    +0.253 C 
ATOM     19  C   UNL     1       0.059   1.768  23.753  0.00  0.00    +0.099 A 
ATOM     20  C   UNL     1      -0.597   1.798  22.588  0.00  0.00    +0.030 A 
ENDROOT
BRANCH  19   8
ATOM      5  O   UNL     1       1.221  -0.204  22.047  0.00  0.00    -0.269 OA
ATOM      8  N   UNL     1       1.311   1.238  23.871  0.00  0.00    -0.277 N 
ATOM     22  C   UNL     1       1.819   0.278  23.006  0.00  0.00    +0.255 C 
ATOM     33  H   UNL     1       1.811   1.422  24.737  0.00  0.00    +0.155 HD
BRANCH  22  24
ATOM      1  S   UNL     1       4.452   0.917  22.917  0.00  0.00    -0.092 S 
ATOM     24  C   UNL     1       3.212  -0.162  23.281  0.00  0.00    +0.074 A 
ATOM     27  C   UNL     1       3.595  -1.341  23.794  0.00  0.00    +0.021 A 
ATOM     30  C   UNL     1       5.015  -1.385  23.907  0.00  0.00    +0.008 A 
ATOM     32  C   UNL     1       5.607  -0.222  23.466  0.00  0.00    +0.046 A 
ENDBRANCH  22  24
ENDBRANCH  19   8
BRANCH  18  21
ATOM     21  C   UNL     1      -4.870  -0.595  24.363  0.00  0.00    +0.324 C 
BRANCH  21   4
ATOM      4  O   UNL     1      -4.275  -1.773  24.853  0.00  0.00    -0.483 OA
BRANCH   4  23
ATOM     23  C   UNL     1      -2.900  -1.802  24.934  0.00  0.00    +0.121 A 
ATOM     25  C   UNL     1      -2.251  -0.945  25.809  0.00  0.00    +0.045 A 
ATOM     26  C   UNL     1      -2.191  -2.688  24.137  0.00  0.00    +0.045 A 
ATOM     28  C   UNL     1      -0.859  -0.973  25.890  0.00  0.00    +0.004 A 
ATOM     29  C   UNL     1      -0.798  -2.716  24.218  0.00  0.00    +0.004 A 
ATOM     31  C   UNL     1      -0.132  -1.859  25.095  0.00  0.00    +0.000 A 
ENDBRANCH   4  23
ENDBRANCH  21   4
ENDBRANCH  18  21
TORSDOF 5
ENDMDL
