MODEL 1
REMARK VINA RESULT:       2.4      0.000      0.000
REMARK  Name = 7051869
REMARK  5 active torsions:
REMARK  status: ('A' for Active; 'I' for Inactive)
REMARK    1  A    between atoms: N_3  and  C_15
REMARK    2  A    between atoms: N_5  and  C_26
REMARK    3  A    between atoms: N_6  and  C_19
REMARK    4  A    between atoms: C_15  and  C_18
REMARK    5  A    between atoms: C_28  and  C_30
REMARK                            x       y       z     vdW  Elec       q    Type
REMARK                         _______ _______ _______ _____ _____    ______ ____
ROOT
ATOM      1  O   UNL     1       0.536   2.361  26.233  0.00  0.00    -0.266 OA
ATOM      3  N   UNL     1      -4.349   1.904  25.206  0.00  0.00    -0.297 NA
ATOM      4  N   UNL     1      -1.378   3.063  25.093  0.00  0.00    -0.310 N 
ATOM      8  C   UNL     1      -3.451   3.981  26.287  0.00  0.00    +0.024 C 
ATOM      9  C   UNL     1      -3.440   3.792  23.845  0.00  0.00    +0.050 C 
ATOM     10  C   UNL     1      -3.662   4.766  24.999  0.00  0.00    +0.017 C 
ATOM     11  C   UNL     1      -4.451   2.807  26.359  0.00  0.00    +0.090 C 
ATOM     12  C   UNL     1      -4.465   2.639  23.937  0.00  0.00    +0.094 C 
ATOM     13  C   UNL     1      -1.990   3.516  26.349  0.00  0.00    +0.130 C 
ATOM     14  C   UNL     1      -2.024   3.248  23.866  0.00  0.00    +0.026 A 
ATOM     16  C   UNL     1      -1.402   2.925  22.719  0.00  0.00    +0.024 A 
ATOM     17  C   UNL     1      -0.078   2.527  25.178  0.00  0.00    +0.273 A 
ATOM     19  C   UNL     1       0.573   2.160  23.880  0.00  0.00    +0.099 A 
ATOM     20  C   UNL     1      -0.078   2.369  22.730  0.00  0.00    +0.030 A 
ENDROOT
BRANCH  19   6
ATOM      2  O   UNL     1       1.430  -0.229  22.574  0.00  0.00    -0.270 OA
ATOM      6  N   UNL     1       1.826   1.626  23.920  0.00  0.00    -0.277 N 
ATOM     28  C   UNL     1       2.183   0.457  23.261  0.00  0.00    +0.248 C 
ATOM     35  H   UNL     1       2.457   2.054  24.589  0.00  0.00    +0.155 HD
BRANCH  28  30
ATOM      7  N   UNL     1       6.243  -0.723  23.672  0.00  0.00    -0.263 NA
ATOM     30  C   UNL     1       3.603   0.044  23.404  0.00  0.00    +0.040 A 
ATOM     31  C   UNL     1       4.592   0.969  23.170  0.00  0.00    +0.033 A 
ATOM     32  C   UNL     1       3.886  -1.251  23.767  0.00  0.00    +0.033 A 
ATOM     33  C   UNL     1       5.900   0.535  23.318  0.00  0.00    +0.111 A 
ATOM     34  C   UNL     1       5.225  -1.586  23.888  0.00  0.00    +0.111 A 
ENDBRANCH  28  30
ENDBRANCH  19   6
BRANCH   3  15
ATOM     15  C   UNL     1      -5.344   0.838  25.287  0.00  0.00    +0.121 C 
BRANCH  15  18
ATOM      5  N   UNL     1      -4.571  -2.439  23.875  0.00  0.00    -0.349 N 
ATOM     18  C   UNL     1      -4.762  -0.464  24.810  0.00  0.00    -0.008 A 
ATOM     21  C   UNL     1      -3.434  -0.886  25.003  0.00  0.00    +0.004 A 
ATOM     22  C   UNL     1      -5.446  -1.417  24.121  0.00  0.00    +0.091 A 
ATOM     23  C   UNL     1      -3.334  -2.143  24.401  0.00  0.00    +0.049 A 
ATOM     24  C   UNL     1      -2.294  -0.340  25.625  0.00  0.00    +0.010 A 
ATOM     25  C   UNL     1      -2.146  -2.884  24.391  0.00  0.00    +0.026 A 
ATOM     26  C   UNL     1      -4.912  -3.651  23.159  0.00  0.00    +0.149 C 
ATOM     27  C   UNL     1      -1.099  -1.071  25.624  0.00  0.00    +0.001 A 
ATOM     29  C   UNL     1      -1.029  -2.322  25.015  0.00  0.00    +0.002 A 
ENDBRANCH  15  18
ENDBRANCH   3  15
TORSDOF 4
ENDMDL
