MODEL 1
REMARK VINA RESULT:      -2.9      0.000      0.000
REMARK  Name = 75368519
REMARK  7 active torsions:
REMARK  status: ('A' for Active; 'I' for Inactive)
REMARK    1  A    between atoms: O_3  and  C_24
REMARK    2  A    between atoms: N_6  and  C_14
REMARK    3  A    between atoms: C_14  and  C_16
REMARK    4  A    between atoms: C_15  and  C_17
REMARK    5  A    between atoms: C_17  and  C_18
REMARK    6  A    between atoms: C_18  and  C_24
REMARK    7  A    between atoms: C_23  and  C_25
REMARK                            x       y       z     vdW  Elec       q    Type
REMARK                         _______ _______ _______ _____ _____    ______ ____
ROOT
ATOM      1  O   UNL     1      -4.012 -10.634  13.689  0.00  0.00    -0.252 OA
ATOM      2  O   UNL     1      -9.793  -8.665  10.349  0.00  0.00    -0.276 OA
ATOM      5  N   UNL     1      -5.384  -9.784  11.982  0.00  0.00    -0.278 N 
ATOM      6  N   UNL     1      -3.242 -10.253  11.493  0.00  0.00    -0.279 N 
ATOM      7  N   UNL     1      -7.651  -9.562  10.382  0.00  0.00    -0.298 N 
ATOM      8  C   UNL     1      -5.215  -9.332  10.612  0.00  0.00    +0.112 C 
ATOM      9  C   UNL     1      -3.831  -9.849  10.227  0.00  0.00    +0.133 C 
ATOM     10  C   UNL     1      -6.355  -9.848   9.737  0.00  0.00    +0.132 C 
ATOM     11  C   UNL     1      -6.663  -9.607  12.646  0.00  0.00    +0.128 C 
ATOM     12  C   UNL     1      -7.790 -10.101  11.743  0.00  0.00    +0.127 C 
ATOM     13  C   UNL     1      -4.190 -10.265  12.535  0.00  0.00    +0.306 C 
ATOM     15  C   UNL     1      -8.709  -8.869   9.797  0.00  0.00    +0.216 C 
ENDROOT
BRANCH   6  14
ATOM     14  C   UNL     1      -1.874 -10.711  11.589  0.00  0.00    +0.144 C 
BRANCH  14  16
ATOM     16  C   UNL     1      -0.912  -9.573  11.773  0.00  0.00    -0.030 A 
ATOM     19  C   UNL     1       0.026  -9.286  10.782  0.00  0.00    +0.005 A 
ATOM     20  C   UNL     1      -0.956  -8.805  12.937  0.00  0.00    +0.005 A 
ATOM     21  C   UNL     1       0.922  -8.231  10.956  0.00  0.00    +0.003 A 
ATOM     22  C   UNL     1      -0.060  -7.749  13.110  0.00  0.00    +0.003 A 
ATOM     23  C   UNL     1       0.878  -7.462  12.119  0.00  0.00    -0.050 A 
ATOM     25  C   UNL     1       1.837  -6.334  12.303  0.00  0.00    +0.044 C 
ENDBRANCH  14  16
ENDBRANCH   6  14
BRANCH  15  17
ATOM     17  C   UNL     1      -8.481  -8.347   8.401  0.00  0.00    +0.107 C 
BRANCH  17  18
ATOM     18  C   UNL     1      -9.374  -7.149   8.147  0.00  0.00    +0.129 C 
BRANCH  18  24
ATOM      4  O   UNL     1      -9.130  -4.770   8.497  0.00  0.00    -0.251 OA
ATOM     24  C   UNL     1      -8.608  -5.858   8.285  0.00  0.00    +0.305 C 
BRANCH  24   3
ATOM      3  O   UNL     1      -7.271  -6.024   8.124  0.00  0.00    -0.481 OA
ATOM     26  H   UNL     1      -6.978  -6.920   8.395  0.00  0.00    +0.295 HD
ENDBRANCH  24   3
ENDBRANCH  18  24
ENDBRANCH  17  18
ENDBRANCH  15  17
TORSDOF 6
ENDMDL
MODEL 2
REMARK VINA RESULT:      -2.3     15.573     17.338
REMARK  Name = 75368519
REMARK  7 active torsions:
REMARK  status: ('A' for Active; 'I' for Inactive)
REMARK    1  A    between atoms: O_3  and  C_24
REMARK    2  A    between atoms: N_6  and  C_14
REMARK    3  A    between atoms: C_14  and  C_16
REMARK    4  A    between atoms: C_15  and  C_17
REMARK    5  A    between atoms: C_17  and  C_18
REMARK    6  A    between atoms: C_18  and  C_24
REMARK    7  A    between atoms: C_23  and  C_25
REMARK                            x       y       z     vdW  Elec       q    Type
REMARK                         _______ _______ _______ _____ _____    ______ ____
ROOT
ATOM      1  O   UNL     1      -0.613  -2.286  24.026  0.00  0.00    -0.252 OA
ATOM      2  O   UNL     1      -5.394   2.253  26.261  0.00  0.00    -0.276 OA
ATOM      5  N   UNL     1      -1.682  -0.230  24.414  0.00  0.00    -0.278 N 
ATOM      6  N   UNL     1       0.026  -0.284  22.955  0.00  0.00    -0.279 N 
ATOM      7  N   UNL     1      -3.808   1.539  24.721  0.00  0.00    -0.298 N 
ATOM      8  C   UNL     1      -1.479   1.157  24.037  0.00  0.00    +0.112 C 
ATOM      9  C   UNL     1      -0.469   1.080  22.895  0.00  0.00    +0.133 C 
ATOM     10  C   UNL     1      -2.810   1.809  23.669  0.00  0.00    +0.132 C 
ATOM     11  C   UNL     1      -2.707  -0.571  25.383  0.00  0.00    +0.128 C 
ATOM     12  C   UNL     1      -4.020   0.114  25.013  0.00  0.00    +0.127 C 
ATOM     13  C   UNL     1      -0.738  -1.084  23.827  0.00  0.00    +0.306 C 
ATOM     15  C   UNL     1      -4.546   2.507  25.402  0.00  0.00    +0.216 C 
ENDROOT
BRANCH   6  14
ATOM     14  C   UNL     1       1.093  -0.750  22.098  0.00  0.00    +0.144 C 
BRANCH  14  16
ATOM     16  C   UNL     1       2.447  -0.404  22.646  0.00  0.00    -0.030 A 
ATOM     19  C   UNL     1       3.010   0.844  22.381  0.00  0.00    +0.005 A 
ATOM     20  C   UNL     1       3.143  -1.334  23.420  0.00  0.00    +0.005 A 
ATOM     21  C   UNL     1       4.269   1.162  22.888  0.00  0.00    +0.003 A 
ATOM     22  C   UNL     1       4.403  -1.015  23.928  0.00  0.00    +0.003 A 
ATOM     23  C   UNL     1       4.965   0.233  23.662  0.00  0.00    -0.050 A 
ATOM     25  C   UNL     1       6.312   0.576  24.203  0.00  0.00    +0.044 C 
ENDBRANCH  14  16
ENDBRANCH   6  14
BRANCH  15  17
ATOM     17  C   UNL     1      -4.263   3.943  25.044  0.00  0.00    +0.107 C 
BRANCH  17  18
ATOM     18  C   UNL     1      -3.370   4.570  26.096  0.00  0.00    +0.129 C 
BRANCH  18  24
ATOM      4  O   UNL     1      -1.373   5.291  24.942  0.00  0.00    -0.251 OA
ATOM     24  C   UNL     1      -1.918   4.494  25.695  0.00  0.00    +0.305 C 
BRANCH  24   3
ATOM      3  O   UNL     1      -1.280   3.428  26.240  0.00  0.00    -0.481 OA
ATOM     26  H   UNL     1      -0.306   3.503  26.159  0.00  0.00    +0.295 HD
ENDBRANCH  24   3
ENDBRANCH  18  24
ENDBRANCH  17  18
ENDBRANCH  15  17
TORSDOF 6
ENDMDL
MODEL 3
REMARK VINA RESULT:       0.7     16.017     17.737
REMARK  Name = 75368519
REMARK  7 active torsions:
REMARK  status: ('A' for Active; 'I' for Inactive)
REMARK    1  A    between atoms: O_3  and  C_24
REMARK    2  A    between atoms: N_6  and  C_14
REMARK    3  A    between atoms: C_14  and  C_16
REMARK    4  A    between atoms: C_15  and  C_17
REMARK    5  A    between atoms: C_17  and  C_18
REMARK    6  A    between atoms: C_18  and  C_24
REMARK    7  A    between atoms: C_23  and  C_25
REMARK                            x       y       z     vdW  Elec       q    Type
REMARK                         _______ _______ _______ _____ _____    ______ ____
ROOT
ATOM      1  O   UNL     1       2.015   1.770  24.231  0.00  0.00    -0.252 OA
ATOM      2  O   UNL     1      -3.674   5.032  26.562  0.00  0.00    -0.276 OA
ATOM      5  N   UNL     1      -0.238   2.418  24.393  0.00  0.00    -0.278 N 
ATOM      6  N   UNL     1       0.271   0.648  23.106  0.00  0.00    -0.279 N 
ATOM      7  N   UNL     1      -2.602   3.190  25.641  0.00  0.00    -0.298 N 
ATOM      8  C   UNL     1      -1.495   2.046  23.770  0.00  0.00    +0.112 C 
ATOM      9  C   UNL     1      -1.179   0.724  23.074  0.00  0.00    +0.133 C 
ATOM     10  C   UNL     1      -2.605   1.968  24.815  0.00  0.00    +0.132 C 
ATOM     11  C   UNL     1      -0.186   3.562  25.285  0.00  0.00    +0.128 C 
ATOM     12  C   UNL     1      -1.321   3.479  26.303  0.00  0.00    +0.127 C 
ATOM     13  C   UNL     1       0.832   1.633  23.943  0.00  0.00    +0.306 C 
ATOM     15  C   UNL     1      -3.696   4.029  25.845  0.00  0.00    +0.216 C 
ENDROOT
BRANCH   6  14
ATOM     14  C   UNL     1       0.996  -0.417  22.450  0.00  0.00    +0.144 C 
BRANCH  14  16
ATOM     16  C   UNL     1       2.467  -0.365  22.752  0.00  0.00    -0.030 A 
ATOM     19  C   UNL     1       3.044  -1.334  23.573  0.00  0.00    +0.005 A 
ATOM     20  C   UNL     1       3.254   0.652  22.213  0.00  0.00    +0.005 A 
ATOM     21  C   UNL     1       4.409  -1.283  23.855  0.00  0.00    +0.003 A 
ATOM     22  C   UNL     1       4.619   0.702  22.495  0.00  0.00    +0.003 A 
ATOM     23  C   UNL     1       5.196  -0.266  23.316  0.00  0.00    -0.050 A 
ATOM     25  C   UNL     1       6.656  -0.214  23.620  0.00  0.00    +0.044 C 
ENDBRANCH  14  16
ENDBRANCH   6  14
BRANCH  15  17
ATOM     17  C   UNL     1      -4.970   3.662  25.127  0.00  0.00    +0.107 C 
BRANCH  17  18
ATOM     18  C   UNL     1      -5.758   2.665  25.955  0.00  0.00    +0.129 C 
BRANCH  18  24
ATOM      4  O   UNL     1      -5.394   0.473  25.005  0.00  0.00    -0.251 OA
ATOM     24  C   UNL     1      -6.122   1.448  25.142  0.00  0.00    +0.305 C 
BRANCH  24   3
ATOM      3  O   UNL     1      -7.339   1.558  24.554  0.00  0.00    -0.481 OA
ATOM     26  H   UNL     1      -7.996   0.951  24.956  0.00  0.00    +0.295 HD
ENDBRANCH  24   3
ENDBRANCH  18  24
ENDBRANCH  17  18
ENDBRANCH  15  17
TORSDOF 6
ENDMDL
