MODEL 1
REMARK VINA RESULT:      -3.8      0.000      0.000
REMARK  Name = 71692999
REMARK  8 active torsions:
REMARK  status: ('A' for Active; 'I' for Inactive)
REMARK    1  A    between atoms: N_1  and  C_12
REMARK    2  A    between atoms: C_4  and  C_8
REMARK    3  A    between atoms: C_6  and  C_12
REMARK    4  A    between atoms: C_7  and  C_11
REMARK    5  A    between atoms: C_8  and  C_13
REMARK    6  A    between atoms: C_8  and  C_14
REMARK    7  A    between atoms: C_9  and  C_15
REMARK    8  A    between atoms: C_11  and  C_16
REMARK                            x       y       z     vdW  Elec       q    Type
REMARK                         _______ _______ _______ _____ _____    ______ ____
ROOT
ATOM      4  C   UNL     1      -3.539   0.243  23.854  0.00  0.00    +0.000 C 
ATOM      5  C   UNL     1      -2.277   0.630  23.072  0.00  0.00    +0.012 C 
ATOM      6  C   UNL     1      -3.890   1.333  24.892  0.00  0.00    +0.029 C 
ATOM      7  C   UNL     1      -1.053   0.890  23.976  0.00  0.00    +0.022 C 
ATOM      9  C   UNL     1      -1.406   1.630  25.258  0.00  0.00    -0.073 C 
ATOM     10  C   UNL     1      -2.680   1.828  25.644  0.00  0.00    -0.023 C 
ATOM     15  C   UNL     1      -0.269   2.092  26.129  0.00  0.00    +0.039 C 
ENDROOT
BRANCH   4   8
ATOM      8  C   UNL     1      -3.381  -1.132  24.518  0.00  0.00    -0.013 C 
ATOM     13  C   UNL     1      -4.275  -2.160  23.834  0.00  0.00    +0.007 C 
ATOM     14  C   UNL     1      -3.699  -1.043  26.008  0.00  0.00    +0.007 C 
ENDBRANCH   4   8
BRANCH   7  11
ATOM     11  C   UNL     1       0.023   1.607  23.150  0.00  0.00    +0.082 C 
BRANCH  11  16
ATOM      2  N   UNL     1       2.524   1.620  23.175  0.00  0.00    -0.342 N 
ATOM      3  N   UNL     1       1.561  -0.362  23.466  0.00  0.00    -0.232 NA
ATOM     16  C   UNL     1       1.353   0.920  23.268  0.00  0.00    +0.109 A 
ATOM     17  C   UNL     1       3.556   0.728  23.321  0.00  0.00    +0.066 A 
ATOM     18  C   UNL     1       2.929  -0.501  23.501  0.00  0.00    +0.089 A 
ATOM     19  C   UNL     1       4.942   0.888  23.311  0.00  0.00    +0.028 A 
ATOM     20  C   UNL     1       3.716  -1.650  23.683  0.00  0.00    +0.030 A 
ATOM     21  C   UNL     1       5.710  -0.267  23.494  0.00  0.00    +0.002 A 
ATOM     22  C   UNL     1       5.110  -1.514  23.677  0.00  0.00    +0.002 A 
ATOM     25  H   UNL     1       2.615   2.615  23.026  0.00  0.00    +0.167 HD
ENDBRANCH  11  16
ENDBRANCH   7  11
BRANCH   6  12
ATOM     12  C   UNL     1      -4.601   2.525  24.244  0.00  0.00    +0.085 C 
BRANCH  12   1
ATOM      1  N   UNL     1      -4.847   3.570  25.224  0.00  0.00    -0.329 NA
ATOM     23  H   UNL     1      -4.595   4.480  24.843  0.00  0.00    +0.118 HD
ATOM     24  H   UNL     1      -4.244   3.426  26.031  0.00  0.00    +0.118 HD
ENDBRANCH  12   1
ENDBRANCH   6  12
TORSDOF 5
ENDMDL
MODEL 2
REMARK VINA RESULT:      -3.4      1.721      3.113
REMARK  Name = 71692999
REMARK  8 active torsions:
REMARK  status: ('A' for Active; 'I' for Inactive)
REMARK    1  A    between atoms: N_1  and  C_12
REMARK    2  A    between atoms: C_4  and  C_8
REMARK    3  A    between atoms: C_6  and  C_12
REMARK    4  A    between atoms: C_7  and  C_11
REMARK    5  A    between atoms: C_8  and  C_13
REMARK    6  A    between atoms: C_8  and  C_14
REMARK    7  A    between atoms: C_9  and  C_15
REMARK    8  A    between atoms: C_11  and  C_16
REMARK                            x       y       z     vdW  Elec       q    Type
REMARK                         _______ _______ _______ _____ _____    ______ ____
ROOT
ATOM      4  C   UNL     1      -2.384   3.036  25.746  0.00  0.00    +0.000 C 
ATOM      5  C   UNL     1      -1.647   1.762  25.313  0.00  0.00    +0.012 C 
ATOM      6  C   UNL     1      -3.723   3.173  24.984  0.00  0.00    +0.029 C 
ATOM      7  C   UNL     1      -1.382   1.695  23.793  0.00  0.00    +0.022 C 
ATOM      9  C   UNL     1      -2.546   2.215  22.963  0.00  0.00    -0.073 C 
ATOM     10  C   UNL     1      -3.587   2.862  23.515  0.00  0.00    -0.023 C 
ATOM     15  C   UNL     1      -2.469   2.033  21.471  0.00  0.00    +0.039 C 
ENDROOT
BRANCH   4   8
ATOM      8  C   UNL     1      -1.503   4.278  25.557  0.00  0.00    -0.013 C 
ATOM     13  C   UNL     1      -2.311   5.414  24.939  0.00  0.00    +0.007 C 
ATOM     14  C   UNL     1      -0.291   3.945  24.693  0.00  0.00    +0.007 C 
ENDBRANCH   4   8
BRANCH   7  11
ATOM     11  C   UNL     1      -0.983   0.259  23.428  0.00  0.00    +0.082 C 
BRANCH  11  16
ATOM      2  N   UNL     1       1.333   1.115  23.029  0.00  0.00    -0.342 N 
ATOM      3  N   UNL     1       1.184  -0.988  23.733  0.00  0.00    -0.232 NA
ATOM     16  C   UNL     1       0.510   0.092  23.409  0.00  0.00    +0.109 A 
ATOM     17  C   UNL     1       2.626   0.664  23.114  0.00  0.00    +0.066 A 
ATOM     18  C   UNL     1       2.505  -0.650  23.555  0.00  0.00    +0.089 A 
ATOM     19  C   UNL     1       3.852   1.275  22.849  0.00  0.00    +0.028 A 
ATOM     20  C   UNL     1       3.668  -1.416  23.750  0.00  0.00    +0.030 A 
ATOM     21  C   UNL     1       4.999   0.498  23.049  0.00  0.00    +0.002 A 
ATOM     22  C   UNL     1       4.910  -0.823  23.491  0.00  0.00    +0.002 A 
ATOM     25  H   UNL     1       1.044   2.039  22.739  0.00  0.00    +0.167 HD
ENDBRANCH  11  16
ENDBRANCH   7  11
BRANCH   6  12
ATOM     12  C   UNL     1      -4.813   2.281  25.588  0.00  0.00    +0.085 C 
BRANCH  12   1
ATOM      1  N   UNL     1      -5.956   3.077  26.001  0.00  0.00    -0.329 NA
ATOM     23  H   UNL     1      -6.688   2.478  26.377  0.00  0.00    +0.118 HD
ATOM     24  H   UNL     1      -6.360   3.536  25.186  0.00  0.00    +0.118 HD
ENDBRANCH  12   1
ENDBRANCH   6  12
TORSDOF 5
ENDMDL
MODEL 3
REMARK VINA RESULT:      -3.3      3.125      5.404
REMARK  Name = 71692999
REMARK  8 active torsions:
REMARK  status: ('A' for Active; 'I' for Inactive)
REMARK    1  A    between atoms: N_1  and  C_12
REMARK    2  A    between atoms: C_4  and  C_8
REMARK    3  A    between atoms: C_6  and  C_12
REMARK    4  A    between atoms: C_7  and  C_11
REMARK    5  A    between atoms: C_8  and  C_13
REMARK    6  A    between atoms: C_8  and  C_14
REMARK    7  A    between atoms: C_9  and  C_15
REMARK    8  A    between atoms: C_11  and  C_16
REMARK                            x       y       z     vdW  Elec       q    Type
REMARK                         _______ _______ _______ _____ _____    ______ ____
ROOT
ATOM      4  C   UNL     1      -2.528   4.418  25.819  0.00  0.00    +0.000 C 
ATOM      5  C   UNL     1      -1.366   3.425  25.943  0.00  0.00    +0.012 C 
ATOM      6  C   UNL     1      -3.716   3.772  25.069  0.00  0.00    +0.029 C 
ATOM      7  C   UNL     1      -0.879   2.881  24.582  0.00  0.00    +0.022 C 
ATOM      9  C   UNL     1      -2.017   2.597  23.613  0.00  0.00    -0.073 C 
ATOM     10  C   UNL     1      -3.279   2.994  23.854  0.00  0.00    -0.023 C 
ATOM     15  C   UNL     1      -1.673   1.899  22.325  0.00  0.00    +0.039 C 
ENDROOT
BRANCH   4   8
ATOM      8  C   UNL     1      -2.078   5.718  25.139  0.00  0.00    -0.013 C 
ATOM     13  C   UNL     1      -2.947   6.010  23.921  0.00  0.00    +0.007 C 
ATOM     14  C   UNL     1      -0.606   5.631  24.745  0.00  0.00    +0.007 C 
ENDBRANCH   4   8
BRANCH   7  11
ATOM     11  C   UNL     1       0.010   1.656  24.834  0.00  0.00    +0.082 C 
BRANCH  11  16
ATOM      2  N   UNL     1      -2.003   0.274  25.376  0.00  0.00    -0.342 N 
ATOM      3  N   UNL     1      -0.433  -0.732  24.166  0.00  0.00    -0.232 NA
ATOM     16  C   UNL     1      -0.782   0.382  24.771  0.00  0.00    +0.109 A 
ATOM     17  C   UNL     1      -2.474  -0.993  25.145  0.00  0.00    +0.066 A 
ATOM     18  C   UNL     1      -1.476  -1.600  24.389  0.00  0.00    +0.089 A 
ATOM     19  C   UNL     1      -3.651  -1.640  25.523  0.00  0.00    +0.028 A 
ATOM     20  C   UNL     1      -1.646  -2.933  23.976  0.00  0.00    +0.030 A 
ATOM     21  C   UNL     1      -3.803  -2.966  25.103  0.00  0.00    +0.002 A 
ATOM     22  C   UNL     1      -2.820  -3.602  24.343  0.00  0.00    +0.002 A 
ATOM     25  H   UNL     1      -2.477   0.999  25.898  0.00  0.00    +0.167 HD
ENDBRANCH  11  16
ENDBRANCH   7  11
BRANCH   6  12
ATOM     12  C   UNL     1      -4.535   2.857  25.986  0.00  0.00    +0.085 C 
BRANCH  12   1
ATOM      1  N   UNL     1      -5.953   3.149  25.867  0.00  0.00    -0.329 NA
ATOM     23  H   UNL     1      -6.122   4.144  25.997  0.00  0.00    +0.118 HD
ATOM     24  H   UNL     1      -6.459   2.678  26.616  0.00  0.00    +0.118 HD
ENDBRANCH  12   1
ENDBRANCH   6  12
TORSDOF 5
ENDMDL
MODEL 4
REMARK VINA RESULT:      -3.3      2.380      3.355
REMARK  Name = 71692999
REMARK  8 active torsions:
REMARK  status: ('A' for Active; 'I' for Inactive)
REMARK    1  A    between atoms: N_1  and  C_12
REMARK    2  A    between atoms: C_4  and  C_8
REMARK    3  A    between atoms: C_6  and  C_12
REMARK    4  A    between atoms: C_7  and  C_11
REMARK    5  A    between atoms: C_8  and  C_13
REMARK    6  A    between atoms: C_8  and  C_14
REMARK    7  A    between atoms: C_9  and  C_15
REMARK    8  A    between atoms: C_11  and  C_16
REMARK                            x       y       z     vdW  Elec       q    Type
REMARK                         _______ _______ _______ _____ _____    ______ ____
ROOT
ATOM      4  C   UNL     1      -4.277   2.085  24.983  0.00  0.00    +0.000 C 
ATOM      5  C   UNL     1      -2.944   1.754  25.668  0.00  0.00    +0.012 C 
ATOM      6  C   UNL     1      -4.035   2.914  23.701  0.00  0.00    +0.029 C 
ATOM      7  C   UNL     1      -2.108   3.004  26.016  0.00  0.00    +0.022 C 
ATOM      9  C   UNL     1      -2.158   4.073  24.934  0.00  0.00    -0.073 C 
ATOM     10  C   UNL     1      -3.018   4.009  23.902  0.00  0.00    -0.023 C 
ATOM     15  C   UNL     1      -1.241   5.257  25.086  0.00  0.00    +0.039 C 
ENDROOT
BRANCH   4   8
ATOM      8  C   UNL     1      -5.231   2.805  25.945  0.00  0.00    -0.013 C 
ATOM     13  C   UNL     1      -6.373   1.881  26.353  0.00  0.00    +0.007 C 
ATOM     14  C   UNL     1      -5.770   4.081  25.304  0.00  0.00    +0.007 C 
ENDBRANCH   4   8
BRANCH   7  11
ATOM     11  C   UNL     1      -0.678   2.560  26.350  0.00  0.00    +0.082 C 
BRANCH  11  16
ATOM      2  N   UNL     1       1.215   2.066  24.792  0.00  0.00    -0.342 N 
ATOM      3  N   UNL     1      -0.619   0.843  24.509  0.00  0.00    -0.232 NA
ATOM     16  C   UNL     1      -0.059   1.802  25.211  0.00  0.00    +0.109 A 
ATOM     17  C   UNL     1       1.494   1.222  23.748  0.00  0.00    +0.066 A 
ATOM     18  C   UNL     1       0.334   0.469  23.591  0.00  0.00    +0.089 A 
ATOM     19  C   UNL     1       2.629   1.057  22.952  0.00  0.00    +0.028 A 
ATOM     20  C   UNL     1       0.285  -0.510  22.585  0.00  0.00    +0.030 A 
ATOM     21  C   UNL     1       2.562   0.078  21.955  0.00  0.00    +0.002 A 
ATOM     22  C   UNL     1       1.412  -0.693  21.774  0.00  0.00    +0.002 A 
ATOM     25  H   UNL     1       1.841   2.759  25.180  0.00  0.00    +0.167 HD
ENDBRANCH  11  16
ENDBRANCH   7  11
BRANCH   6  12
ATOM     12  C   UNL     1      -3.599   2.031  22.528  0.00  0.00    +0.085 C 
BRANCH  12   1
ATOM      1  N   UNL     1      -2.217   2.303  22.168  0.00  0.00    -0.329 NA
ATOM     23  H   UNL     1      -1.589   1.703  22.699  0.00  0.00    +0.118 HD
ATOM     24  H   UNL     1      -1.981   3.258  22.430  0.00  0.00    +0.118 HD
ENDBRANCH  12   1
ENDBRANCH   6  12
TORSDOF 5
ENDMDL
MODEL 5
REMARK VINA RESULT:      -2.7      2.032      3.186
REMARK  Name = 71692999
REMARK  8 active torsions:
REMARK  status: ('A' for Active; 'I' for Inactive)
REMARK    1  A    between atoms: N_1  and  C_12
REMARK    2  A    between atoms: C_4  and  C_8
REMARK    3  A    between atoms: C_6  and  C_12
REMARK    4  A    between atoms: C_7  and  C_11
REMARK    5  A    between atoms: C_8  and  C_13
REMARK    6  A    between atoms: C_8  and  C_14
REMARK    7  A    between atoms: C_9  and  C_15
REMARK    8  A    between atoms: C_11  and  C_16
REMARK                            x       y       z     vdW  Elec       q    Type
REMARK                         _______ _______ _______ _____ _____    ______ ____
ROOT
ATOM      4  C   UNL     1      -1.604   2.748  24.627  0.00  0.00    +0.000 C 
ATOM      5  C   UNL     1      -1.124   1.880  23.456  0.00  0.00    +0.012 C 
ATOM      6  C   UNL     1      -0.895   2.330  25.936  0.00  0.00    +0.029 C 
ATOM      7  C   UNL     1      -1.331   0.368  23.690  0.00  0.00    +0.022 C 
ATOM      9  C   UNL     1      -1.032  -0.059  25.120  0.00  0.00    -0.073 C 
ATOM     10  C   UNL     1      -0.829   0.834  26.107  0.00  0.00    -0.023 C 
ATOM     15  C   UNL     1      -1.028  -1.533  25.418  0.00  0.00    +0.039 C 
ENDROOT
BRANCH   4   8
ATOM      8  C   UNL     1      -3.130   2.690  24.773  0.00  0.00    -0.013 C 
ATOM     13  C   UNL     1      -3.803   2.932  23.427  0.00  0.00    +0.007 C 
ATOM     14  C   UNL     1      -3.606   3.707  25.806  0.00  0.00    +0.007 C 
ENDBRANCH   4   8
BRANCH   7  11
ATOM     11  C   UNL     1      -0.508  -0.406  22.653  0.00  0.00    +0.082 C 
BRANCH  11  16
ATOM      2  N   UNL     1       1.730  -1.250  23.385  0.00  0.00    -0.342 N 
ATOM      3  N   UNL     1       1.677   0.846  22.649  0.00  0.00    -0.232 NA
ATOM     16  C   UNL     1       0.966  -0.234  22.883  0.00  0.00    +0.109 A 
ATOM     17  C   UNL     1       3.020  -0.795  23.481  0.00  0.00    +0.066 A 
ATOM     18  C   UNL     1       2.961   0.515  23.016  0.00  0.00    +0.089 A 
ATOM     19  C   UNL     1       4.198  -1.400  23.923  0.00  0.00    +0.028 A 
ATOM     20  C   UNL     1       4.137   1.283  22.982  0.00  0.00    +0.030 A 
ATOM     21  C   UNL     1       5.359  -0.620  23.882  0.00  0.00    +0.002 A 
ATOM     22  C   UNL     1       5.331   0.697  23.420  0.00  0.00    +0.002 A 
ATOM     25  H   UNL     1       1.405  -2.173  23.639  0.00  0.00    +0.167 HD
ENDBRANCH  11  16
ENDBRANCH   7  11
BRANCH   6  12
ATOM     12  C   UNL     1       0.520   2.910  26.025  0.00  0.00    +0.085 C 
BRANCH  12   1
ATOM      1  N   UNL     1       1.141   2.553  27.289  0.00  0.00    -0.329 NA
ATOM     23  H   UNL     1       1.947   1.951  27.131  0.00  0.00    +0.118 HD
ATOM     24  H   UNL     1       0.487   2.007  27.846  0.00  0.00    +0.118 HD
ENDBRANCH  12   1
ENDBRANCH   6  12
TORSDOF 5
ENDMDL
MODEL 6
REMARK VINA RESULT:      -2.7      3.531      5.878
REMARK  Name = 71692999
REMARK  8 active torsions:
REMARK  status: ('A' for Active; 'I' for Inactive)
REMARK    1  A    between atoms: N_1  and  C_12
REMARK    2  A    between atoms: C_4  and  C_8
REMARK    3  A    between atoms: C_6  and  C_12
REMARK    4  A    between atoms: C_7  and  C_11
REMARK    5  A    between atoms: C_8  and  C_13
REMARK    6  A    between atoms: C_8  and  C_14
REMARK    7  A    between atoms: C_9  and  C_15
REMARK    8  A    between atoms: C_11  and  C_16
REMARK                            x       y       z     vdW  Elec       q    Type
REMARK                         _______ _______ _______ _____ _____    ______ ____
ROOT
ATOM      4  C   UNL     1      -0.847   3.582  24.228  0.00  0.00    +0.000 C 
ATOM      5  C   UNL     1      -2.023   2.802  23.626  0.00  0.00    +0.012 C 
ATOM      6  C   UNL     1      -0.878   3.504  25.772  0.00  0.00    +0.029 C 
ATOM      7  C   UNL     1      -3.399   3.280  24.136  0.00  0.00    +0.022 C 
ATOM      9  C   UNL     1      -3.398   3.623  25.619  0.00  0.00    -0.073 C 
ATOM     10  C   UNL     1      -2.262   3.707  26.334  0.00  0.00    -0.023 C 
ATOM     15  C   UNL     1      -4.724   3.929  26.261  0.00  0.00    +0.039 C 
ENDROOT
BRANCH   4   8
ATOM      8  C   UNL     1      -0.840   5.038  23.742  0.00  0.00    -0.013 C 
ATOM     13  C   UNL     1       0.385   5.302  22.872  0.00  0.00    +0.007 C 
ATOM     14  C   UNL     1      -0.877   5.996  24.928  0.00  0.00    +0.007 C 
ENDBRANCH   4   8
BRANCH   7  11
ATOM     11  C   UNL     1      -4.451   2.226  23.768  0.00  0.00    +0.082 C 
BRANCH  11  16
ATOM      2  N   UNL     1      -2.614   0.598  24.249  0.00  0.00    -0.342 N 
ATOM      3  N   UNL     1      -4.642  -0.276  23.993  0.00  0.00    -0.232 NA
ATOM     16  C   UNL     1      -3.937   0.834  23.999  0.00  0.00    +0.109 A 
ATOM     17  C   UNL     1      -2.455  -0.754  24.415  0.00  0.00    +0.066 A 
ATOM     18  C   UNL     1      -3.734  -1.276  24.250  0.00  0.00    +0.089 A 
ATOM     19  C   UNL     1      -1.334  -1.540  24.687  0.00  0.00    +0.028 A 
ATOM     20  C   UNL     1      -3.925  -2.664  24.360  0.00  0.00    +0.030 A 
ATOM     21  C   UNL     1      -1.543  -2.920  24.792  0.00  0.00    +0.002 A 
ATOM     22  C   UNL     1      -2.815  -3.473  24.632  0.00  0.00    +0.002 A 
ATOM     25  H   UNL     1      -1.883   1.294  24.304  0.00  0.00    +0.167 HD
ENDBRANCH  11  16
ENDBRANCH   7  11
BRANCH   6  12
ATOM     12  C   UNL     1      -0.317   2.173  26.284  0.00  0.00    +0.085 C 
BRANCH  12   1
ATOM      1  N   UNL     1       0.510   1.542  25.269  0.00  0.00    -0.329 NA
ATOM     23  H   UNL     1       1.329   2.113  25.073  0.00  0.00    +0.118 HD
ATOM     24  H   UNL     1      -0.010   1.486  24.395  0.00  0.00    +0.118 HD
ENDBRANCH  12   1
ENDBRANCH   6  12
TORSDOF 5
ENDMDL
MODEL 7
REMARK VINA RESULT:      -2.4      2.526      6.766
REMARK  Name = 71692999
REMARK  8 active torsions:
REMARK  status: ('A' for Active; 'I' for Inactive)
REMARK    1  A    between atoms: N_1  and  C_12
REMARK    2  A    between atoms: C_4  and  C_8
REMARK    3  A    between atoms: C_6  and  C_12
REMARK    4  A    between atoms: C_7  and  C_11
REMARK    5  A    between atoms: C_8  and  C_13
REMARK    6  A    between atoms: C_8  and  C_14
REMARK    7  A    between atoms: C_9  and  C_15
REMARK    8  A    between atoms: C_11  and  C_16
REMARK                            x       y       z     vdW  Elec       q    Type
REMARK                         _______ _______ _______ _____ _____    ______ ____
ROOT
ATOM      4  C   UNL     1      -0.050  -0.019  23.195  0.00  0.00    +0.000 C 
ATOM      5  C   UNL     1      -0.515   1.440  23.106  0.00  0.00    +0.012 C 
ATOM      6  C   UNL     1      -0.530  -0.661  24.517  0.00  0.00    +0.029 C 
ATOM      7  C   UNL     1      -0.046   2.305  24.295  0.00  0.00    +0.022 C 
ATOM      9  C   UNL     1      -0.108   1.571  25.626  0.00  0.00    -0.073 C 
ATOM     10  C   UNL     1      -0.337   0.248  25.705  0.00  0.00    -0.023 C 
ATOM     15  C   UNL     1       0.156   2.371  26.873  0.00  0.00    +0.039 C 
ENDROOT
BRANCH   4   8
ATOM      8  C   UNL     1       1.473  -0.127  23.040  0.00  0.00    -0.013 C 
ATOM     13  C   UNL     1       2.133   1.216  23.329  0.00  0.00    +0.007 C 
ATOM     14  C   UNL     1       1.832  -0.617  21.640  0.00  0.00    +0.007 C 
ENDBRANCH   4   8
BRANCH   7  11
ATOM     11  C   UNL     1      -0.848   3.613  24.296  0.00  0.00    +0.082 C 
BRANCH  11  16
ATOM      2  N   UNL     1      -2.899   2.182  24.330  0.00  0.00    -0.342 N 
ATOM      3  N   UNL     1      -3.117   4.210  25.213  0.00  0.00    -0.232 NA
ATOM     16  C   UNL     1      -2.293   3.370  24.628  0.00  0.00    +0.109 A 
ATOM     17  C   UNL     1      -4.202   2.261  24.750  0.00  0.00    +0.066 A 
ATOM     18  C   UNL     1      -4.313   3.536  25.297  0.00  0.00    +0.089 A 
ATOM     19  C   UNL     1      -5.261   1.354  24.699  0.00  0.00    +0.028 A 
ATOM     20  C   UNL     1      -5.546   3.947  25.830  0.00  0.00    +0.030 A 
ATOM     21  C   UNL     1      -6.482   1.780  25.234  0.00  0.00    +0.002 A 
ATOM     22  C   UNL     1      -6.623   3.053  25.790  0.00  0.00    +0.002 A 
ATOM     25  H   UNL     1      -2.467   1.386  23.882  0.00  0.00    +0.167 HD
ENDBRANCH  11  16
ENDBRANCH   7  11
BRANCH   6  12
ATOM     12  C   UNL     1      -2.000  -1.085  24.442  0.00  0.00    +0.085 C 
BRANCH  12   1
ATOM      1  N   UNL     1      -2.659  -0.878  25.720  0.00  0.00    -0.329 NA
ATOM     23  H   UNL     1      -2.932  -1.770  26.127  0.00  0.00    +0.118 HD
ATOM     24  H   UNL     1      -3.524  -0.360  25.574  0.00  0.00    +0.118 HD
ENDBRANCH  12   1
ENDBRANCH   6  12
TORSDOF 5
ENDMDL
MODEL 8
REMARK VINA RESULT:      -2.0      3.413      5.729
REMARK  Name = 71692999
REMARK  8 active torsions:
REMARK  status: ('A' for Active; 'I' for Inactive)
REMARK    1  A    between atoms: N_1  and  C_12
REMARK    2  A    between atoms: C_4  and  C_8
REMARK    3  A    between atoms: C_6  and  C_12
REMARK    4  A    between atoms: C_7  and  C_11
REMARK    5  A    between atoms: C_8  and  C_13
REMARK    6  A    between atoms: C_8  and  C_14
REMARK    7  A    between atoms: C_9  and  C_15
REMARK    8  A    between atoms: C_11  and  C_16
REMARK                            x       y       z     vdW  Elec       q    Type
REMARK                         _______ _______ _______ _____ _____    ______ ____
ROOT
ATOM      4  C   UNL     1      -2.871  -2.119  25.418  0.00  0.00    +0.000 C 
ATOM      5  C   UNL     1      -3.841  -0.983  25.771  0.00  0.00    +0.012 C 
ATOM      6  C   UNL     1      -1.579  -1.552  24.786  0.00  0.00    +0.029 C 
ATOM      7  C   UNL     1      -4.207  -0.094  24.564  0.00  0.00    +0.022 C 
ATOM      9  C   UNL     1      -3.026   0.179  23.645  0.00  0.00    -0.073 C 
ATOM     10  C   UNL     1      -1.856  -0.475  23.768  0.00  0.00    -0.023 C 
ATOM     15  C   UNL     1      -3.224   1.176  22.536  0.00  0.00    +0.039 C 
ENDROOT
BRANCH   4   8
ATOM      8  C   UNL     1      -3.538  -3.151  24.497  0.00  0.00    -0.013 C 
ATOM     13  C   UNL     1      -2.520  -3.726  23.518  0.00  0.00    +0.007 C 
ATOM     14  C   UNL     1      -4.710  -2.520  23.751  0.00  0.00    +0.007 C 
ENDBRANCH   4   8
BRANCH   7  11
ATOM     11  C   UNL     1      -4.867   1.190  25.084  0.00  0.00    +0.082 C 
BRANCH  11  16
ATOM      2  N   UNL     1      -2.593   2.203  25.323  0.00  0.00    -0.342 N 
ATOM      3  N   UNL     1      -4.216   3.595  24.716  0.00  0.00    -0.232 NA
ATOM     16  C   UNL     1      -3.919   2.354  25.031  0.00  0.00    +0.109 A 
ATOM     17  C   UNL     1      -1.994   3.429  25.188  0.00  0.00    +0.066 A 
ATOM     18  C   UNL     1      -3.027   4.280  24.809  0.00  0.00    +0.089 A 
ATOM     19  C   UNL     1      -0.675   3.853  25.361  0.00  0.00    +0.028 A 
ATOM     20  C   UNL     1      -2.747   5.639  24.584  0.00  0.00    +0.030 A 
ATOM     21  C   UNL     1      -0.415   5.209  25.133  0.00  0.00    +0.002 A 
ATOM     22  C   UNL     1      -1.431   6.087  24.752  0.00  0.00    +0.002 A 
ATOM     25  H   UNL     1      -2.134   1.343  25.590  0.00  0.00    +0.167 HD
ENDBRANCH  11  16
ENDBRANCH   7  11
BRANCH   6  12
ATOM     12  C   UNL     1      -0.622  -1.004  25.850  0.00  0.00    +0.085 C 
BRANCH  12   1
ATOM      1  N   UNL     1      -0.235   0.361  25.536  0.00  0.00    -0.329 NA
ATOM     23  H   UNL     1      -0.944   1.015  25.864  0.00  0.00    +0.118 HD
ATOM     24  H   UNL     1      -0.191   0.478  24.526  0.00  0.00    +0.118 HD
ENDBRANCH  12   1
ENDBRANCH   6  12
TORSDOF 5
ENDMDL
MODEL 9
REMARK VINA RESULT:      -1.5      2.925      4.791
REMARK  Name = 71692999
REMARK  8 active torsions:
REMARK  status: ('A' for Active; 'I' for Inactive)
REMARK    1  A    between atoms: N_1  and  C_12
REMARK    2  A    between atoms: C_4  and  C_8
REMARK    3  A    between atoms: C_6  and  C_12
REMARK    4  A    between atoms: C_7  and  C_11
REMARK    5  A    between atoms: C_8  and  C_13
REMARK    6  A    between atoms: C_8  and  C_14
REMARK    7  A    between atoms: C_9  and  C_15
REMARK    8  A    between atoms: C_11  and  C_16
REMARK                            x       y       z     vdW  Elec       q    Type
REMARK                         _______ _______ _______ _____ _____    ______ ____
ROOT
ATOM      4  C   UNL     1      -3.897  -1.067  23.856  0.00  0.00    +0.000 C 
ATOM      5  C   UNL     1      -2.546  -0.452  23.467  0.00  0.00    +0.012 C 
ATOM      6  C   UNL     1      -4.270  -0.682  25.307  0.00  0.00    +0.029 C 
ATOM      7  C   UNL     1      -1.395  -0.854  24.416  0.00  0.00    +0.022 C 
ATOM      9  C   UNL     1      -1.816  -0.893  25.877  0.00  0.00    -0.073 C 
ATOM     10  C   UNL     1      -3.104  -0.804  26.255  0.00  0.00    -0.023 C 
ATOM     15  C   UNL     1      -0.736  -1.099  26.905  0.00  0.00    +0.039 C 
ENDROOT
BRANCH   4   8
ATOM      8  C   UNL     1      -3.890  -2.589  23.664  0.00  0.00    -0.013 C 
ATOM     13  C   UNL     1      -5.253  -3.071  23.181  0.00  0.00    +0.007 C 
ATOM     14  C   UNL     1      -3.498  -3.288  24.964  0.00  0.00    +0.007 C 
ENDBRANCH   4   8
BRANCH   7  11
ATOM     11  C   UNL     1      -0.204   0.079  24.163  0.00  0.00    +0.082 C 
BRANCH  11  16
ATOM      2  N   UNL     1      -1.669   1.848  25.153  0.00  0.00    -0.342 N 
ATOM      3  N   UNL     1       0.081   2.576  23.992  0.00  0.00    -0.232 NA
ATOM     16  C   UNL     1      -0.567   1.514  24.416  0.00  0.00    +0.109 A 
ATOM     17  C   UNL     1      -1.735   3.217  25.208  0.00  0.00    +0.066 A 
ATOM     18  C   UNL     1      -0.633   3.647  24.476  0.00  0.00    +0.089 A 
ATOM     19  C   UNL     1      -2.639   4.089  25.817  0.00  0.00    +0.028 A 
ATOM     20  C   UNL     1      -0.402   5.026  24.333  0.00  0.00    +0.030 A 
ATOM     21  C   UNL     1      -2.394   5.458  25.664  0.00  0.00    +0.002 A 
ATOM     22  C   UNL     1      -1.296   5.919  24.936  0.00  0.00    +0.002 A 
ATOM     25  H   UNL     1      -2.318   1.204  25.583  0.00  0.00    +0.167 HD
ENDBRANCH  11  16
ENDBRANCH   7  11
BRANCH   6  12
ATOM     12  C   UNL     1      -4.839   0.737  25.389  0.00  0.00    +0.085 C 
BRANCH  12   1
ATOM      1  N   UNL     1      -4.537   1.482  24.178  0.00  0.00    -0.329 NA
ATOM     23  H   UNL     1      -3.531   1.523  24.029  0.00  0.00    +0.118 HD
ATOM     24  H   UNL     1      -4.845   2.446  24.288  0.00  0.00    +0.118 HD
ENDBRANCH  12   1
ENDBRANCH   6  12
TORSDOF 5
ENDMDL
MODEL 10
REMARK VINA RESULT:      -1.3      3.582      5.063
REMARK  Name = 71692999
REMARK  8 active torsions:
REMARK  status: ('A' for Active; 'I' for Inactive)
REMARK    1  A    between atoms: N_1  and  C_12
REMARK    2  A    between atoms: C_4  and  C_8
REMARK    3  A    between atoms: C_6  and  C_12
REMARK    4  A    between atoms: C_7  and  C_11
REMARK    5  A    between atoms: C_8  and  C_13
REMARK    6  A    between atoms: C_8  and  C_14
REMARK    7  A    between atoms: C_9  and  C_15
REMARK    8  A    between atoms: C_11  and  C_16
REMARK                            x       y       z     vdW  Elec       q    Type
REMARK                         _______ _______ _______ _____ _____    ______ ____
ROOT
ATOM      4  C   UNL     1      -4.540   2.960  24.633  0.00  0.00    +0.000 C 
ATOM      5  C   UNL     1      -3.385   2.063  25.098  0.00  0.00    +0.012 C 
ATOM      6  C   UNL     1      -4.046   3.979  23.580  0.00  0.00    +0.029 C 
ATOM      7  C   UNL     1      -2.190   2.854  25.672  0.00  0.00    +0.022 C 
ATOM      9  C   UNL     1      -1.893   4.130  24.897  0.00  0.00    -0.073 C 
ATOM     10  C   UNL     1      -2.730   4.609  23.959  0.00  0.00    -0.023 C 
ATOM     15  C   UNL     1      -0.644   4.886  25.258  0.00  0.00    +0.039 C 
ENDROOT
BRANCH   4   8
ATOM      8  C   UNL     1      -5.210   3.663  25.821  0.00  0.00    -0.013 C 
ATOM     13  C   UNL     1      -6.083   2.683  26.597  0.00  0.00    +0.007 C 
ATOM     14  C   UNL     1      -6.032   4.855  25.340  0.00  0.00    +0.007 C 
ENDBRANCH   4   8
BRANCH   7  11
ATOM     11  C   UNL     1      -0.979   1.916  25.762  0.00  0.00    +0.082 C 
BRANCH  11  16
ATOM      2  N   UNL     1      -2.547  -0.030  25.658  0.00  0.00    -0.342 N 
ATOM      3  N   UNL     1      -0.582  -0.312  24.658  0.00  0.00    -0.232 NA
ATOM     16  C   UNL     1      -1.336   0.519  25.342  0.00  0.00    +0.109 A 
ATOM     17  C   UNL     1      -2.576  -1.301  25.144  0.00  0.00    +0.066 A 
ATOM     18  C   UNL     1      -1.339  -1.453  24.525  0.00  0.00    +0.089 A 
ATOM     19  C   UNL     1      -3.550  -2.301  25.167  0.00  0.00    +0.028 A 
ATOM     20  C   UNL     1      -1.039  -2.667  23.885  0.00  0.00    +0.030 A 
ATOM     21  C   UNL     1      -3.234  -3.503  24.525  0.00  0.00    +0.002 A 
ATOM     22  C   UNL     1      -2.001  -3.685  23.895  0.00  0.00    +0.002 A 
ATOM     25  H   UNL     1      -3.290   0.418  26.177  0.00  0.00    +0.167 HD
ENDBRANCH  11  16
ENDBRANCH   7  11
BRANCH   6  12
ATOM     12  C   UNL     1      -3.919   3.343  22.192  0.00  0.00    +0.085 C 
BRANCH  12   1
ATOM      1  N   UNL     1      -2.833   2.378  22.168  0.00  0.00    -0.329 NA
ATOM     23  H   UNL     1      -3.189   1.440  22.344  0.00  0.00    +0.118 HD
ATOM     24  H   UNL     1      -2.184   2.579  22.926  0.00  0.00    +0.118 HD
ENDBRANCH  12   1
ENDBRANCH   6  12
TORSDOF 5
ENDMDL
