MODEL 1
REMARK VINA RESULT:       5.0      0.000      0.000
REMARK  Name = 11913371
REMARK  8 active torsions:
REMARK  status: ('A' for Active; 'I' for Inactive)
REMARK    1  A    between atoms: O_5  and  C_25
REMARK    2  A    between atoms: N_7  and  C_14
REMARK    3  A    between atoms: N_8  and  C_17
REMARK    4  A    between atoms: C_11  and  C_18
REMARK    5  A    between atoms: C_11  and  C_22
REMARK    6  A    between atoms: C_18  and  C_24
REMARK    7  A    between atoms: C_22  and  C_25
REMARK    8  A    between atoms: C_27  and  C_30
REMARK                            x       y       z     vdW  Elec       q    Type
REMARK                         _______ _______ _______ _____ _____    ______ ____
ROOT
ATOM      2  O   UNL     1      -1.205  -1.232  26.153  0.00  0.00    -0.370 OA
ATOM      3  O   UNL     1      -2.952  -2.827  24.119  0.00  0.00    -0.370 OA
ATOM     12  C   UNL     1      -2.139  -1.646  24.006  0.00  0.00    +0.171 C 
ATOM     13  C   UNL     1      -2.298  -0.864  25.294  0.00  0.00    +0.171 C 
ATOM     14  C   UNL     1      -0.674  -2.019  23.978  0.00  0.00    +0.130 C 
ATOM     17  C   UNL     1      -3.605  -1.357  25.869  0.00  0.00    +0.130 C 
ATOM     21  C   UNL     1      -0.343  -2.143  25.455  0.00  0.00    +0.185 C 
ATOM     23  C   UNL     1      -3.673  -2.786  25.359  0.00  0.00    +0.185 C 
ENDROOT
BRANCH  17   8
ATOM      8  N   UNL     1      -4.703  -0.583  25.336  0.00  0.00    -0.306 N 
ATOM      9  N   UNL     1      -3.443   1.366  25.316  0.00  0.00    -0.214 NA
ATOM     10  N   UNL     1      -5.732   1.351  24.565  0.00  0.00    -0.223 NA
ATOM     26  C   UNL     1      -4.623   0.770  25.060  0.00  0.00    +0.216 A 
ATOM     27  C   UNL     1      -3.399   2.685  25.035  0.00  0.00    +0.076 A 
ATOM     28  C   UNL     1      -5.619   2.670  24.308  0.00  0.00    +0.116 A 
ATOM     29  C   UNL     1      -4.466   3.397  24.525  0.00  0.00    +0.048 A 
ATOM     37  H   UNL     1      -5.571  -1.048  25.097  0.00  0.00    +0.149 HD
BRANCH  27  30
ATOM      1  F   UNL     1       0.845   2.817  27.330  0.00  0.00    -0.205 F 
ATOM     30  C   UNL     1      -2.136   3.328  25.306  0.00  0.00    +0.003 A 
ATOM     31  C   UNL     1      -1.238   2.750  26.204  0.00  0.00    +0.048 A 
ATOM     32  C   UNL     1      -1.812   4.526  24.671  0.00  0.00    +0.010 A 
ATOM     33  C   UNL     1      -0.017   3.371  26.467  0.00  0.00    +0.124 A 
ATOM     34  C   UNL     1      -0.590   5.147  24.933  0.00  0.00    +0.003 A 
ATOM     35  C   UNL     1       0.307   4.569  25.831  0.00  0.00    +0.038 A 
ENDBRANCH  27  30
ENDBRANCH  17   8
BRANCH  14   7
ATOM      4  O   UNL     1       0.631  -2.138  21.398  0.00  0.00    -0.276 OA
ATOM      7  N   UNL     1       0.114  -0.987  23.350  0.00  0.00    -0.308 N 
ATOM     24  C   UNL     1       0.706  -1.135  22.101  0.00  0.00    +0.214 C 
ATOM     36  H   UNL     1       0.209  -0.104  23.842  0.00  0.00    +0.149 HD
BRANCH  24  18
ATOM     18  C   UNL     1       1.470   0.110  21.693  0.00  0.00    +0.103 C 
BRANCH  18  11
ATOM     11  C   UNL     1       2.649   0.407  22.622  0.00  0.00    -0.011 C 
ATOM     15  C   UNL     1       3.934   0.695  21.832  0.00  0.00    +0.008 C 
ATOM     16  C   UNL     1       3.055  -0.831  23.434  0.00  0.00    +0.008 C 
ATOM     19  C   UNL     1       5.073   0.394  22.803  0.00  0.00    +0.001 C 
ATOM     20  C   UNL     1       4.509  -0.586  23.831  0.00  0.00    +0.001 C 
BRANCH  11  22
ATOM     22  C   UNL     1       2.285   1.583  23.544  0.00  0.00    +0.127 C 
BRANCH  22  25
ATOM      6  O   UNL     1      -0.075   2.076  23.179  0.00  0.00    -0.251 OA
ATOM     25  C   UNL     1       0.818   1.593  23.859  0.00  0.00    +0.305 C 
BRANCH  25   5
ATOM      5  O   UNL     1       0.609   0.970  25.048  0.00  0.00    -0.481 OA
ATOM     38  H   UNL     1       1.415   0.512  25.367  0.00  0.00    +0.295 HD
ENDBRANCH  25   5
ENDBRANCH  22  25
ENDBRANCH  11  22
ENDBRANCH  18  11
ENDBRANCH  24  18
ENDBRANCH  14   7
TORSDOF 8
ENDMDL
MODEL 2
REMARK VINA RESULT:       6.2      2.038      4.455
REMARK  Name = 11913371
REMARK  8 active torsions:
REMARK  status: ('A' for Active; 'I' for Inactive)
REMARK    1  A    between atoms: O_5  and  C_25
REMARK    2  A    between atoms: N_7  and  C_14
REMARK    3  A    between atoms: N_8  and  C_17
REMARK    4  A    between atoms: C_11  and  C_18
REMARK    5  A    between atoms: C_11  and  C_22
REMARK    6  A    between atoms: C_18  and  C_24
REMARK    7  A    between atoms: C_22  and  C_25
REMARK    8  A    between atoms: C_27  and  C_30
REMARK                            x       y       z     vdW  Elec       q    Type
REMARK                         _______ _______ _______ _____ _____    ______ ____
ROOT
ATOM      2  O   UNL     1      -1.021   4.204  24.182  0.00  0.00    -0.370 OA
ATOM      3  O   UNL     1      -2.420   3.676  26.921  0.00  0.00    -0.370 OA
ATOM     12  C   UNL     1      -1.968   2.813  25.863  0.00  0.00    +0.171 C 
ATOM     13  C   UNL     1      -2.234   3.527  24.553  0.00  0.00    +0.171 C 
ATOM     14  C   UNL     1      -0.463   2.673  25.908  0.00  0.00    +0.130 C 
ATOM     17  C   UNL     1      -3.312   4.530  24.890  0.00  0.00    +0.130 C 
ATOM     21  C   UNL     1      -0.000   3.903  25.145  0.00  0.00    +0.185 C 
ATOM     23  C   UNL     1      -3.030   4.842  26.349  0.00  0.00    +0.185 C 
ENDROOT
BRANCH  17   8
ATOM      8  N   UNL     1      -4.616   3.920  24.752  0.00  0.00    -0.306 N 
ATOM      9  N   UNL     1      -3.740   1.780  24.950  0.00  0.00    -0.214 NA
ATOM     10  N   UNL     1      -6.103   2.140  24.641  0.00  0.00    -0.223 NA
ATOM     26  C   UNL     1      -4.829   2.554  24.783  0.00  0.00    +0.216 A 
ATOM     27  C   UNL     1      -3.985   0.453  24.976  0.00  0.00    +0.076 A 
ATOM     28  C   UNL     1      -6.274   0.803  24.675  0.00  0.00    +0.116 A 
ATOM     29  C   UNL     1      -5.243  -0.098  24.842  0.00  0.00    +0.048 A 
ATOM     37  H   UNL     1      -5.436   4.511  24.678  0.00  0.00    +0.149 HD
BRANCH  27  30
ATOM      1  F   UNL     1      -1.130  -3.157  23.520  0.00  0.00    -0.205 F 
ATOM     30  C   UNL     1      -2.820  -0.381  25.156  0.00  0.00    +0.003 A 
ATOM     31  C   UNL     1      -2.532  -1.385  24.232  0.00  0.00    +0.048 A 
ATOM     32  C   UNL     1      -1.984  -0.182  26.254  0.00  0.00    +0.010 A 
ATOM     33  C   UNL     1      -1.407  -2.191  24.407  0.00  0.00    +0.124 A 
ATOM     34  C   UNL     1      -0.858  -0.988  26.429  0.00  0.00    +0.003 A 
ATOM     35  C   UNL     1      -0.570  -1.993  25.504  0.00  0.00    +0.038 A 
ENDBRANCH  27  30
ENDBRANCH  17   8
BRANCH  14   7
ATOM      4  O   UNL     1       1.500   2.420  23.797  0.00  0.00    -0.276 OA
ATOM      7  N   UNL     1      -0.032   1.461  25.256  0.00  0.00    -0.308 N 
ATOM     24  C   UNL     1       0.922   1.436  24.247  0.00  0.00    +0.214 C 
ATOM     36  H   UNL     1      -0.432   0.586  25.582  0.00  0.00    +0.149 HD
BRANCH  24  18
ATOM     18  C   UNL     1       1.177   0.024  23.752  0.00  0.00    +0.103 C 
BRANCH  18  11
ATOM     11  C   UNL     1       2.534  -0.119  23.059  0.00  0.00    -0.011 C 
ATOM     15  C   UNL     1       3.421  -1.155  23.763  0.00  0.00    +0.008 C 
ATOM     16  C   UNL     1       3.377   1.156  23.196  0.00  0.00    +0.008 C 
ATOM     19  C   UNL     1       4.850  -0.786  23.371  0.00  0.00    +0.001 C 
ATOM     20  C   UNL     1       4.821   0.699  23.008  0.00  0.00    +0.001 C 
BRANCH  11  22
ATOM     22  C   UNL     1       2.312  -0.485  21.582  0.00  0.00    +0.127 C 
BRANCH  22  25
ATOM      6  O   UNL     1      -0.081  -0.534  22.045  0.00  0.00    -0.251 OA
ATOM     25  C   UNL     1       0.849  -0.571  21.256  0.00  0.00    +0.305 C 
BRANCH  25   5
ATOM      5  O   UNL     1       0.695  -0.701  19.912  0.00  0.00    -0.481 OA
ATOM     38  H   UNL     1      -0.121  -1.194  19.684  0.00  0.00    +0.295 HD
ENDBRANCH  25   5
ENDBRANCH  22  25
ENDBRANCH  11  22
ENDBRANCH  18  11
ENDBRANCH  24  18
ENDBRANCH  14   7
TORSDOF 8
ENDMDL
MODEL 3
REMARK VINA RESULT:       6.3      0.836      1.752
REMARK  Name = 11913371
REMARK  8 active torsions:
REMARK  status: ('A' for Active; 'I' for Inactive)
REMARK    1  A    between atoms: O_5  and  C_25
REMARK    2  A    between atoms: N_7  and  C_14
REMARK    3  A    between atoms: N_8  and  C_17
REMARK    4  A    between atoms: C_11  and  C_18
REMARK    5  A    between atoms: C_11  and  C_22
REMARK    6  A    between atoms: C_18  and  C_24
REMARK    7  A    between atoms: C_22  and  C_25
REMARK    8  A    between atoms: C_27  and  C_30
REMARK                            x       y       z     vdW  Elec       q    Type
REMARK                         _______ _______ _______ _____ _____    ______ ____
ROOT
ATOM      2  O   UNL     1      -1.387  -1.245  26.709  0.00  0.00    -0.370 OA
ATOM      3  O   UNL     1      -2.629  -2.702  24.246  0.00  0.00    -0.370 OA
ATOM     12  C   UNL     1      -1.832  -1.514  24.388  0.00  0.00    +0.171 C 
ATOM     13  C   UNL     1      -2.277  -0.823  25.662  0.00  0.00    +0.171 C 
ATOM     14  C   UNL     1      -0.389  -1.879  24.652  0.00  0.00    +0.130 C 
ATOM     17  C   UNL     1      -3.668  -1.358  25.908  0.00  0.00    +0.130 C 
ATOM     21  C   UNL     1      -0.380  -2.103  26.154  0.00  0.00    +0.185 C 
ATOM     23  C   UNL     1      -3.600  -2.748  25.302  0.00  0.00    +0.185 C 
ENDROOT
BRANCH  17   8
ATOM      8  N   UNL     1      -4.640  -0.552  25.204  0.00  0.00    -0.306 N 
ATOM      9  N   UNL     1      -3.233   1.294  25.182  0.00  0.00    -0.214 NA
ATOM     10  N   UNL     1      -5.427   1.382  24.189  0.00  0.00    -0.223 NA
ATOM     26  C   UNL     1      -4.424   0.765  24.842  0.00  0.00    +0.216 A 
ATOM     27  C   UNL     1      -3.056   2.580  24.814  0.00  0.00    +0.076 A 
ATOM     28  C   UNL     1      -5.183   2.666  23.853  0.00  0.00    +0.116 A 
ATOM     29  C   UNL     1      -4.005   3.323  24.141  0.00  0.00    +0.048 A 
ATOM     37  H   UNL     1      -5.513  -0.972  24.906  0.00  0.00    +0.149 HD
BRANCH  27  30
ATOM      1  F   UNL     1       1.086   2.394  27.284  0.00  0.00    -0.205 F 
ATOM     30  C   UNL     1      -1.780   3.150  25.174  0.00  0.00    +0.003 A 
ATOM     31  C   UNL     1      -0.947   2.483  26.072  0.00  0.00    +0.048 A 
ATOM     32  C   UNL     1      -1.380   4.368  24.626  0.00  0.00    +0.010 A 
ATOM     33  C   UNL     1       0.286   3.034  26.421  0.00  0.00    +0.124 A 
ATOM     34  C   UNL     1      -0.147   4.919  24.974  0.00  0.00    +0.003 A 
ATOM     35  C   UNL     1       0.687   4.252  25.872  0.00  0.00    +0.038 A 
ENDBRANCH  27  30
ENDBRANCH  17   8
BRANCH  14   7
ATOM      4  O   UNL     1      -1.000   0.388  22.960  0.00  0.00    -0.276 OA
ATOM      7  N   UNL     1       0.497  -0.804  24.278  0.00  0.00    -0.308 N 
ATOM     24  C   UNL     1       0.114   0.249  23.456  0.00  0.00    +0.214 C 
ATOM     36  H   UNL     1       1.436  -0.814  24.665  0.00  0.00    +0.149 HD
BRANCH  24  18
ATOM     18  C   UNL     1       1.250   1.230  23.237  0.00  0.00    +0.103 C 
BRANCH  18  11
ATOM     11  C   UNL     1       2.551   0.540  22.822  0.00  0.00    -0.011 C 
ATOM     15  C   UNL     1       2.861  -0.668  23.717  0.00  0.00    +0.008 C 
ATOM     16  C   UNL     1       3.772   1.436  23.076  0.00  0.00    +0.008 C 
ATOM     19  C   UNL     1       4.368  -0.877  23.595  0.00  0.00    +0.001 C 
ATOM     20  C   UNL     1       4.953   0.475  23.184  0.00  0.00    +0.001 C 
BRANCH  11  22
ATOM     22  C   UNL     1       2.458   0.130  21.343  0.00  0.00    +0.127 C 
BRANCH  22  25
ATOM      6  O   UNL     1       1.154  -1.908  21.641  0.00  0.00    -0.251 OA
ATOM     25  C   UNL     1       1.320  -0.820  21.112  0.00  0.00    +0.305 C 
BRANCH  25   5
ATOM      5  O   UNL     1       0.467  -0.287  20.199  0.00  0.00    -0.481 OA
ATOM     38  H   UNL     1       0.272   0.656  20.388  0.00  0.00    +0.295 HD
ENDBRANCH  25   5
ENDBRANCH  22  25
ENDBRANCH  11  22
ENDBRANCH  18  11
ENDBRANCH  24  18
ENDBRANCH  14   7
TORSDOF 8
ENDMDL
MODEL 4
REMARK VINA RESULT:       6.6      2.755      5.917
REMARK  Name = 11913371
REMARK  8 active torsions:
REMARK  status: ('A' for Active; 'I' for Inactive)
REMARK    1  A    between atoms: O_5  and  C_25
REMARK    2  A    between atoms: N_7  and  C_14
REMARK    3  A    between atoms: N_8  and  C_17
REMARK    4  A    between atoms: C_11  and  C_18
REMARK    5  A    between atoms: C_11  and  C_22
REMARK    6  A    between atoms: C_18  and  C_24
REMARK    7  A    between atoms: C_22  and  C_25
REMARK    8  A    between atoms: C_27  and  C_30
REMARK                            x       y       z     vdW  Elec       q    Type
REMARK                         _______ _______ _______ _____ _____    ______ ____
ROOT
ATOM      2  O   UNL     1      -0.352   0.675  26.008  0.00  0.00    -0.370 OA
ATOM      3  O   UNL     1       0.890  -0.187  23.278  0.00  0.00    -0.370 OA
ATOM     12  C   UNL     1      -0.365   0.411  23.644  0.00  0.00    +0.171 C 
ATOM     13  C   UNL     1      -0.792  -0.207  24.960  0.00  0.00    +0.171 C 
ATOM     14  C   UNL     1      -0.175   1.875  23.968  0.00  0.00    +0.130 C 
ATOM     17  C   UNL     1      -0.034  -1.512  25.021  0.00  0.00    +0.130 C 
ATOM     21  C   UNL     1       0.263   1.831  25.422  0.00  0.00    +0.185 C 
ATOM     23  C   UNL     1       1.228  -1.199  24.238  0.00  0.00    +0.185 C 
ENDROOT
BRANCH  17   8
ATOM      8  N   UNL     1      -0.788  -2.553  24.359  0.00  0.00    -0.306 N 
ATOM      9  N   UNL     1      -2.792  -1.419  24.652  0.00  0.00    -0.214 NA
ATOM     10  N   UNL     1      -2.716  -3.554  23.538  0.00  0.00    -0.223 NA
ATOM     26  C   UNL     1      -2.158  -2.507  24.175  0.00  0.00    +0.216 A 
ATOM     27  C   UNL     1      -4.127  -1.407  24.455  0.00  0.00    +0.076 A 
ATOM     28  C   UNL     1      -4.053  -3.477  23.376  0.00  0.00    +0.116 A 
ATOM     29  C   UNL     1      -4.818  -2.417  23.818  0.00  0.00    +0.048 A 
ATOM     37  H   UNL     1      -0.298  -3.344  23.956  0.00  0.00    +0.149 HD
BRANCH  27  30
ATOM      1  F   UNL     1      -7.510   2.008  24.023  0.00  0.00    -0.205 F 
ATOM     30  C   UNL     1      -4.811  -0.242  24.965  0.00  0.00    +0.003 A 
ATOM     31  C   UNL     1      -5.851   0.331  24.233  0.00  0.00    +0.048 A 
ATOM     32  C   UNL     1      -4.432   0.310  26.188  0.00  0.00    +0.010 A 
ATOM     33  C   UNL     1      -6.512   1.457  24.726  0.00  0.00    +0.124 A 
ATOM     34  C   UNL     1      -5.093   1.436  26.680  0.00  0.00    +0.003 A 
ATOM     35  C   UNL     1      -6.133   2.009  25.949  0.00  0.00    +0.038 A 
ENDBRANCH  27  30
ENDBRANCH  17   8
BRANCH  14   7
ATOM      4  O   UNL     1      -2.479   1.117  22.391  0.00  0.00    -0.276 OA
ATOM      7  N   UNL     1      -1.407   2.608  23.815  0.00  0.00    -0.308 N 
ATOM     24  C   UNL     1      -2.466   2.163  23.032  0.00  0.00    +0.214 C 
ATOM     36  H   UNL     1      -1.505   3.475  24.334  0.00  0.00    +0.149 HD
BRANCH  24  18
ATOM     18  C   UNL     1      -3.630   3.136  23.060  0.00  0.00    +0.103 C 
BRANCH  18  11
ATOM     11  C   UNL     1      -3.542   4.125  24.225  0.00  0.00    -0.011 C 
ATOM     15  C   UNL     1      -2.885   3.489  25.458  0.00  0.00    +0.008 C 
ATOM     16  C   UNL     1      -4.933   4.486  24.766  0.00  0.00    +0.008 C 
ATOM     19  C   UNL     1      -3.375   4.320  26.641  0.00  0.00    +0.001 C 
ATOM     20  C   UNL     1      -4.691   4.959  26.197  0.00  0.00    +0.001 C 
BRANCH  11  22
ATOM     22  C   UNL     1      -2.779   5.378  23.768  0.00  0.00    +0.127 C 
BRANCH  22  25
ATOM      6  O   UNL     1      -0.549   5.044  24.696  0.00  0.00    -0.251 OA
ATOM     25  C   UNL     1      -1.605   5.657  24.661  0.00  0.00    +0.305 C 
BRANCH  25   5
ATOM      5  O   UNL     1      -1.887   6.723  25.454  0.00  0.00    -0.481 OA
ATOM     38  H   UNL     1      -1.119   6.979  26.009  0.00  0.00    +0.295 HD
ENDBRANCH  25   5
ENDBRANCH  22  25
ENDBRANCH  11  22
ENDBRANCH  18  11
ENDBRANCH  24  18
ENDBRANCH  14   7
TORSDOF 8
ENDMDL
MODEL 5
REMARK VINA RESULT:       6.7      2.411      4.580
REMARK  Name = 11913371
REMARK  8 active torsions:
REMARK  status: ('A' for Active; 'I' for Inactive)
REMARK    1  A    between atoms: O_5  and  C_25
REMARK    2  A    between atoms: N_7  and  C_14
REMARK    3  A    between atoms: N_8  and  C_17
REMARK    4  A    between atoms: C_11  and  C_18
REMARK    5  A    between atoms: C_11  and  C_22
REMARK    6  A    between atoms: C_18  and  C_24
REMARK    7  A    between atoms: C_22  and  C_25
REMARK    8  A    between atoms: C_27  and  C_30
REMARK                            x       y       z     vdW  Elec       q    Type
REMARK                         _______ _______ _______ _____ _____    ______ ____
ROOT
ATOM      2  O   UNL     1      -1.095   4.174  24.227  0.00  0.00    -0.370 OA
ATOM      3  O   UNL     1      -2.505   3.614  26.953  0.00  0.00    -0.370 OA
ATOM     12  C   UNL     1      -2.046   2.763  25.888  0.00  0.00    +0.171 C 
ATOM     13  C   UNL     1      -2.309   3.491  24.585  0.00  0.00    +0.171 C 
ATOM     14  C   UNL     1      -0.541   2.625  25.937  0.00  0.00    +0.130 C 
ATOM     17  C   UNL     1      -3.390   4.488  24.929  0.00  0.00    +0.130 C 
ATOM     21  C   UNL     1      -0.078   3.864  25.190  0.00  0.00    +0.185 C 
ATOM     23  C   UNL     1      -3.114   4.785  26.392  0.00  0.00    +0.185 C 
ENDROOT
BRANCH  17   8
ATOM      8  N   UNL     1      -4.692   3.878  24.778  0.00  0.00    -0.306 N 
ATOM      9  N   UNL     1      -3.812   1.737  24.947  0.00  0.00    -0.214 NA
ATOM     10  N   UNL     1      -6.175   2.097  24.638  0.00  0.00    -0.223 NA
ATOM     26  C   UNL     1      -4.903   2.511  24.788  0.00  0.00    +0.216 A 
ATOM     27  C   UNL     1      -4.054   0.409  24.952  0.00  0.00    +0.076 A 
ATOM     28  C   UNL     1      -6.343   0.759  24.652  0.00  0.00    +0.116 A 
ATOM     29  C   UNL     1      -5.311  -0.143  24.807  0.00  0.00    +0.048 A 
ATOM     37  H   UNL     1      -5.514   4.468  24.712  0.00  0.00    +0.149 HD
BRANCH  27  30
ATOM      1  F   UNL     1      -1.035  -2.984  23.318  0.00  0.00    -0.205 F 
ATOM     30  C   UNL     1      -2.888  -0.425  25.122  0.00  0.00    +0.003 A 
ATOM     31  C   UNL     1      -2.518  -1.319  24.118  0.00  0.00    +0.048 A 
ATOM     32  C   UNL     1      -2.133  -0.337  26.291  0.00  0.00    +0.010 A 
ATOM     33  C   UNL     1      -1.391  -2.125  24.282  0.00  0.00    +0.124 A 
ATOM     34  C   UNL     1      -1.006  -1.143  26.456  0.00  0.00    +0.003 A 
ATOM     35  C   UNL     1      -0.635  -2.037  25.451  0.00  0.00    +0.038 A 
ENDBRANCH  27  30
ENDBRANCH  17   8
BRANCH  14   7
ATOM      4  O   UNL     1       1.298   2.415  23.713  0.00  0.00    -0.276 OA
ATOM      7  N   UNL     1      -0.106   1.420  25.275  0.00  0.00    -0.308 N 
ATOM     24  C   UNL     1       0.785   1.416  24.209  0.00  0.00    +0.214 C 
ATOM     36  H   UNL     1      -0.453   0.536  25.634  0.00  0.00    +0.149 HD
BRANCH  24  18
ATOM     18  C   UNL     1       1.062   0.009  23.716  0.00  0.00    +0.103 C 
BRANCH  18  11
ATOM     11  C   UNL     1       2.446  -0.129  23.077  0.00  0.00    -0.011 C 
ATOM     15  C   UNL     1       3.289   1.138  23.277  0.00  0.00    +0.008 C 
ATOM     16  C   UNL     1       2.357  -0.203  21.546  0.00  0.00    +0.008 C 
ATOM     19  C   UNL     1       4.328   1.105  22.159  0.00  0.00    +0.001 C 
ATOM     20  C   UNL     1       3.728   0.244  21.047  0.00  0.00    +0.001 C 
BRANCH  11  22
ATOM     22  C   UNL     1       3.150  -1.367  23.655  0.00  0.00    +0.127 C 
BRANCH  22  25
ATOM      6  O   UNL     1       4.964  -0.013  24.562  0.00  0.00    -0.251 OA
ATOM     25  C   UNL     1       4.561  -1.051  24.061  0.00  0.00    +0.305 C 
BRANCH  25   5
ATOM      5  O   UNL     1       5.357  -2.116  23.786  0.00  0.00    -0.481 OA
ATOM     38  H   UNL     1       6.289  -1.848  23.639  0.00  0.00    +0.295 HD
ENDBRANCH  25   5
ENDBRANCH  22  25
ENDBRANCH  11  22
ENDBRANCH  18  11
ENDBRANCH  24  18
ENDBRANCH  14   7
TORSDOF 8
ENDMDL
MODEL 6
REMARK VINA RESULT:       7.0      3.036      7.332
REMARK  Name = 11913371
REMARK  8 active torsions:
REMARK  status: ('A' for Active; 'I' for Inactive)
REMARK    1  A    between atoms: O_5  and  C_25
REMARK    2  A    between atoms: N_7  and  C_14
REMARK    3  A    between atoms: N_8  and  C_17
REMARK    4  A    between atoms: C_11  and  C_18
REMARK    5  A    between atoms: C_11  and  C_22
REMARK    6  A    between atoms: C_18  and  C_24
REMARK    7  A    between atoms: C_22  and  C_25
REMARK    8  A    between atoms: C_27  and  C_30
REMARK                            x       y       z     vdW  Elec       q    Type
REMARK                         _______ _______ _______ _____ _____    ______ ____
ROOT
ATOM      2  O   UNL     1      -1.655   3.323  26.694  0.00  0.00    -0.370 OA
ATOM      3  O   UNL     1      -0.984   5.222  24.310  0.00  0.00    -0.370 OA
ATOM     12  C   UNL     1      -1.789   4.036  24.428  0.00  0.00    +0.171 C 
ATOM     13  C   UNL     1      -1.082   3.106  25.393  0.00  0.00    +0.171 C 
ATOM     14  C   UNL     1      -3.097   4.356  25.116  0.00  0.00    +0.130 C 
ATOM     17  C   UNL     1       0.356   3.570  25.370  0.00  0.00    +0.130 C 
ATOM     21  C   UNL     1      -2.717   4.283  26.585  0.00  0.00    +0.185 C 
ATOM     23  C   UNL     1       0.220   5.052  25.071  0.00  0.00    +0.185 C 
ENDROOT
BRANCH  17   8
ATOM      8  N   UNL     1       1.072   2.907  24.303  0.00  0.00    -0.306 N 
ATOM      9  N   UNL     1      -0.093   0.925  24.623  0.00  0.00    -0.214 NA
ATOM     10  N   UNL     1       1.596   1.120  22.915  0.00  0.00    -0.223 NA
ATOM     26  C   UNL     1       0.849   1.594  23.930  0.00  0.00    +0.216 A 
ATOM     27  C   UNL     1      -0.285  -0.352  24.233  0.00  0.00    +0.076 A 
ATOM     28  C   UNL     1       1.352  -0.163  22.580  0.00  0.00    +0.116 A 
ATOM     29  C   UNL     1       0.415  -0.956  23.209  0.00  0.00    +0.048 A 
ATOM     37  H   UNL     1       1.742   3.432  23.752  0.00  0.00    +0.149 HD
BRANCH  27  30
ATOM      1  F   UNL     1      -3.474  -3.960  24.577  0.00  0.00    -0.205 F 
ATOM     30  C   UNL     1      -1.295  -1.072  24.972  0.00  0.00    +0.003 A 
ATOM     31  C   UNL     1      -1.908  -2.190  24.406  0.00  0.00    +0.048 A 
ATOM     32  C   UNL     1      -1.658  -0.651  26.251  0.00  0.00    +0.010 A 
ATOM     33  C   UNL     1      -2.884  -2.887  25.120  0.00  0.00    +0.124 A 
ATOM     34  C   UNL     1      -2.633  -1.347  26.965  0.00  0.00    +0.003 A 
ATOM     35  C   UNL     1      -3.246  -2.465  26.399  0.00  0.00    +0.038 A 
ENDBRANCH  27  30
ENDBRANCH  17   8
BRANCH  14   7
ATOM      4  O   UNL     1      -5.954   4.605  25.500  0.00  0.00    -0.276 OA
ATOM      7  N   UNL     1      -4.110   3.383  24.789  0.00  0.00    -0.308 N 
ATOM     24  C   UNL     1      -5.466   3.592  25.010  0.00  0.00    +0.214 C 
ATOM     36  H   UNL     1      -3.807   2.520  24.348  0.00  0.00    +0.149 HD
BRANCH  24  18
ATOM     18  C   UNL     1      -6.295   2.401  24.567  0.00  0.00    +0.103 C 
BRANCH  18  11
ATOM     11  C   UNL     1      -5.540   1.077  24.699  0.00  0.00    -0.011 C 
ATOM     15  C   UNL     1      -4.244   1.080  23.876  0.00  0.00    +0.008 C 
ATOM     16  C   UNL     1      -6.314  -0.082  24.055  0.00  0.00    +0.008 C 
ATOM     19  C   UNL     1      -3.928  -0.393  23.627  0.00  0.00    +0.001 C 
ATOM     20  C   UNL     1      -5.258  -1.139  23.742  0.00  0.00    +0.001 C 
BRANCH  11  22
ATOM     22  C   UNL     1      -5.257   0.801  26.185  0.00  0.00    +0.127 C 
BRANCH  22  25
ATOM      6  O   UNL     1      -7.358   0.884  27.420  0.00  0.00    -0.251 OA
ATOM     25  C   UNL     1      -6.314   1.407  27.062  0.00  0.00    +0.305 C 
BRANCH  25   5
ATOM      5  O   UNL     1      -5.937   2.663  27.417  0.00  0.00    -0.481 OA
ATOM     38  H   UNL     1      -5.027   2.870  27.118  0.00  0.00    +0.295 HD
ENDBRANCH  25   5
ENDBRANCH  22  25
ENDBRANCH  11  22
ENDBRANCH  18  11
ENDBRANCH  24  18
ENDBRANCH  14   7
TORSDOF 8
ENDMDL
MODEL 7
REMARK VINA RESULT:       7.2      1.321      1.861
REMARK  Name = 11913371
REMARK  8 active torsions:
REMARK  status: ('A' for Active; 'I' for Inactive)
REMARK    1  A    between atoms: O_5  and  C_25
REMARK    2  A    between atoms: N_7  and  C_14
REMARK    3  A    between atoms: N_8  and  C_17
REMARK    4  A    between atoms: C_11  and  C_18
REMARK    5  A    between atoms: C_11  and  C_22
REMARK    6  A    between atoms: C_18  and  C_24
REMARK    7  A    between atoms: C_22  and  C_25
REMARK    8  A    between atoms: C_27  and  C_30
REMARK                            x       y       z     vdW  Elec       q    Type
REMARK                         _______ _______ _______ _____ _____    ______ ____
ROOT
ATOM      2  O   UNL     1      -1.482  -1.263  26.625  0.00  0.00    -0.370 OA
ATOM      3  O   UNL     1      -2.712  -2.593  24.085  0.00  0.00    -0.370 OA
ATOM     12  C   UNL     1      -1.923  -1.409  24.293  0.00  0.00    +0.171 C 
ATOM     13  C   UNL     1      -2.374  -0.791  25.601  0.00  0.00    +0.171 C 
ATOM     14  C   UNL     1      -0.477  -1.777  24.538  0.00  0.00    +0.130 C 
ATOM     17  C   UNL     1      -3.761  -1.348  25.816  0.00  0.00    +0.130 C 
ATOM     21  C   UNL     1      -0.468  -2.083  26.026  0.00  0.00    +0.185 C 
ATOM     23  C   UNL     1      -3.683  -2.703  25.135  0.00  0.00    +0.185 C 
ENDROOT
BRANCH  17   8
ATOM      8  N   UNL     1      -4.738  -0.512  25.155  0.00  0.00    -0.306 N 
ATOM      9  N   UNL     1      -3.309   1.317  25.149  0.00  0.00    -0.214 NA
ATOM     10  N   UNL     1      -5.522   1.458  24.208  0.00  0.00    -0.223 NA
ATOM     26  C   UNL     1      -4.514   0.812  24.823  0.00  0.00    +0.216 A 
ATOM     27  C   UNL     1      -3.123   2.609  24.810  0.00  0.00    +0.076 A 
ATOM     28  C   UNL     1      -5.269   2.747  23.900  0.00  0.00    +0.116 A 
ATOM     29  C   UNL     1      -4.076   3.381  24.178  0.00  0.00    +0.048 A 
ATOM     37  H   UNL     1      -5.623  -0.913  24.866  0.00  0.00    +0.149 HD
BRANCH  27  30
ATOM      1  F   UNL     1       1.072   2.305  27.178  0.00  0.00    -0.205 F 
ATOM     30  C   UNL     1      -1.832   3.154  25.157  0.00  0.00    +0.003 A 
ATOM     31  C   UNL     1      -0.987   2.452  26.017  0.00  0.00    +0.048 A 
ATOM     32  C   UNL     1      -1.429   4.382  24.633  0.00  0.00    +0.010 A 
ATOM     33  C   UNL     1       0.261   2.979  26.352  0.00  0.00    +0.124 A 
ATOM     34  C   UNL     1      -0.181   4.908  24.967  0.00  0.00    +0.003 A 
ATOM     35  C   UNL     1       0.664   4.206  25.827  0.00  0.00    +0.038 A 
ENDBRANCH  27  30
ENDBRANCH  17   8
BRANCH  14   7
ATOM      4  O   UNL     1       0.251  -0.812  21.909  0.00  0.00    -0.276 OA
ATOM      7  N   UNL     1       0.402  -0.678  24.224  0.00  0.00    -0.308 N 
ATOM     24  C   UNL     1       0.695  -0.284  22.924  0.00  0.00    +0.214 C 
ATOM     36  H   UNL     1       0.796  -0.156  25.001  0.00  0.00    +0.149 HD
BRANCH  24  18
ATOM     18  C   UNL     1       1.644   0.899  22.898  0.00  0.00    +0.103 C 
BRANCH  18  11
ATOM     11  C   UNL     1       3.114   0.475  22.944  0.00  0.00    -0.011 C 
ATOM     15  C   UNL     1       3.764   0.833  24.287  0.00  0.00    +0.008 C 
ATOM     16  C   UNL     1       3.967   1.287  21.959  0.00  0.00    +0.008 C 
ATOM     19  C   UNL     1       5.261   0.906  23.997  0.00  0.00    +0.001 C 
ATOM     20  C   UNL     1       5.391   1.198  22.502  0.00  0.00    +0.001 C 
BRANCH  11  22
ATOM     22  C   UNL     1       3.215  -1.032  22.658  0.00  0.00    +0.127 C 
BRANCH  22  25
ATOM      6  O   UNL     1       5.135  -1.854  23.916  0.00  0.00    -0.251 OA
ATOM     25  C   UNL     1       3.927  -1.750  23.767  0.00  0.00    +0.305 C 
BRANCH  25   5
ATOM      5  O   UNL     1       3.013  -2.290  24.614  0.00  0.00    -0.481 OA
ATOM     38  H   UNL     1       3.108  -1.941  25.525  0.00  0.00    +0.295 HD
ENDBRANCH  25   5
ENDBRANCH  22  25
ENDBRANCH  11  22
ENDBRANCH  18  11
ENDBRANCH  24  18
ENDBRANCH  14   7
TORSDOF 8
ENDMDL
MODEL 8
REMARK VINA RESULT:       7.5      2.290      5.736
REMARK  Name = 11913371
REMARK  8 active torsions:
REMARK  status: ('A' for Active; 'I' for Inactive)
REMARK    1  A    between atoms: O_5  and  C_25
REMARK    2  A    between atoms: N_7  and  C_14
REMARK    3  A    between atoms: N_8  and  C_17
REMARK    4  A    between atoms: C_11  and  C_18
REMARK    5  A    between atoms: C_11  and  C_22
REMARK    6  A    between atoms: C_18  and  C_24
REMARK    7  A    between atoms: C_22  and  C_25
REMARK    8  A    between atoms: C_27  and  C_30
REMARK                            x       y       z     vdW  Elec       q    Type
REMARK                         _______ _______ _______ _____ _____    ______ ____
ROOT
ATOM      2  O   UNL     1      -3.404   0.751  22.812  0.00  0.00    -0.370 OA
ATOM      3  O   UNL     1      -5.421  -0.782  24.633  0.00  0.00    -0.370 OA
ATOM     12  C   UNL     1      -4.332   0.115  24.908  0.00  0.00    +0.171 C 
ATOM     13  C   UNL     1      -3.241  -0.178  23.898  0.00  0.00    +0.171 C 
ATOM     14  C   UNL     1      -4.738   1.541  24.609  0.00  0.00    +0.130 C 
ATOM     17  C   UNL     1      -3.534  -1.585  23.433  0.00  0.00    +0.130 C 
ATOM     21  C   UNL     1      -4.487   1.643  23.114  0.00  0.00    +0.185 C 
ATOM     23  C   UNL     1      -5.043  -1.673  23.573  0.00  0.00    +0.185 C 
ENDROOT
BRANCH  17   8
ATOM      8  N   UNL     1      -2.893  -2.539  24.309  0.00  0.00    -0.306 N 
ATOM      9  N   UNL     1      -0.826  -1.510  24.074  0.00  0.00    -0.214 NA
ATOM     10  N   UNL     1      -1.100  -3.461  25.462  0.00  0.00    -0.223 NA
ATOM     26  C   UNL     1      -1.548  -2.502  24.630  0.00  0.00    +0.216 A 
ATOM     27  C   UNL     1       0.481  -1.504  24.408  0.00  0.00    +0.076 A 
ATOM     28  C   UNL     1       0.216  -3.395  25.751  0.00  0.00    +0.116 A 
ATOM     29  C   UNL     1       1.063  -2.429  25.250  0.00  0.00    +0.048 A 
ATOM     37  H   UNL     1      -3.453  -3.252  24.764  0.00  0.00    +0.149 HD
BRANCH  27  30
ATOM      1  F   UNL     1       4.586   0.117  22.452  0.00  0.00    -0.205 F 
ATOM     30  C   UNL     1       1.259  -0.441  23.816  0.00  0.00    +0.003 A 
ATOM     31  C   UNL     1       2.573  -0.680  23.412  0.00  0.00    +0.048 A 
ATOM     32  C   UNL     1       0.698   0.824  23.648  0.00  0.00    +0.010 A 
ATOM     33  C   UNL     1       3.324   0.346  22.840  0.00  0.00    +0.124 A 
ATOM     34  C   UNL     1       1.449   1.851  23.076  0.00  0.00    +0.003 A 
ATOM     35  C   UNL     1       2.763   1.612  22.672  0.00  0.00    +0.038 A 
ENDBRANCH  27  30
ENDBRANCH  17   8
BRANCH  14   7
ATOM      4  O   UNL     1      -5.450   4.231  25.401  0.00  0.00    -0.276 OA
ATOM      7  N   UNL     1      -3.924   2.479  25.342  0.00  0.00    -0.308 N 
ATOM     24  C   UNL     1      -4.352   3.757  25.679  0.00  0.00    +0.214 C 
ATOM     36  H   UNL     1      -3.007   2.168  25.645  0.00  0.00    +0.149 HD
BRANCH  24  18
ATOM     18  C   UNL     1      -3.290   4.519  26.450  0.00  0.00    +0.103 C 
BRANCH  18  11
ATOM     11  C   UNL     1      -1.900   4.383  25.825  0.00  0.00    -0.011 C 
ATOM     15  C   UNL     1      -1.367   5.735  25.331  0.00  0.00    +0.008 C 
ATOM     16  C   UNL     1      -1.943   3.572  24.521  0.00  0.00    +0.008 C 
ATOM     19  C   UNL     1      -0.328   5.388  24.268  0.00  0.00    +0.001 C 
ATOM     20  C   UNL     1      -0.699   3.999  23.747  0.00  0.00    +0.001 C 
BRANCH  11  22
ATOM     22  C   UNL     1      -0.945   3.745  26.847  0.00  0.00    +0.127 C 
BRANCH  22  25
ATOM      6  O   UNL     1      -1.202   1.458  26.040  0.00  0.00    -0.251 OA
ATOM     25  C   UNL     1      -0.492   2.386  26.396  0.00  0.00    +0.305 C 
BRANCH  25   5
ATOM      5  O   UNL     1       0.864   2.327  26.440  0.00  0.00    -0.481 OA
ATOM     38  H   UNL     1       1.228   1.760  25.728  0.00  0.00    +0.295 HD
ENDBRANCH  25   5
ENDBRANCH  22  25
ENDBRANCH  11  22
ENDBRANCH  18  11
ENDBRANCH  24  18
ENDBRANCH  14   7
TORSDOF 8
ENDMDL
MODEL 9
REMARK VINA RESULT:       7.5      2.859      6.092
REMARK  Name = 11913371
REMARK  8 active torsions:
REMARK  status: ('A' for Active; 'I' for Inactive)
REMARK    1  A    between atoms: O_5  and  C_25
REMARK    2  A    between atoms: N_7  and  C_14
REMARK    3  A    between atoms: N_8  and  C_17
REMARK    4  A    between atoms: C_11  and  C_18
REMARK    5  A    between atoms: C_11  and  C_22
REMARK    6  A    between atoms: C_18  and  C_24
REMARK    7  A    between atoms: C_22  and  C_25
REMARK    8  A    between atoms: C_27  and  C_30
REMARK                            x       y       z     vdW  Elec       q    Type
REMARK                         _______ _______ _______ _____ _____    ______ ____
ROOT
ATOM      2  O   UNL     1      -0.502   0.637  26.261  0.00  0.00    -0.370 OA
ATOM      3  O   UNL     1       1.196  -0.391  23.854  0.00  0.00    -0.370 OA
ATOM     12  C   UNL     1      -0.029   0.357  23.947  0.00  0.00    +0.171 C 
ATOM     13  C   UNL     1      -0.804  -0.193  25.127  0.00  0.00    +0.171 C 
ATOM     14  C   UNL     1       0.260   1.791  24.332  0.00  0.00    +0.130 C 
ATOM     17  C   UNL     1      -0.240  -1.580  25.327  0.00  0.00    +0.130 C 
ATOM     21  C   UNL     1       0.360   1.706  25.846  0.00  0.00    +0.185 C 
ATOM     23  C   UNL     1       1.192  -1.428  24.846  0.00  0.00    +0.185 C 
ENDROOT
BRANCH  17   8
ATOM      8  N   UNL     1      -0.949  -2.528  24.498  0.00  0.00    -0.306 N 
ATOM      9  N   UNL     1      -2.953  -1.381  24.736  0.00  0.00    -0.214 NA
ATOM     10  N   UNL     1      -2.813  -3.390  23.414  0.00  0.00    -0.223 NA
ATOM     26  C   UNL     1      -2.297  -2.429  24.203  0.00  0.00    +0.216 A 
ATOM     27  C   UNL     1      -4.265  -1.315  24.429  0.00  0.00    +0.076 A 
ATOM     28  C   UNL     1      -4.129  -3.263  23.148  0.00  0.00    +0.116 A 
ATOM     29  C   UNL     1      -4.913  -2.236  23.631  0.00  0.00    +0.048 A 
ATOM     37  H   UNL     1      -0.438  -3.284  24.057  0.00  0.00    +0.149 HD
BRANCH  27  30
ATOM      1  F   UNL     1      -7.644   2.118  24.126  0.00  0.00    -0.205 F 
ATOM     30  C   UNL     1      -4.972  -0.192  24.998  0.00  0.00    +0.003 A 
ATOM     31  C   UNL     1      -5.987   0.433  24.272  0.00  0.00    +0.048 A 
ATOM     32  C   UNL     1      -4.641   0.267  26.272  0.00  0.00    +0.010 A 
ATOM     33  C   UNL     1      -6.670   1.517  24.822  0.00  0.00    +0.124 A 
ATOM     34  C   UNL     1      -5.325   1.352  26.822  0.00  0.00    +0.003 A 
ATOM     35  C   UNL     1      -6.340   1.977  26.097  0.00  0.00    +0.038 A 
ENDBRANCH  27  30
ENDBRANCH  17   8
BRANCH  14   7
ATOM      4  O   UNL     1      -0.038   4.601  24.953  0.00  0.00    -0.276 OA
ATOM      7  N   UNL     1      -0.813   2.666  23.927  0.00  0.00    -0.308 N 
ATOM     24  C   UNL     1      -0.872   4.010  24.275  0.00  0.00    +0.214 C 
ATOM     36  H   UNL     1      -1.538   2.274  23.334  0.00  0.00    +0.149 HD
BRANCH  24  18
ATOM     18  C   UNL     1      -2.109   4.681  23.708  0.00  0.00    +0.103 C 
BRANCH  18  11
ATOM     11  C   UNL     1      -3.399   4.191  24.370  0.00  0.00    -0.011 C 
ATOM     15  C   UNL     1      -4.533   5.216  24.227  0.00  0.00    +0.008 C 
ATOM     16  C   UNL     1      -3.253   4.101  25.895  0.00  0.00    +0.008 C 
ATOM     19  C   UNL     1      -5.500   4.899  25.364  0.00  0.00    +0.001 C 
ATOM     20  C   UNL     1      -4.678   4.184  26.436  0.00  0.00    +0.001 C 
BRANCH  11  22
ATOM     22  C   UNL     1      -3.794   2.833  23.766  0.00  0.00    +0.127 C 
BRANCH  22  25
ATOM      6  O   UNL     1      -4.093   3.524  21.447  0.00  0.00    -0.251 OA
ATOM     25  C   UNL     1      -3.564   2.808  22.283  0.00  0.00    +0.305 C 
BRANCH  25   5
ATOM      5  O   UNL     1      -2.653   1.845  21.986  0.00  0.00    -0.481 OA
ATOM     38  H   UNL     1      -2.596   1.682  21.020  0.00  0.00    +0.295 HD
ENDBRANCH  25   5
ENDBRANCH  22  25
ENDBRANCH  11  22
ENDBRANCH  18  11
ENDBRANCH  24  18
ENDBRANCH  14   7
TORSDOF 8
ENDMDL
MODEL 10
REMARK VINA RESULT:       7.9      2.367      5.240
REMARK  Name = 11913371
REMARK  8 active torsions:
REMARK  status: ('A' for Active; 'I' for Inactive)
REMARK    1  A    between atoms: O_5  and  C_25
REMARK    2  A    between atoms: N_7  and  C_14
REMARK    3  A    between atoms: N_8  and  C_17
REMARK    4  A    between atoms: C_11  and  C_18
REMARK    5  A    between atoms: C_11  and  C_22
REMARK    6  A    between atoms: C_18  and  C_24
REMARK    7  A    between atoms: C_22  and  C_25
REMARK    8  A    between atoms: C_27  and  C_30
REMARK                            x       y       z     vdW  Elec       q    Type
REMARK                         _______ _______ _______ _____ _____    ______ ____
ROOT
ATOM      2  O   UNL     1      -1.631   3.115  23.210  0.00  0.00    -0.370 OA
ATOM      3  O   UNL     1      -1.424   5.372  25.355  0.00  0.00    -0.370 OA
ATOM     12  C   UNL     1      -1.462   3.937  25.436  0.00  0.00    +0.171 C 
ATOM     13  C   UNL     1      -2.418   3.450  24.366  0.00  0.00    +0.171 C 
ATOM     14  C   UNL     1      -0.127   3.353  25.031  0.00  0.00    +0.130 C 
ATOM     17  C   UNL     1      -3.292   4.648  24.076  0.00  0.00    +0.130 C 
ATOM     21  C   UNL     1      -0.241   3.302  23.517  0.00  0.00    +0.185 C 
ATOM     23  C   UNL     1      -2.361   5.813  24.361  0.00  0.00    +0.185 C 
ENDROOT
BRANCH  17   8
ATOM      8  N   UNL     1      -4.417   4.671  24.984  0.00  0.00    -0.306 N 
ATOM      9  N   UNL     1      -4.572   2.355  25.001  0.00  0.00    -0.214 NA
ATOM     10  N   UNL     1      -6.086   3.720  26.288  0.00  0.00    -0.223 NA
ATOM     26  C   UNL     1      -5.053   3.533  25.445  0.00  0.00    +0.216 A 
ATOM     27  C   UNL     1      -5.216   1.266  25.470  0.00  0.00    +0.076 A 
ATOM     28  C   UNL     1      -6.683   2.588  26.716  0.00  0.00    +0.116 A 
ATOM     29  C   UNL     1      -6.287   1.322  26.338  0.00  0.00    +0.048 A 
ATOM     37  H   UNL     1      -4.739   5.558  25.354  0.00  0.00    +0.149 HD
BRANCH  27  30
ATOM      1  F   UNL     1      -3.225  -3.048  26.324  0.00  0.00    -0.205 F 
ATOM     30  C   UNL     1      -4.703   0.002  24.998  0.00  0.00    +0.003 A 
ATOM     31  C   UNL     1      -4.202  -0.930  25.907  0.00  0.00    +0.048 A 
ATOM     32  C   UNL     1      -4.709  -0.288  23.634  0.00  0.00    +0.010 A 
ATOM     33  C   UNL     1      -3.707  -2.153  25.451  0.00  0.00    +0.124 A 
ATOM     34  C   UNL     1      -4.214  -1.510  23.178  0.00  0.00    +0.003 A 
ATOM     35  C   UNL     1      -3.713  -2.443  24.087  0.00  0.00    +0.038 A 
ENDBRANCH  27  30
ENDBRANCH  17   8
BRANCH  14   7
ATOM      4  O   UNL     1      -1.831   1.043  24.661  0.00  0.00    -0.276 OA
ATOM      7  N   UNL     1       0.056   2.035  25.587  0.00  0.00    -0.308 N 
ATOM     24  C   UNL     1      -0.819   0.981  25.353  0.00  0.00    +0.214 C 
ATOM     36  H   UNL     1       0.885   1.875  26.151  0.00  0.00    +0.149 HD
BRANCH  24  18
ATOM     18  C   UNL     1      -0.374  -0.284  26.063  0.00  0.00    +0.103 C 
BRANCH  18  11
ATOM     11  C   UNL     1      -0.051  -1.420  25.090  0.00  0.00    -0.011 C 
ATOM     15  C   UNL     1      -1.143  -1.580  24.023  0.00  0.00    +0.008 C 
ATOM     16  C   UNL     1      -0.094  -2.789  25.785  0.00  0.00    +0.008 C 
ATOM     19  C   UNL     1      -1.011  -3.019  23.532  0.00  0.00    +0.001 C 
ATOM     20  C   UNL     1      -0.338  -3.796  24.665  0.00  0.00    +0.001 C 
BRANCH  11  22
ATOM     22  C   UNL     1       1.323  -1.163  24.450  0.00  0.00    +0.127 C 
BRANCH  22  25
ATOM      6  O   UNL     1       0.544  -0.282  22.314  0.00  0.00    -0.251 OA
ATOM     25  C   UNL     1       1.223  -0.176  23.324  0.00  0.00    +0.305 C 
BRANCH  25   5
ATOM      5  O   UNL     1       2.020   0.891  23.589  0.00  0.00    -0.481 OA
ATOM     38  H   UNL     1       1.994   1.556  22.868  0.00  0.00    +0.295 HD
ENDBRANCH  25   5
ENDBRANCH  22  25
ENDBRANCH  11  22
ENDBRANCH  18  11
ENDBRANCH  24  18
ENDBRANCH  14   7
TORSDOF 8
ENDMDL
