MODEL 1
REMARK VINA RESULT:       0.9      0.000      0.000
REMARK  Name = 38031254
REMARK  12 active torsions:
REMARK  status: ('A' for Active; 'I' for Inactive)
REMARK    1  A    between atoms: O_4  and  C_34
REMARK    2  A    between atoms: O_4  and  C_35
REMARK    3  A    between atoms: N_5  and  C_15
REMARK    4  A    between atoms: C_8  and  C_12
REMARK    5  A    between atoms: C_9  and  C_15
REMARK    6  A    between atoms: C_11  and  C_16
REMARK    7  A    between atoms: C_12  and  C_17
REMARK    8  A    between atoms: C_12  and  C_18
REMARK    9  A    between atoms: C_13  and  C_19
REMARK   10  A    between atoms: C_16  and  C_20
REMARK   11  A    between atoms: C_21  and  C_23
REMARK   12  A    between atoms: C_22  and  C_24
REMARK                            x       y       z     vdW  Elec       q    Type
REMARK                         _______ _______ _______ _____ _____    ______ ____
ROOT
ATOM      8  C   UNL     1      -2.683   2.730  23.458  0.00  0.00    +0.000 C 
ATOM      9  C   UNL     1      -1.160   2.463  23.357  0.00  0.00    +0.032 C 
ATOM     10  C   UNL     1      -2.955   4.237  23.589  0.00  0.00    +0.012 C 
ATOM     11  C   UNL     1      -2.270   4.848  24.825  0.00  0.00    +0.024 C 
ATOM     13  C   UNL     1      -0.824   4.408  24.942  0.00  0.00    -0.073 C 
ATOM     14  C   UNL     1      -0.342   3.349  24.268  0.00  0.00    -0.022 C 
ATOM     19  C   UNL     1       0.069   5.244  25.816  0.00  0.00    +0.039 C 
ENDROOT
BRANCH   8  12
ATOM     12  C   UNL     1      -3.440   2.169  22.250  0.00  0.00    -0.013 C 
ATOM     17  C   UNL     1      -2.467   1.548  21.254  0.00  0.00    +0.007 C 
ATOM     18  C   UNL     1      -4.268   3.266  21.586  0.00  0.00    +0.007 C 
ENDBRANCH   8  12
BRANCH   9  15
ATOM     15  C   UNL     1      -0.836   0.993  23.649  0.00  0.00    +0.112 C 
BRANCH  15   5
ATOM      3  O   UNL     1       0.853  -0.385  21.780  0.00  0.00    -0.270 OA
ATOM      5  N   UNL     1       0.576   0.797  23.758  0.00  0.00    -0.311 N 
ATOM     21  C   UNL     1       1.323   0.113  22.800  0.00  0.00    +0.244 C 
ATOM     36  H   UNL     1       1.030   1.175  24.581  0.00  0.00    +0.149 HD
BRANCH  21  23
ATOM      1  F   UNL     1       6.815  -0.424  23.835  0.00  0.00    -0.205 F 
ATOM     23  C   UNL     1       2.776  -0.029  23.074  0.00  0.00    +0.037 A 
ATOM     25  C   UNL     1       3.640   1.036  22.826  0.00  0.00    +0.016 A 
ATOM     26  C   UNL     1       3.276  -1.230  23.579  0.00  0.00    +0.016 A 
ATOM     29  C   UNL     1       5.004   0.904  23.084  0.00  0.00    +0.039 A 
ATOM     30  C   UNL     1       4.641  -1.363  23.836  0.00  0.00    +0.039 A 
ATOM     31  C   UNL     1       5.505  -0.296  23.588  0.00  0.00    +0.123 A 
ENDBRANCH  21  23
ENDBRANCH  15   5
ENDBRANCH   9  15
BRANCH  11  16
ATOM     16  C   UNL     1      -3.046   4.522  26.105  0.00  0.00    +0.105 C 
BRANCH  16  20
ATOM      2  O   UNL     1      -3.362   2.155  25.599  0.00  0.00    -0.420 OA
ATOM      6  N   UNL     1      -5.262   3.269  25.993  0.00  0.00    -0.112 NA
ATOM      7  N   UNL     1      -5.588   1.953  25.724  0.00  0.00    -0.107 NA
ATOM     20  C   UNL     1      -3.954   3.341  25.910  0.00  0.00    +0.218 A 
ATOM     22  C   UNL     1      -4.449   1.341  25.499  0.00  0.00    +0.248 A 
BRANCH  22  24
ATOM     24  C   UNL     1      -4.177  -0.030  25.172  0.00  0.00    +0.039 A 
ATOM     27  C   UNL     1      -3.452  -0.828  26.058  0.00  0.00    +0.017 A 
ATOM     28  C   UNL     1      -4.638  -0.564  23.969  0.00  0.00    +0.017 A 
ATOM     32  C   UNL     1      -3.188  -2.160  25.739  0.00  0.00    +0.046 A 
ATOM     33  C   UNL     1      -4.374  -1.896  23.651  0.00  0.00    +0.046 A 
ATOM     34  C   UNL     1      -3.649  -2.695  24.536  0.00  0.00    +0.120 A 
BRANCH  34   4
ATOM      4  O   UNL     1      -3.391  -3.994  24.225  0.00  0.00    -0.495 OA
ATOM     35  C   UNL     1      -2.406  -4.239  23.223  0.00  0.00    +0.277 C 
ENDBRANCH  34   4
ENDBRANCH  22  24
ENDBRANCH  16  20
ENDBRANCH  11  16
TORSDOF 8
ENDMDL
MODEL 2
REMARK VINA RESULT:       1.3      2.619      6.395
REMARK  Name = 38031254
REMARK  12 active torsions:
REMARK  status: ('A' for Active; 'I' for Inactive)
REMARK    1  A    between atoms: O_4  and  C_34
REMARK    2  A    between atoms: O_4  and  C_35
REMARK    3  A    between atoms: N_5  and  C_15
REMARK    4  A    between atoms: C_8  and  C_12
REMARK    5  A    between atoms: C_9  and  C_15
REMARK    6  A    between atoms: C_11  and  C_16
REMARK    7  A    between atoms: C_12  and  C_17
REMARK    8  A    between atoms: C_12  and  C_18
REMARK    9  A    between atoms: C_13  and  C_19
REMARK   10  A    between atoms: C_16  and  C_20
REMARK   11  A    between atoms: C_21  and  C_23
REMARK   12  A    between atoms: C_22  and  C_24
REMARK                            x       y       z     vdW  Elec       q    Type
REMARK                         _______ _______ _______ _____ _____    ______ ____
ROOT
ATOM      8  C   UNL     1      -4.128   3.492  25.319  0.00  0.00    +0.000 C 
ATOM      9  C   UNL     1      -3.842   4.001  23.883  0.00  0.00    +0.032 C 
ATOM     10  C   UNL     1      -3.414   4.377  26.353  0.00  0.00    +0.012 C 
ATOM     11  C   UNL     1      -1.889   4.406  26.141  0.00  0.00    +0.024 C 
ATOM     13  C   UNL     1      -1.527   4.638  24.688  0.00  0.00    -0.073 C 
ATOM     14  C   UNL     1      -2.416   4.466  23.693  0.00  0.00    -0.022 C 
ATOM     19  C   UNL     1      -0.131   5.118  24.406  0.00  0.00    +0.039 C 
ENDROOT
BRANCH   8  12
ATOM     12  C   UNL     1      -5.630   3.453  25.618  0.00  0.00    -0.013 C 
ATOM     17  C   UNL     1      -6.179   4.866  25.775  0.00  0.00    +0.007 C 
ATOM     18  C   UNL     1      -5.900   2.625  26.872  0.00  0.00    +0.007 C 
ENDBRANCH   8  12
BRANCH   9  15
ATOM     15  C   UNL     1      -4.172   2.928  22.840  0.00  0.00    +0.112 C 
BRANCH  15   5
ATOM      3  O   UNL     1      -5.948   1.095  24.157  0.00  0.00    -0.270 OA
ATOM      5  N   UNL     1      -3.845   1.626  23.330  0.00  0.00    -0.311 N 
ATOM     21  C   UNL     1      -4.773   0.797  23.960  0.00  0.00    +0.244 C 
ATOM     36  H   UNL     1      -2.888   1.316  23.210  0.00  0.00    +0.149 HD
BRANCH  21  23
ATOM      1  F   UNL     1      -2.867  -4.168  25.761  0.00  0.00    -0.205 F 
ATOM     23  C   UNL     1      -4.269  -0.517  24.436  0.00  0.00    +0.037 A 
ATOM     25  C   UNL     1      -4.330  -1.632  23.602  0.00  0.00    +0.016 A 
ATOM     26  C   UNL     1      -3.734  -0.635  25.720  0.00  0.00    +0.016 A 
ATOM     29  C   UNL     1      -3.856  -2.865  24.048  0.00  0.00    +0.039 A 
ATOM     30  C   UNL     1      -3.261  -1.868  26.168  0.00  0.00    +0.039 A 
ATOM     31  C   UNL     1      -3.321  -2.983  25.332  0.00  0.00    +0.123 A 
ENDBRANCH  21  23
ENDBRANCH  15   5
ENDBRANCH   9  15
BRANCH  11  16
ATOM     16  C   UNL     1      -1.233   3.128  26.672  0.00  0.00    +0.105 C 
BRANCH  16  20
ATOM      2  O   UNL     1       0.490   2.083  25.293  0.00  0.00    -0.420 OA
ATOM      6  N   UNL     1      -1.599   1.482  24.762  0.00  0.00    -0.112 NA
ATOM      7  N   UNL     1      -0.735   0.821  23.909  0.00  0.00    -0.107 NA
ATOM     20  C   UNL     1      -0.841   2.206  25.552  0.00  0.00    +0.218 A 
ATOM     22  C   UNL     1       0.472   1.203  24.255  0.00  0.00    +0.248 A 
BRANCH  22  24
ATOM     24  C   UNL     1       1.753   0.840  23.719  0.00  0.00    +0.039 A 
ATOM     27  C   UNL     1       2.129  -0.502  23.659  0.00  0.00    +0.017 A 
ATOM     28  C   UNL     1       2.621   1.830  23.259  0.00  0.00    +0.017 A 
ATOM     32  C   UNL     1       3.374  -0.853  23.137  0.00  0.00    +0.046 A 
ATOM     33  C   UNL     1       3.866   1.478  22.738  0.00  0.00    +0.046 A 
ATOM     34  C   UNL     1       4.243   0.136  22.676  0.00  0.00    +0.120 A 
BRANCH  34   4
ATOM      4  O   UNL     1       5.458  -0.207  22.168  0.00  0.00    -0.495 OA
ATOM     35  C   UNL     1       6.543  -0.305  23.089  0.00  0.00    +0.277 C 
ENDBRANCH  34   4
ENDBRANCH  22  24
ENDBRANCH  16  20
ENDBRANCH  11  16
TORSDOF 8
ENDMDL
MODEL 3
REMARK VINA RESULT:       1.5      2.735      5.721
REMARK  Name = 38031254
REMARK  12 active torsions:
REMARK  status: ('A' for Active; 'I' for Inactive)
REMARK    1  A    between atoms: O_4  and  C_34
REMARK    2  A    between atoms: O_4  and  C_35
REMARK    3  A    between atoms: N_5  and  C_15
REMARK    4  A    between atoms: C_8  and  C_12
REMARK    5  A    between atoms: C_9  and  C_15
REMARK    6  A    between atoms: C_11  and  C_16
REMARK    7  A    between atoms: C_12  and  C_17
REMARK    8  A    between atoms: C_12  and  C_18
REMARK    9  A    between atoms: C_13  and  C_19
REMARK   10  A    between atoms: C_16  and  C_20
REMARK   11  A    between atoms: C_21  and  C_23
REMARK   12  A    between atoms: C_22  and  C_24
REMARK                            x       y       z     vdW  Elec       q    Type
REMARK                         _______ _______ _______ _____ _____    ______ ____
ROOT
ATOM      8  C   UNL     1      -1.695   4.195  24.748  0.00  0.00    +0.000 C 
ATOM      9  C   UNL     1      -2.005   3.543  26.119  0.00  0.00    +0.032 C 
ATOM     10  C   UNL     1      -2.873   5.070  24.293  0.00  0.00    +0.012 C 
ATOM     11  C   UNL     1      -4.181   4.268  24.167  0.00  0.00    +0.024 C 
ATOM     13  C   UNL     1      -4.420   3.387  25.377  0.00  0.00    -0.073 C 
ATOM     14  C   UNL     1      -3.440   3.086  26.246  0.00  0.00    -0.022 C 
ATOM     19  C   UNL     1      -5.826   2.899  25.592  0.00  0.00    +0.039 C 
ENDROOT
BRANCH   8  12
ATOM     12  C   UNL     1      -0.414   5.032  24.794  0.00  0.00    -0.013 C 
ATOM     17  C   UNL     1      -0.748   6.506  24.995  0.00  0.00    +0.007 C 
ATOM     18  C   UNL     1       0.400   4.831  23.518  0.00  0.00    +0.007 C 
ENDBRANCH   8  12
BRANCH   9  15
ATOM     15  C   UNL     1      -1.067   2.363  26.395  0.00  0.00    +0.112 C 
BRANCH  15   5
ATOM      3  O   UNL     1      -0.610  -0.309  27.344  0.00  0.00    -0.270 OA
ATOM      5  N   UNL     1      -1.591   1.156  25.835  0.00  0.00    -0.311 N 
ATOM     21  C   UNL     1      -1.318  -0.106  26.361  0.00  0.00    +0.244 C 
ATOM     36  H   UNL     1      -2.179   1.247  25.014  0.00  0.00    +0.149 HD
BRANCH  21  23
ATOM      1  F   UNL     1      -3.584  -4.479  23.665  0.00  0.00    -0.205 F 
ATOM     23  C   UNL     1      -1.917  -1.263  25.648  0.00  0.00    +0.037 A 
ATOM     25  C   UNL     1      -1.117  -2.084  24.854  0.00  0.00    +0.016 A 
ATOM     26  C   UNL     1      -3.282  -1.528  25.772  0.00  0.00    +0.016 A 
ATOM     29  C   UNL     1      -1.679  -3.171  24.185  0.00  0.00    +0.039 A 
ATOM     30  C   UNL     1      -3.845  -2.614  25.102  0.00  0.00    +0.039 A 
ATOM     31  C   UNL     1      -3.043  -3.436  24.309  0.00  0.00    +0.123 A 
ENDBRANCH  21  23
ENDBRANCH  15   5
ENDBRANCH   9  15
BRANCH  11  16
ATOM     16  C   UNL     1      -4.201   3.442  22.876  0.00  0.00    +0.105 C 
BRANCH  16  20
ATOM      2  O   UNL     1      -2.059   2.272  22.821  0.00  0.00    -0.420 OA
ATOM      6  N   UNL     1      -3.804   0.965  23.321  0.00  0.00    -0.112 NA
ATOM      7  N   UNL     1      -2.667   0.179  23.326  0.00  0.00    -0.107 NA
ATOM     20  C   UNL     1      -3.402   2.178  23.022  0.00  0.00    +0.218 A 
ATOM     22  C   UNL     1      -1.674   0.984  23.028  0.00  0.00    +0.248 A 
BRANCH  22  24
ATOM     24  C   UNL     1      -0.270   0.719  22.891  0.00  0.00    +0.039 A 
ATOM     27  C   UNL     1       0.653   1.434  23.654  0.00  0.00    +0.017 A 
ATOM     28  C   UNL     1       0.171  -0.254  21.993  0.00  0.00    +0.017 A 
ATOM     32  C   UNL     1       2.017   1.176  23.520  0.00  0.00    +0.046 A 
ATOM     33  C   UNL     1       1.536  -0.511  21.859  0.00  0.00    +0.046 A 
ATOM     34  C   UNL     1       2.459   0.204  22.623  0.00  0.00    +0.120 A 
BRANCH  34   4
ATOM      4  O   UNL     1       3.790  -0.047  22.492  0.00  0.00    -0.495 OA
ATOM     35  C   UNL     1       4.684   0.783  23.230  0.00  0.00    +0.277 C 
ENDBRANCH  34   4
ENDBRANCH  22  24
ENDBRANCH  16  20
ENDBRANCH  11  16
TORSDOF 8
ENDMDL
MODEL 4
REMARK VINA RESULT:       1.8      2.690      5.740
REMARK  Name = 38031254
REMARK  12 active torsions:
REMARK  status: ('A' for Active; 'I' for Inactive)
REMARK    1  A    between atoms: O_4  and  C_34
REMARK    2  A    between atoms: O_4  and  C_35
REMARK    3  A    between atoms: N_5  and  C_15
REMARK    4  A    between atoms: C_8  and  C_12
REMARK    5  A    between atoms: C_9  and  C_15
REMARK    6  A    between atoms: C_11  and  C_16
REMARK    7  A    between atoms: C_12  and  C_17
REMARK    8  A    between atoms: C_12  and  C_18
REMARK    9  A    between atoms: C_13  and  C_19
REMARK   10  A    between atoms: C_16  and  C_20
REMARK   11  A    between atoms: C_21  and  C_23
REMARK   12  A    between atoms: C_22  and  C_24
REMARK                            x       y       z     vdW  Elec       q    Type
REMARK                         _______ _______ _______ _____ _____    ______ ____
ROOT
ATOM      8  C   UNL     1      -3.401   2.082  23.873  0.00  0.00    +0.000 C 
ATOM      9  C   UNL     1      -4.243   3.300  24.330  0.00  0.00    +0.032 C 
ATOM     10  C   UNL     1      -4.283   0.828  23.777  0.00  0.00    +0.012 C 
ATOM     11  C   UNL     1      -4.954   0.481  25.120  0.00  0.00    +0.024 C 
ATOM     13  C   UNL     1      -5.579   1.700  25.767  0.00  0.00    -0.073 C 
ATOM     14  C   UNL     1      -5.261   2.952  25.392  0.00  0.00    -0.022 C 
ATOM     19  C   UNL     1      -6.617   1.447  26.825  0.00  0.00    +0.039 C 
ENDROOT
BRANCH   8  12
ATOM     12  C   UNL     1      -2.715   2.338  22.528  0.00  0.00    -0.013 C 
ATOM     17  C   UNL     1      -3.595   3.210  21.639  0.00  0.00    +0.007 C 
ATOM     18  C   UNL     1      -2.388   1.017  21.838  0.00  0.00    +0.007 C 
ENDBRANCH   8  12
BRANCH   9  15
ATOM     15  C   UNL     1      -3.345   4.434  24.836  0.00  0.00    +0.112 C 
BRANCH  15   5
ATOM      3  O   UNL     1      -0.513   4.024  24.591  0.00  0.00    -0.270 OA
ATOM      5  N   UNL     1      -2.459   3.964  25.855  0.00  0.00    -0.311 N 
ATOM     21  C   UNL     1      -1.090   3.793  25.651  0.00  0.00    +0.244 C 
ATOM     36  H   UNL     1      -2.869   3.745  26.756  0.00  0.00    +0.149 HD
BRANCH  21  23
ATOM      1  F   UNL     1       1.858   1.819  30.002  0.00  0.00    -0.205 F 
ATOM     23  C   UNL     1      -0.310   3.271  26.802  0.00  0.00    +0.037 A 
ATOM     25  C   UNL     1      -0.942   3.033  28.022  0.00  0.00    +0.016 A 
ATOM     26  C   UNL     1       1.055   3.019  26.662  0.00  0.00    +0.016 A 
ATOM     29  C   UNL     1      -0.210   2.541  29.103  0.00  0.00    +0.039 A 
ATOM     30  C   UNL     1       1.788   2.529  27.743  0.00  0.00    +0.039 A 
ATOM     31  C   UNL     1       1.155   2.290  28.963  0.00  0.00    +0.123 A 
ENDBRANCH  21  23
ENDBRANCH  15   5
ENDBRANCH   9  15
BRANCH  11  16
ATOM     16  C   UNL     1      -3.964  -0.198  26.072  0.00  0.00    +0.105 C 
BRANCH  16  20
ATOM      2  O   UNL     1      -1.756  -0.051  25.042  0.00  0.00    -0.420 OA
ATOM      6  N   UNL     1      -2.710  -2.068  24.879  0.00  0.00    -0.112 NA
ATOM      7  N   UNL     1      -1.477  -2.129  24.260  0.00  0.00    -0.107 NA
ATOM     20  C   UNL     1      -2.831  -0.838  25.321  0.00  0.00    +0.218 A 
ATOM     22  C   UNL     1      -0.956  -0.930  24.378  0.00  0.00    +0.248 A 
BRANCH  22  24
ATOM     24  C   UNL     1       0.304  -0.413  23.926  0.00  0.00    +0.039 A 
ATOM     27  C   UNL     1       1.319  -1.288  23.541  0.00  0.00    +0.017 A 
ATOM     28  C   UNL     1       0.512   0.965  23.871  0.00  0.00    +0.017 A 
ATOM     32  C   UNL     1       2.544  -0.785  23.101  0.00  0.00    +0.046 A 
ATOM     33  C   UNL     1       1.736   1.468  23.432  0.00  0.00    +0.046 A 
ATOM     34  C   UNL     1       2.753   0.593  23.046  0.00  0.00    +0.120 A 
BRANCH  34   4
ATOM      4  O   UNL     1       3.947   1.084  22.617  0.00  0.00    -0.495 OA
ATOM     35  C   UNL     1       5.125   0.450  23.112  0.00  0.00    +0.277 C 
ENDBRANCH  34   4
ENDBRANCH  22  24
ENDBRANCH  16  20
ENDBRANCH  11  16
TORSDOF 8
ENDMDL
MODEL 5
REMARK VINA RESULT:       2.3      1.360      1.945
REMARK  Name = 38031254
REMARK  12 active torsions:
REMARK  status: ('A' for Active; 'I' for Inactive)
REMARK    1  A    between atoms: O_4  and  C_34
REMARK    2  A    between atoms: O_4  and  C_35
REMARK    3  A    between atoms: N_5  and  C_15
REMARK    4  A    between atoms: C_8  and  C_12
REMARK    5  A    between atoms: C_9  and  C_15
REMARK    6  A    between atoms: C_11  and  C_16
REMARK    7  A    between atoms: C_12  and  C_17
REMARK    8  A    between atoms: C_12  and  C_18
REMARK    9  A    between atoms: C_13  and  C_19
REMARK   10  A    between atoms: C_16  and  C_20
REMARK   11  A    between atoms: C_21  and  C_23
REMARK   12  A    between atoms: C_22  and  C_24
REMARK                            x       y       z     vdW  Elec       q    Type
REMARK                         _______ _______ _______ _____ _____    ______ ____
ROOT
ATOM      8  C   UNL     1      -3.079   2.908  23.572  0.00  0.00    +0.000 C 
ATOM      9  C   UNL     1      -1.767   2.786  24.387  0.00  0.00    +0.032 C 
ATOM     10  C   UNL     1      -3.734   4.277  23.814  0.00  0.00    +0.012 C 
ATOM     11  C   UNL     1      -4.060   4.513  25.300  0.00  0.00    +0.024 C 
ATOM     13  C   UNL     1      -2.891   4.155  26.196  0.00  0.00    -0.073 C 
ATOM     14  C   UNL     1      -1.868   3.394  25.767  0.00  0.00    -0.022 C 
ATOM     19  C   UNL     1      -2.901   4.731  27.584  0.00  0.00    +0.039 C 
ENDROOT
BRANCH   8  12
ATOM     12  C   UNL     1      -2.838   2.706  22.073  0.00  0.00    -0.013 C 
ATOM     17  C   UNL     1      -3.971   3.325  21.263  0.00  0.00    +0.007 C 
ATOM     18  C   UNL     1      -2.692   1.220  21.753  0.00  0.00    +0.007 C 
ENDBRANCH   8  12
BRANCH   9  15
ATOM     15  C   UNL     1      -1.323   1.324  24.505  0.00  0.00    +0.112 C 
BRANCH  15   5
ATOM      3  O   UNL     1      -0.041  -0.695  22.915  0.00  0.00    -0.270 OA
ATOM      5  N   UNL     1       0.079   1.197  24.254  0.00  0.00    -0.311 N 
ATOM     21  C   UNL     1       0.620   0.181  23.466  0.00  0.00    +0.244 C 
ATOM     36  H   UNL     1       0.687   1.883  24.685  0.00  0.00    +0.149 HD
BRANCH  21  23
ATOM      1  F   UNL     1       6.209   0.146  22.931  0.00  0.00    -0.205 F 
ATOM     23  C   UNL     1       2.098   0.172  23.324  0.00  0.00    +0.037 A 
ATOM     25  C   UNL     1       2.765   1.318  22.895  0.00  0.00    +0.016 A 
ATOM     26  C   UNL     1       2.820  -0.985  23.621  0.00  0.00    +0.016 A 
ATOM     29  C   UNL     1       4.154   1.311  22.763  0.00  0.00    +0.039 A 
ATOM     30  C   UNL     1       4.208  -0.994  23.488  0.00  0.00    +0.039 A 
ATOM     31  C   UNL     1       4.875   0.154  23.059  0.00  0.00    +0.123 A 
ENDBRANCH  21  23
ENDBRANCH  15   5
ENDBRANCH   9  15
BRANCH  11  16
ATOM     16  C   UNL     1      -5.323   3.753  25.717  0.00  0.00    +0.105 C 
BRANCH  16  20
ATOM      2  O   UNL     1      -4.193   1.603  25.471  0.00  0.00    -0.420 OA
ATOM      6  N   UNL     1      -6.219   1.687  24.524  0.00  0.00    -0.112 NA
ATOM      7  N   UNL     1      -5.700   0.424  24.311  0.00  0.00    -0.107 NA
ATOM     20  C   UNL     1      -5.306   2.340  25.205  0.00  0.00    +0.218 A 
ATOM     22  C   UNL     1      -4.517   0.421  24.879  0.00  0.00    +0.248 A 
BRANCH  22  24
ATOM     24  C   UNL     1      -3.532  -0.618  24.973  0.00  0.00    +0.039 A 
ATOM     27  C   UNL     1      -3.588  -1.712  24.109  0.00  0.00    +0.017 A 
ATOM     28  C   UNL     1      -2.519  -0.533  25.928  0.00  0.00    +0.017 A 
ATOM     32  C   UNL     1      -2.629  -2.722  24.201  0.00  0.00    +0.046 A 
ATOM     33  C   UNL     1      -1.561  -1.544  26.020  0.00  0.00    +0.046 A 
ATOM     34  C   UNL     1      -1.616  -2.638  25.156  0.00  0.00    +0.120 A 
BRANCH  34   4
ATOM      4  O   UNL     1      -0.681  -3.623  25.246  0.00  0.00    -0.495 OA
ATOM     35  C   UNL     1       0.655  -3.225  25.544  0.00  0.00    +0.277 C 
ENDBRANCH  34   4
ENDBRANCH  22  24
ENDBRANCH  16  20
ENDBRANCH  11  16
TORSDOF 8
ENDMDL
MODEL 6
REMARK VINA RESULT:       3.1      1.553      5.206
REMARK  Name = 38031254
REMARK  12 active torsions:
REMARK  status: ('A' for Active; 'I' for Inactive)
REMARK    1  A    between atoms: O_4  and  C_34
REMARK    2  A    between atoms: O_4  and  C_35
REMARK    3  A    between atoms: N_5  and  C_15
REMARK    4  A    between atoms: C_8  and  C_12
REMARK    5  A    between atoms: C_9  and  C_15
REMARK    6  A    between atoms: C_11  and  C_16
REMARK    7  A    between atoms: C_12  and  C_17
REMARK    8  A    between atoms: C_12  and  C_18
REMARK    9  A    between atoms: C_13  and  C_19
REMARK   10  A    between atoms: C_16  and  C_20
REMARK   11  A    between atoms: C_21  and  C_23
REMARK   12  A    between atoms: C_22  and  C_24
REMARK                            x       y       z     vdW  Elec       q    Type
REMARK                         _______ _______ _______ _____ _____    ______ ____
ROOT
ATOM      8  C   UNL     1      -2.183  -0.320  25.024  0.00  0.00    +0.000 C 
ATOM      9  C   UNL     1      -1.222  -1.337  24.359  0.00  0.00    +0.032 C 
ATOM     10  C   UNL     1      -3.219  -1.051  25.891  0.00  0.00    +0.012 C 
ATOM     11  C   UNL     1      -4.058  -2.054  25.077  0.00  0.00    +0.024 C 
ATOM     13  C   UNL     1      -3.190  -2.919  24.186  0.00  0.00    -0.073 C 
ATOM     14  C   UNL     1      -1.921  -2.591  23.887  0.00  0.00    -0.022 C 
ATOM     19  C   UNL     1      -3.801  -4.198  23.682  0.00  0.00    +0.039 C 
ENDROOT
BRANCH   8  12
ATOM     12  C   UNL     1      -1.426   0.705  25.874  0.00  0.00    -0.013 C 
ATOM     17  C   UNL     1      -0.544   1.581  24.991  0.00  0.00    +0.007 C 
ATOM     18  C   UNL     1      -0.593  -0.000  26.941  0.00  0.00    +0.007 C 
ENDBRANCH   8  12
BRANCH   9  15
ATOM     15  C   UNL     1      -0.469  -0.700  23.186  0.00  0.00    +0.112 C 
BRANCH  15   5
ATOM      3  O   UNL     1       1.661  -0.283  21.304  0.00  0.00    -0.270 OA
ATOM      5  N   UNL     1       0.923  -0.570  23.486  0.00  0.00    -0.311 N 
ATOM     21  C   UNL     1       1.895  -0.368  22.507  0.00  0.00    +0.244 C 
ATOM     36  H   UNL     1       1.192  -0.639  24.461  0.00  0.00    +0.149 HD
BRANCH  21  23
ATOM      1  F   UNL     1       7.207  -0.037  24.295  0.00  0.00    -0.205 F 
ATOM     23  C   UNL     1       3.301  -0.280  22.980  0.00  0.00    +0.037 A 
ATOM     25  C   UNL     1       4.021   0.901  22.811  0.00  0.00    +0.016 A 
ATOM     26  C   UNL     1       3.900  -1.381  23.594  0.00  0.00    +0.016 A 
ATOM     29  C   UNL     1       5.340   0.984  23.256  0.00  0.00    +0.039 A 
ATOM     30  C   UNL     1       5.220  -1.299  24.038  0.00  0.00    +0.039 A 
ATOM     31  C   UNL     1       5.940  -0.116  23.869  0.00  0.00    +0.123 A 
ENDBRANCH  21  23
ENDBRANCH  15   5
ENDBRANCH   9  15
BRANCH  11  16
ATOM     16  C   UNL     1      -5.138  -1.336  24.261  0.00  0.00    +0.105 C 
BRANCH  16  20
ATOM      2  O   UNL     1      -4.183   0.891  24.553  0.00  0.00    -0.420 OA
ATOM      6  N   UNL     1      -6.327   0.725  25.171  0.00  0.00    -0.112 NA
ATOM      7  N   UNL     1      -5.921   2.028  25.389  0.00  0.00    -0.107 NA
ATOM     20  C   UNL     1      -5.282   0.098  24.683  0.00  0.00    +0.218 A 
ATOM     22  C   UNL     1      -4.664   2.078  25.015  0.00  0.00    +0.248 A 
BRANCH  22  24
ATOM     24  C   UNL     1      -3.735   3.172  25.016  0.00  0.00    +0.039 A 
ATOM     27  C   UNL     1      -3.158   3.598  23.820  0.00  0.00    +0.017 A 
ATOM     28  C   UNL     1      -3.410   3.809  26.214  0.00  0.00    +0.017 A 
ATOM     32  C   UNL     1      -2.255   4.662  23.822  0.00  0.00    +0.046 A 
ATOM     33  C   UNL     1      -2.507   4.872  26.216  0.00  0.00    +0.046 A 
ATOM     34  C   UNL     1      -1.929   5.299  25.019  0.00  0.00    +0.120 A 
BRANCH  34   4
ATOM      4  O   UNL     1      -1.048   6.336  25.022  0.00  0.00    -0.495 OA
ATOM     35  C   UNL     1       0.237   6.098  24.451  0.00  0.00    +0.277 C 
ENDBRANCH  34   4
ENDBRANCH  22  24
ENDBRANCH  16  20
ENDBRANCH  11  16
TORSDOF 8
ENDMDL
MODEL 7
REMARK VINA RESULT:       3.9      1.430      2.229
REMARK  Name = 38031254
REMARK  12 active torsions:
REMARK  status: ('A' for Active; 'I' for Inactive)
REMARK    1  A    between atoms: O_4  and  C_34
REMARK    2  A    between atoms: O_4  and  C_35
REMARK    3  A    between atoms: N_5  and  C_15
REMARK    4  A    between atoms: C_8  and  C_12
REMARK    5  A    between atoms: C_9  and  C_15
REMARK    6  A    between atoms: C_11  and  C_16
REMARK    7  A    between atoms: C_12  and  C_17
REMARK    8  A    between atoms: C_12  and  C_18
REMARK    9  A    between atoms: C_13  and  C_19
REMARK   10  A    between atoms: C_16  and  C_20
REMARK   11  A    between atoms: C_21  and  C_23
REMARK   12  A    between atoms: C_22  and  C_24
REMARK                            x       y       z     vdW  Elec       q    Type
REMARK                         _______ _______ _______ _____ _____    ______ ____
ROOT
ATOM      8  C   UNL     1      -1.370   3.967  24.237  0.00  0.00    +0.000 C 
ATOM      9  C   UNL     1      -0.876   3.015  25.355  0.00  0.00    +0.032 C 
ATOM     10  C   UNL     1      -1.900   5.276  24.843  0.00  0.00    +0.012 C 
ATOM     11  C   UNL     1      -3.061   5.036  25.826  0.00  0.00    +0.024 C 
ATOM     13  C   UNL     1      -2.751   3.916  26.799  0.00  0.00    -0.073 C 
ATOM     14  C   UNL     1      -1.762   3.031  26.580  0.00  0.00    -0.022 C 
ATOM     19  C   UNL     1      -3.574   3.865  28.056  0.00  0.00    +0.039 C 
ENDROOT
BRANCH   8  12
ATOM     12  C   UNL     1      -0.263   4.275  23.224  0.00  0.00    -0.013 C 
ATOM     17  C   UNL     1       1.048   3.628  23.655  0.00  0.00    +0.007 C 
ATOM     18  C   UNL     1      -0.095   5.784  23.062  0.00  0.00    +0.007 C 
ENDBRANCH   8  12
BRANCH   9  15
ATOM     15  C   UNL     1      -0.744   1.578  24.840  0.00  0.00    +0.112 C 
BRANCH  15   5
ATOM      3  O   UNL     1       0.209  -0.250  22.841  0.00  0.00    -0.270 OA
ATOM      5  N   UNL     1       0.620   1.267  24.549  0.00  0.00    -0.311 N 
ATOM     21  C   UNL     1       0.998   0.363  23.556  0.00  0.00    +0.244 C 
ATOM     36  H   UNL     1       1.327   1.730  25.108  0.00  0.00    +0.149 HD
BRANCH  21  23
ATOM      1  F   UNL     1       6.509  -0.523  22.948  0.00  0.00    -0.205 F 
ATOM     23  C   UNL     1       2.456   0.128  23.396  0.00  0.00    +0.037 A 
ATOM     25  C   UNL     1       3.009  -1.099  23.756  0.00  0.00    +0.016 A 
ATOM     26  C   UNL     1       3.272   1.138  22.884  0.00  0.00    +0.016 A 
ATOM     29  C   UNL     1       4.377  -1.320  23.604  0.00  0.00    +0.039 A 
ATOM     30  C   UNL     1       4.641   0.919  22.733  0.00  0.00    +0.039 A 
ATOM     31  C   UNL     1       5.194  -0.311  23.093  0.00  0.00    +0.123 A 
ENDBRANCH  21  23
ENDBRANCH  15   5
ENDBRANCH   9  15
BRANCH  11  16
ATOM     16  C   UNL     1      -4.371   4.765  25.079  0.00  0.00    +0.105 C 
BRANCH  16  20
ATOM      2  O   UNL     1      -4.122   2.341  24.935  0.00  0.00    -0.420 OA
ATOM      6  N   UNL     1      -5.990   3.011  25.969  0.00  0.00    -0.112 NA
ATOM      7  N   UNL     1      -5.979   1.629  25.961  0.00  0.00    -0.107 NA
ATOM     20  C   UNL     1      -4.887   3.384  25.361  0.00  0.00    +0.218 A 
ATOM     22  C   UNL     1      -4.872   1.283  25.347  0.00  0.00    +0.248 A 
BRANCH  22  24
ATOM     24  C   UNL     1      -4.339  -0.016  25.050  0.00  0.00    +0.039 A 
ATOM     27  C   UNL     1      -4.739  -0.685  23.893  0.00  0.00    +0.017 A 
ATOM     28  C   UNL     1      -3.423  -0.609  25.918  0.00  0.00    +0.017 A 
ATOM     32  C   UNL     1      -4.220  -1.949  23.605  0.00  0.00    +0.046 A 
ATOM     33  C   UNL     1      -2.906  -1.872  25.630  0.00  0.00    +0.046 A 
ATOM     34  C   UNL     1      -3.304  -2.542  24.473  0.00  0.00    +0.120 A 
BRANCH  34   4
ATOM      4  O   UNL     1      -2.799  -3.774  24.192  0.00  0.00    -0.495 OA
ATOM     35  C   UNL     1      -1.660  -3.829  23.336  0.00  0.00    +0.277 C 
ENDBRANCH  34   4
ENDBRANCH  22  24
ENDBRANCH  16  20
ENDBRANCH  11  16
TORSDOF 8
ENDMDL
MODEL 8
REMARK VINA RESULT:       4.2      2.223      6.030
REMARK  Name = 38031254
REMARK  12 active torsions:
REMARK  status: ('A' for Active; 'I' for Inactive)
REMARK    1  A    between atoms: O_4  and  C_34
REMARK    2  A    between atoms: O_4  and  C_35
REMARK    3  A    between atoms: N_5  and  C_15
REMARK    4  A    between atoms: C_8  and  C_12
REMARK    5  A    between atoms: C_9  and  C_15
REMARK    6  A    between atoms: C_11  and  C_16
REMARK    7  A    between atoms: C_12  and  C_17
REMARK    8  A    between atoms: C_12  and  C_18
REMARK    9  A    between atoms: C_13  and  C_19
REMARK   10  A    between atoms: C_16  and  C_20
REMARK   11  A    between atoms: C_21  and  C_23
REMARK   12  A    between atoms: C_22  and  C_24
REMARK                            x       y       z     vdW  Elec       q    Type
REMARK                         _______ _______ _______ _____ _____    ______ ____
ROOT
ATOM      8  C   UNL     1      -4.551   3.322  25.352  0.00  0.00    +0.000 C 
ATOM      9  C   UNL     1      -5.118   2.276  24.358  0.00  0.00    +0.032 C 
ATOM     10  C   UNL     1      -3.940   4.508  24.590  0.00  0.00    +0.012 C 
ATOM     11  C   UNL     1      -2.807   4.072  23.642  0.00  0.00    +0.024 C 
ATOM     13  C   UNL     1      -3.201   2.866  22.813  0.00  0.00    -0.073 C 
ATOM     14  C   UNL     1      -4.245   2.083  23.140  0.00  0.00    -0.022 C 
ATOM     19  C   UNL     1      -2.395   2.607  21.571  0.00  0.00    +0.039 C 
ENDROOT
BRANCH   8  12
ATOM     12  C   UNL     1      -5.625   3.825  26.321  0.00  0.00    -0.013 C 
ATOM     17  C   UNL     1      -6.618   2.713  26.639  0.00  0.00    +0.007 C 
ATOM     18  C   UNL     1      -6.342   5.040  25.736  0.00  0.00    +0.007 C 
ENDBRANCH   8  12
BRANCH   9  15
ATOM     15  C   UNL     1      -5.341   0.925  25.045  0.00  0.00    +0.112 C 
BRANCH  15   5
ATOM      3  O   UNL     1      -4.628  -1.629  23.942  0.00  0.00    -0.270 OA
ATOM      5  N   UNL     1      -4.102   0.234  25.222  0.00  0.00    -0.311 N 
ATOM     21  C   UNL     1      -3.837  -1.008  24.648  0.00  0.00    +0.244 C 
ATOM     36  H   UNL     1      -3.403   0.685  25.801  0.00  0.00    +0.149 HD
BRANCH  21  23
ATOM      1  F   UNL     1       1.176  -3.267  25.787  0.00  0.00    -0.205 F 
ATOM     23  C   UNL     1      -2.511  -1.606  24.949  0.00  0.00    +0.037 A 
ATOM     25  C   UNL     1      -2.061  -2.708  24.223  0.00  0.00    +0.016 A 
ATOM     26  C   UNL     1      -1.716  -1.064  25.960  0.00  0.00    +0.016 A 
ATOM     29  C   UNL     1      -0.815  -3.269  24.505  0.00  0.00    +0.039 A 
ATOM     30  C   UNL     1      -0.470  -1.625  26.243  0.00  0.00    +0.039 A 
ATOM     31  C   UNL     1      -0.020  -2.727  25.516  0.00  0.00    +0.123 A 
ENDBRANCH  21  23
ENDBRANCH  15   5
ENDBRANCH   9  15
BRANCH  11  16
ATOM     16  C   UNL     1      -1.512   3.806  24.416  0.00  0.00    +0.105 C 
BRANCH  16  20
ATOM      2  O   UNL     1       0.442   2.433  23.911  0.00  0.00    -0.420 OA
ATOM      6  N   UNL     1      -1.502   1.331  23.814  0.00  0.00    -0.112 NA
ATOM      7  N   UNL     1      -0.491   0.439  23.509  0.00  0.00    -0.107 NA
ATOM     20  C   UNL     1      -0.912   2.481  24.041  0.00  0.00    +0.218 A 
ATOM     22  C   UNL     1       0.625   1.127  23.577  0.00  0.00    +0.248 A 
BRANCH  22  24
ATOM     24  C   UNL     1       1.984   0.720  23.359  0.00  0.00    +0.039 A 
ATOM     27  C   UNL     1       2.937   1.657  22.961  0.00  0.00    +0.017 A 
ATOM     28  C   UNL     1       2.351  -0.613  23.546  0.00  0.00    +0.017 A 
ATOM     32  C   UNL     1       4.258   1.260  22.749  0.00  0.00    +0.046 A 
ATOM     33  C   UNL     1       3.671  -1.009  23.333  0.00  0.00    +0.046 A 
ATOM     34  C   UNL     1       4.626  -0.072  22.935  0.00  0.00    +0.120 A 
BRANCH  34   4
ATOM      4  O   UNL     1       5.914  -0.459  22.728  0.00  0.00    -0.495 OA
ATOM     35  C   UNL     1       6.787  -0.439  23.856  0.00  0.00    +0.277 C 
ENDBRANCH  34   4
ENDBRANCH  22  24
ENDBRANCH  16  20
ENDBRANCH  11  16
TORSDOF 8
ENDMDL
