MODEL 1
REMARK VINA RESULT:       3.7      0.000      0.000
REMARK  Name = 7134532
REMARK  15 active torsions:
REMARK  status: ('A' for Active; 'I' for Inactive)
REMARK    1  A    between atoms: O_1  and  C_21
REMARK    2  A    between atoms: O_2  and  C_23
REMARK    3  A    between atoms: O_3  and  C_24
REMARK    4  A    between atoms: O_5  and  C_28
REMARK    5  A    between atoms: O_9  and  C_37
REMARK    6  A    between atoms: N_10  and  C_19
REMARK    7  A    between atoms: N_11  and  C_29
REMARK    8  A    between atoms: C_13  and  C_18
REMARK    9  A    between atoms: C_13  and  C_20
REMARK   10  A    between atoms: C_18  and  C_26
REMARK   11  A    between atoms: C_20  and  C_28
REMARK   12  A    between atoms: C_21  and  C_27
REMARK   13  A    between atoms: C_29  and  C_30
REMARK   14  A    between atoms: C_29  and  C_31
REMARK   15  A    between atoms: C_30  and  C_32
REMARK                            x       y       z     vdW  Elec       q    Type
REMARK                         _______ _______ _______ _____ _____    ______ ____
ROOT
ATOM     19  C   UNL     1      -1.800  -1.354  25.352  0.00  0.00    +0.107 C 
ATOM     21  C   UNL     1      -3.903   0.014  24.952  0.00  0.00    +0.146 C 
ATOM     22  C   UNL     1      -2.377   0.035  25.063  0.00  0.00    +0.069 C 
ATOM     23  C   UNL     1      -2.284  -2.397  24.335  0.00  0.00    +0.163 C 
ATOM     24  C   UNL     1      -3.809  -2.407  24.204  0.00  0.00    +0.148 C 
ATOM     25  C   UNL     1      -4.371  -1.013  23.922  0.00  0.00    +0.078 C 
ENDROOT
BRANCH  19  10
ATOM      4  O   UNL     1      -0.075  -0.248  23.309  0.00  0.00    -0.276 OA
ATOM     10  N   UNL     1      -0.355  -1.290  25.367  0.00  0.00    -0.310 N 
ATOM     26  C   UNL     1       0.388  -0.738  24.335  0.00  0.00    +0.214 C 
ATOM     38  H   UNL     1       0.126  -1.734  26.144  0.00  0.00    +0.149 HD
BRANCH  26  18
ATOM     18  C   UNL     1       1.877  -0.805  24.625  0.00  0.00    +0.103 C 
BRANCH  18  13
ATOM     13  C   UNL     1       2.729  -0.530  23.384  0.00  0.00    -0.011 C 
ATOM     14  C   UNL     1       3.131   0.949  23.292  0.00  0.00    +0.008 C 
ATOM     15  C   UNL     1       1.922  -0.713  22.091  0.00  0.00    +0.008 C 
ATOM     16  C   UNL     1       3.434   1.187  21.815  0.00  0.00    +0.001 C 
ATOM     17  C   UNL     1       2.657   0.120  21.043  0.00  0.00    +0.001 C 
BRANCH  13  20
ATOM     20  C   UNL     1       3.965  -1.444  23.405  0.00  0.00    +0.127 C 
BRANCH  20  28
ATOM      7  O   UNL     1       5.987  -0.163  22.942  0.00  0.00    -0.251 OA
ATOM     28  C   UNL     1       5.209  -0.672  23.735  0.00  0.00    +0.305 C 
BRANCH  28   5
ATOM      5  O   UNL     1       5.359  -0.614  25.083  0.00  0.00    -0.481 OA
ATOM     43  H   UNL     1       5.373   0.310  25.410  0.00  0.00    +0.295 HD
ENDBRANCH  28   5
ENDBRANCH  20  28
ENDBRANCH  13  20
ENDBRANCH  18  13
ENDBRANCH  26  18
ENDBRANCH  19  10
BRANCH  21  27
ATOM      6  O   UNL     1      -5.425   1.845  25.136  0.00  0.00    -0.273 OA
ATOM     11  N   UNL     1      -3.673   1.986  23.610  0.00  0.00    -0.301 N 
ATOM     27  C   UNL     1      -4.426   1.375  24.598  0.00  0.00    +0.246 C 
ATOM     42  H   UNL     1      -2.886   1.499  23.194  0.00  0.00    +0.150 HD
BRANCH  11  29
ATOM     29  C   UNL     1      -3.981   3.293  23.076  0.00  0.00    +0.163 C 
BRANCH  29  31
ATOM      8  O   UNL     1      -4.270   3.943  20.753  0.00  0.00    -0.274 OA
ATOM     12  N   UNL     1      -2.672   2.374  21.263  0.00  0.00    -0.328 N 
ATOM     31  C   UNL     1      -3.691   3.246  21.583  0.00  0.00    +0.231 C 
ATOM     44  H   UNL     1      -2.201   1.805  21.959  0.00  0.00    +0.145 HD
ATOM     45  H   UNL     1      -2.368   2.258  20.302  0.00  0.00    +0.145 HD
ENDBRANCH  29  31
BRANCH  29  30
ATOM     30  C   UNL     1      -3.159   4.401  23.745  0.00  0.00    +0.067 C 
BRANCH  30  32
ATOM     32  C   UNL     1      -2.029   3.861  24.588  0.00  0.00    -0.045 A 
ATOM     33  C   UNL     1      -2.173   3.766  25.972  0.00  0.00    +0.007 A 
ATOM     34  C   UNL     1      -0.839   3.457  23.981  0.00  0.00    +0.007 A 
ATOM     35  C   UNL     1      -1.129   3.267  26.749  0.00  0.00    +0.045 A 
ATOM     36  C   UNL     1       0.206   2.958  24.758  0.00  0.00    +0.045 A 
ATOM     37  C   UNL     1       0.061   2.863  26.143  0.00  0.00    +0.117 A 
BRANCH  37   9
ATOM      9  O   UNL     1       1.081   2.377  26.902  0.00  0.00    -0.507 OA
ATOM     46  H   UNL     1       1.806   2.100  26.316  0.00  0.00    +0.292 HD
ENDBRANCH  37   9
ENDBRANCH  30  32
ENDBRANCH  29  30
ENDBRANCH  11  29
ENDBRANCH  21  27
BRANCH  21   1
ATOM      1  O   UNL     1      -4.489  -0.290  26.212  0.00  0.00    -0.379 OA
ATOM     39  H   UNL     1      -4.233  -1.195  26.459  0.00  0.00    +0.211 HD
ENDBRANCH  21   1
BRANCH  23   2
ATOM      2  O   UNL     1      -1.878  -3.697  24.771  0.00  0.00    -0.387 OA
ATOM     40  H   UNL     1      -1.042  -3.918  24.326  0.00  0.00    +0.210 HD
ENDBRANCH  23   2
BRANCH  24   3
ATOM      3  O   UNL     1      -4.164  -3.275  23.127  0.00  0.00    -0.389 OA
ATOM     41  H   UNL     1      -5.135  -3.318  23.095  0.00  0.00    +0.210 HD
ENDBRANCH  24   3
TORSDOF 15
ENDMDL
MODEL 2
REMARK VINA RESULT:       3.8      1.660      4.362
REMARK  Name = 7134532
REMARK  15 active torsions:
REMARK  status: ('A' for Active; 'I' for Inactive)
REMARK    1  A    between atoms: O_1  and  C_21
REMARK    2  A    between atoms: O_2  and  C_23
REMARK    3  A    between atoms: O_3  and  C_24
REMARK    4  A    between atoms: O_5  and  C_28
REMARK    5  A    between atoms: O_9  and  C_37
REMARK    6  A    between atoms: N_10  and  C_19
REMARK    7  A    between atoms: N_11  and  C_29
REMARK    8  A    between atoms: C_13  and  C_18
REMARK    9  A    between atoms: C_13  and  C_20
REMARK   10  A    between atoms: C_18  and  C_26
REMARK   11  A    between atoms: C_20  and  C_28
REMARK   12  A    between atoms: C_21  and  C_27
REMARK   13  A    between atoms: C_29  and  C_30
REMARK   14  A    between atoms: C_29  and  C_31
REMARK   15  A    between atoms: C_30  and  C_32
REMARK                            x       y       z     vdW  Elec       q    Type
REMARK                         _______ _______ _______ _____ _____    ______ ____
ROOT
ATOM     19  C   UNL     1       0.206   2.259  25.218  0.00  0.00    +0.107 C 
ATOM     21  C   UNL     1      -2.063   3.402  25.178  0.00  0.00    +0.146 C 
ATOM     22  C   UNL     1      -1.211   2.253  24.635  0.00  0.00    +0.069 C 
ATOM     23  C   UNL     1       0.192   2.283  26.753  0.00  0.00    +0.163 C 
ATOM     24  C   UNL     1      -0.677   3.417  27.302  0.00  0.00    +0.148 C 
ATOM     25  C   UNL     1      -2.086   3.402  26.705  0.00  0.00    +0.078 C 
ENDROOT
BRANCH  19  10
ATOM      4  O   UNL     1      -0.592   0.429  23.123  0.00  0.00    -0.276 OA
ATOM     10  N   UNL     1       0.939   1.109  24.734  0.00  0.00    -0.310 N 
ATOM     26  C   UNL     1       0.472   0.288  23.721  0.00  0.00    +0.214 C 
ATOM     38  H   UNL     1       1.801   0.867  25.214  0.00  0.00    +0.149 HD
BRANCH  26  18
ATOM     18  C   UNL     1       1.450  -0.834  23.420  0.00  0.00    +0.103 C 
BRANCH  18  13
ATOM     13  C   UNL     1       2.806  -0.317  22.935  0.00  0.00    -0.011 C 
ATOM     14  C   UNL     1       3.029   1.147  23.339  0.00  0.00    +0.008 C 
ATOM     15  C   UNL     1       2.863  -0.229  21.404  0.00  0.00    +0.008 C 
ATOM     16  C   UNL     1       4.063   1.679  22.350  0.00  0.00    +0.001 C 
ATOM     17  C   UNL     1       3.956   0.796  21.106  0.00  0.00    +0.001 C 
BRANCH  13  20
ATOM     20  C   UNL     1       3.920  -1.223  23.485  0.00  0.00    +0.127 C 
BRANCH  20  28
ATOM      7  O   UNL     1       6.157  -0.374  23.018  0.00  0.00    -0.251 OA
ATOM     28  C   UNL     1       5.178  -0.446  23.744  0.00  0.00    +0.305 C 
BRANCH  28   5
ATOM      5  O   UNL     1       5.076   0.189  24.940  0.00  0.00    -0.481 OA
ATOM     43  H   UNL     1       5.026   1.163  24.834  0.00  0.00    +0.295 HD
ENDBRANCH  28   5
ENDBRANCH  20  28
ENDBRANCH  13  20
ENDBRANCH  18  13
ENDBRANCH  26  18
ENDBRANCH  19  10
BRANCH  21  27
ATOM      6  O   UNL     1      -3.938   4.211  23.939  0.00  0.00    -0.273 OA
ATOM     11  N   UNL     1      -4.115   2.172  25.048  0.00  0.00    -0.301 N 
ATOM     27  C   UNL     1      -3.462   3.322  24.641  0.00  0.00    +0.246 C 
ATOM     42  H   UNL     1      -3.652   1.513  25.665  0.00  0.00    +0.150 HD
BRANCH  11  29
ATOM     29  C   UNL     1      -5.480   1.868  24.684  0.00  0.00    +0.163 C 
BRANCH  29  31
ATOM      8  O   UNL     1      -6.950   1.691  26.611  0.00  0.00    -0.274 OA
ATOM     12  N   UNL     1      -6.416   3.782  25.826  0.00  0.00    -0.328 N 
ATOM     31  C   UNL     1      -6.370   2.404  25.796  0.00  0.00    +0.231 C 
ATOM     44  H   UNL     1      -5.930   4.360  25.148  0.00  0.00    +0.145 HD
ATOM     45  H   UNL     1      -6.962   4.269  26.529  0.00  0.00    +0.145 HD
ENDBRANCH  29  31
BRANCH  29  30
ATOM     30  C   UNL     1      -5.709   0.363  24.496  0.00  0.00    +0.067 C 
BRANCH  30  32
ATOM     32  C   UNL     1      -4.448  -0.446  24.680  0.00  0.00    -0.045 A 
ATOM     33  C   UNL     1      -3.611  -0.197  25.767  0.00  0.00    +0.007 A 
ATOM     34  C   UNL     1      -4.121  -1.444  23.761  0.00  0.00    +0.007 A 
ATOM     35  C   UNL     1      -2.446  -0.945  25.936  0.00  0.00    +0.045 A 
ATOM     36  C   UNL     1      -2.957  -2.192  23.930  0.00  0.00    +0.045 A 
ATOM     37  C   UNL     1      -2.119  -1.943  25.017  0.00  0.00    +0.117 A 
BRANCH  37   9
ATOM      9  O   UNL     1      -0.982  -2.673  25.182  0.00  0.00    -0.507 OA
ATOM     46  H   UNL     1      -0.937  -2.983  26.103  0.00  0.00    +0.292 HD
ENDBRANCH  37   9
ENDBRANCH  30  32
ENDBRANCH  29  30
ENDBRANCH  11  29
ENDBRANCH  21  27
BRANCH  21   1
ATOM      1  O   UNL     1      -1.562   4.652  24.720  0.00  0.00    -0.379 OA
ATOM     39  H   UNL     1      -2.287   5.301  24.743  0.00  0.00    +0.211 HD
ENDBRANCH  21   1
BRANCH  23   2
ATOM      2  O   UNL     1       1.524   2.489  27.229  0.00  0.00    -0.387 OA
ATOM     40  H   UNL     1       2.103   1.837  26.798  0.00  0.00    +0.210 HD
ENDBRANCH  23   2
BRANCH  24   3
ATOM      3  O   UNL     1      -0.774   3.267  28.718  0.00  0.00    -0.389 OA
ATOM     41  H   UNL     1      -1.715   3.337  28.956  0.00  0.00    +0.210 HD
ENDBRANCH  24   3
TORSDOF 15
ENDMDL
MODEL 3
REMARK VINA RESULT:       4.6      2.214      3.100
REMARK  Name = 7134532
REMARK  15 active torsions:
REMARK  status: ('A' for Active; 'I' for Inactive)
REMARK    1  A    between atoms: O_1  and  C_21
REMARK    2  A    between atoms: O_2  and  C_23
REMARK    3  A    between atoms: O_3  and  C_24
REMARK    4  A    between atoms: O_5  and  C_28
REMARK    5  A    between atoms: O_9  and  C_37
REMARK    6  A    between atoms: N_10  and  C_19
REMARK    7  A    between atoms: N_11  and  C_29
REMARK    8  A    between atoms: C_13  and  C_18
REMARK    9  A    between atoms: C_13  and  C_20
REMARK   10  A    between atoms: C_18  and  C_26
REMARK   11  A    between atoms: C_20  and  C_28
REMARK   12  A    between atoms: C_21  and  C_27
REMARK   13  A    between atoms: C_29  and  C_30
REMARK   14  A    between atoms: C_29  and  C_31
REMARK   15  A    between atoms: C_30  and  C_32
REMARK                            x       y       z     vdW  Elec       q    Type
REMARK                         _______ _______ _______ _____ _____    ______ ____
ROOT
ATOM     19  C   UNL     1      -0.799  -0.734  25.235  0.00  0.00    +0.107 C 
ATOM     21  C   UNL     1      -3.323  -0.507  25.429  0.00  0.00    +0.146 C 
ATOM     22  C   UNL     1      -2.000   0.216  25.168  0.00  0.00    +0.069 C 
ATOM     23  C   UNL     1      -0.979  -1.948  24.311  0.00  0.00    +0.163 C 
ATOM     24  C   UNL     1      -2.311  -2.661  24.554  0.00  0.00    +0.148 C 
ATOM     25  C   UNL     1      -3.499  -1.699  24.490  0.00  0.00    +0.078 C 
ENDROOT
BRANCH  19  10
ATOM      4  O   UNL     1      -0.263   0.772  22.823  0.00  0.00    -0.276 OA
ATOM     10  N   UNL     1       0.412  -0.016  24.902  0.00  0.00    -0.310 N 
ATOM     26  C   UNL     1       0.576   0.679  23.716  0.00  0.00    +0.214 C 
ATOM     38  H   UNL     1       1.193  -0.091  25.549  0.00  0.00    +0.149 HD
BRANCH  26  18
ATOM     18  C   UNL     1       1.943   1.336  23.641  0.00  0.00    +0.103 C 
BRANCH  18  13
ATOM     13  C   UNL     1       3.018   0.394  23.097  0.00  0.00    -0.011 C 
ATOM     14  C   UNL     1       3.100  -0.903  23.914  0.00  0.00    +0.008 C 
ATOM     15  C   UNL     1       4.427   0.972  23.289  0.00  0.00    +0.008 C 
ATOM     16  C   UNL     1       4.506  -1.442  23.664  0.00  0.00    +0.001 C 
ATOM     17  C   UNL     1       5.359  -0.238  23.263  0.00  0.00    +0.001 C 
BRANCH  13  20
ATOM     20  C   UNL     1       2.733   0.101  21.614  0.00  0.00    +0.127 C 
BRANCH  20  28
ATOM      7  O   UNL     1       1.151  -1.648  22.234  0.00  0.00    -0.251 OA
ATOM     28  C   UNL     1       1.535  -0.789  21.454  0.00  0.00    +0.305 C 
BRANCH  28   5
ATOM      5  O   UNL     1       0.913  -0.500  20.282  0.00  0.00    -0.481 OA
ATOM     43  H   UNL     1       0.938   0.459  20.081  0.00  0.00    +0.295 HD
ENDBRANCH  28   5
ENDBRANCH  20  28
ENDBRANCH  13  20
ENDBRANCH  18  13
ENDBRANCH  26  18
ENDBRANCH  19  10
BRANCH  21  27
ATOM      6  O   UNL     1      -5.369   0.252  24.458  0.00  0.00    -0.273 OA
ATOM     11  N   UNL     1      -4.392   1.510  26.156  0.00  0.00    -0.301 N 
ATOM     27  C   UNL     1      -4.479   0.439  25.284  0.00  0.00    +0.246 C 
ATOM     42  H   UNL     1      -3.593   1.600  26.775  0.00  0.00    +0.150 HD
BRANCH  11  29
ATOM     29  C   UNL     1      -5.369   2.573  26.201  0.00  0.00    +0.163 C 
BRANCH  29  31
ATOM      8  O   UNL     1      -7.350   1.402  26.983  0.00  0.00    -0.274 OA
ATOM     12  N   UNL     1      -7.251   2.042  24.780  0.00  0.00    -0.328 N 
ATOM     31  C   UNL     1      -6.740   1.928  26.055  0.00  0.00    +0.231 C 
ATOM     44  H   UNL     1      -6.738   2.482  24.022  0.00  0.00    +0.145 HD
ATOM     45  H   UNL     1      -8.166   1.668  24.550  0.00  0.00    +0.145 HD
ENDBRANCH  29  31
BRANCH  29  30
ATOM     30  C   UNL     1      -5.147   3.612  25.095  0.00  0.00    +0.067 C 
BRANCH  30  32
ATOM     32  C   UNL     1      -3.694   3.755  24.711  0.00  0.00    -0.045 A 
ATOM     33  C   UNL     1      -2.816   4.445  25.546  0.00  0.00    +0.007 A 
ATOM     34  C   UNL     1      -3.231   3.194  23.520  0.00  0.00    +0.007 A 
ATOM     35  C   UNL     1      -1.474   4.576  25.190  0.00  0.00    +0.045 A 
ATOM     36  C   UNL     1      -1.888   3.325  23.165  0.00  0.00    +0.045 A 
ATOM     37  C   UNL     1      -1.010   4.016  24.000  0.00  0.00    +0.117 A 
BRANCH  37   9
ATOM      9  O   UNL     1       0.300   4.145  23.653  0.00  0.00    -0.507 OA
ATOM     46  H   UNL     1       0.769   4.616  24.363  0.00  0.00    +0.292 HD
ENDBRANCH  37   9
ENDBRANCH  30  32
ENDBRANCH  29  30
ENDBRANCH  11  29
ENDBRANCH  21  27
BRANCH  21   1
ATOM      1  O   UNL     1      -3.384  -0.962  26.775  0.00  0.00    -0.379 OA
ATOM     39  H   UNL     1      -3.658  -1.895  26.772  0.00  0.00    +0.211 HD
ENDBRANCH  21   1
BRANCH  23   2
ATOM      2  O   UNL     1       0.068  -2.887  24.567  0.00  0.00    -0.387 OA
ATOM     40  H   UNL     1       0.010  -3.159  25.499  0.00  0.00    +0.210 HD
ENDBRANCH  23   2
BRANCH  24   3
ATOM      3  O   UNL     1      -2.475  -3.664  23.550  0.00  0.00    -0.389 OA
ATOM     41  H   UNL     1      -1.682  -4.227  23.568  0.00  0.00    +0.210 HD
ENDBRANCH  24   3
TORSDOF 15
ENDMDL
MODEL 4
REMARK VINA RESULT:       4.8      1.432      1.783
REMARK  Name = 7134532
REMARK  15 active torsions:
REMARK  status: ('A' for Active; 'I' for Inactive)
REMARK    1  A    between atoms: O_1  and  C_21
REMARK    2  A    between atoms: O_2  and  C_23
REMARK    3  A    between atoms: O_3  and  C_24
REMARK    4  A    between atoms: O_5  and  C_28
REMARK    5  A    between atoms: O_9  and  C_37
REMARK    6  A    between atoms: N_10  and  C_19
REMARK    7  A    between atoms: N_11  and  C_29
REMARK    8  A    between atoms: C_13  and  C_18
REMARK    9  A    between atoms: C_13  and  C_20
REMARK   10  A    between atoms: C_18  and  C_26
REMARK   11  A    between atoms: C_20  and  C_28
REMARK   12  A    between atoms: C_21  and  C_27
REMARK   13  A    between atoms: C_29  and  C_30
REMARK   14  A    between atoms: C_29  and  C_31
REMARK   15  A    between atoms: C_30  and  C_32
REMARK                            x       y       z     vdW  Elec       q    Type
REMARK                         _______ _______ _______ _____ _____    ______ ____
ROOT
ATOM     19  C   UNL     1      -1.788  -1.399  25.261  0.00  0.00    +0.107 C 
ATOM     21  C   UNL     1      -3.750   0.204  25.071  0.00  0.00    +0.146 C 
ATOM     22  C   UNL     1      -2.229   0.065  25.165  0.00  0.00    +0.069 C 
ATOM     23  C   UNL     1      -2.370  -2.248  24.121  0.00  0.00    +0.163 C 
ATOM     24  C   UNL     1      -3.889  -2.095  24.010  0.00  0.00    +0.148 C 
ATOM     25  C   UNL     1      -4.315  -0.628  23.922  0.00  0.00    +0.078 C 
ENDROOT
BRANCH  19  10
ATOM      4  O   UNL     1       0.025  -0.389  23.244  0.00  0.00    -0.276 OA
ATOM     10  N   UNL     1      -0.344  -1.475  25.265  0.00  0.00    -0.310 N 
ATOM     26  C   UNL     1       0.443  -0.960  24.248  0.00  0.00    +0.214 C 
ATOM     38  H   UNL     1       0.096  -1.993  26.022  0.00  0.00    +0.149 HD
BRANCH  26  18
ATOM     18  C   UNL     1       1.921  -1.181  24.522  0.00  0.00    +0.103 C 
BRANCH  18  13
ATOM     13  C   UNL     1       2.807  -0.723  23.363  0.00  0.00    -0.011 C 
ATOM     14  C   UNL     1       3.110   0.780  23.442  0.00  0.00    +0.008 C 
ATOM     15  C   UNL     1       2.076  -0.822  22.017  0.00  0.00    +0.008 C 
ATOM     16  C   UNL     1       3.463   1.190  22.015  0.00  0.00    +0.001 C 
ATOM     17  C   UNL     1       2.798   0.162  21.099  0.00  0.00    +0.001 C 
BRANCH  13  20
ATOM     20  C   UNL     1       4.102  -1.552  23.356  0.00  0.00    +0.127 C 
BRANCH  20  28
ATOM      7  O   UNL     1       6.056  -0.158  22.931  0.00  0.00    -0.251 OA
ATOM     28  C   UNL     1       5.293  -0.710  23.709  0.00  0.00    +0.305 C 
BRANCH  28   5
ATOM      5  O   UNL     1       5.411  -0.641  25.060  0.00  0.00    -0.481 OA
ATOM     43  H   UNL     1       6.252  -0.216  25.333  0.00  0.00    +0.295 HD
ENDBRANCH  28   5
ENDBRANCH  20  28
ENDBRANCH  13  20
ENDBRANCH  18  13
ENDBRANCH  26  18
ENDBRANCH  19  10
BRANCH  21  27
ATOM      6  O   UNL     1      -4.372   2.130  23.802  0.00  0.00    -0.273 OA
ATOM     11  N   UNL     1      -4.177   2.318  26.115  0.00  0.00    -0.301 N 
ATOM     27  C   UNL     1      -4.140   1.644  24.906  0.00  0.00    +0.246 C 
ATOM     42  H   UNL     1      -3.927   1.840  26.974  0.00  0.00    +0.150 HD
BRANCH  11  29
ATOM     29  C   UNL     1      -4.503   3.722  26.226  0.00  0.00    +0.163 C 
BRANCH  29  31
ATOM      8  O   UNL     1      -6.347   4.998  25.290  0.00  0.00    -0.274 OA
ATOM     12  N   UNL     1      -6.560   2.717  25.449  0.00  0.00    -0.328 N 
ATOM     31  C   UNL     1      -5.889   3.908  25.626  0.00  0.00    +0.231 C 
ATOM     44  H   UNL     1      -6.169   1.823  25.729  0.00  0.00    +0.145 HD
ATOM     45  H   UNL     1      -7.490   2.698  25.044  0.00  0.00    +0.145 HD
ENDBRANCH  29  31
BRANCH  29  30
ATOM     30  C   UNL     1      -3.484   4.613  25.504  0.00  0.00    +0.067 C 
BRANCH  30  32
ATOM     32  C   UNL     1      -2.163   3.920  25.274  0.00  0.00    -0.045 A 
ATOM     33  C   UNL     1      -1.430   3.437  26.357  0.00  0.00    +0.007 A 
ATOM     34  C   UNL     1      -1.676   3.763  23.975  0.00  0.00    +0.007 A 
ATOM     35  C   UNL     1      -0.209   2.797  26.143  0.00  0.00    +0.045 A 
ATOM     36  C   UNL     1      -0.456   3.123  23.762  0.00  0.00    +0.045 A 
ATOM     37  C   UNL     1       0.278   2.640  24.845  0.00  0.00    +0.117 A 
BRANCH  37   9
ATOM      9  O   UNL     1       1.470   2.016  24.637  0.00  0.00    -0.507 OA
ATOM     46  H   UNL     1       2.079   2.251  25.359  0.00  0.00    +0.292 HD
ENDBRANCH  37   9
ENDBRANCH  30  32
ENDBRANCH  29  30
ENDBRANCH  11  29
ENDBRANCH  21  27
BRANCH  21   1
ATOM      1  O   UNL     1      -4.363  -0.207  26.288  0.00  0.00    -0.379 OA
ATOM     39  H   UNL     1      -3.881   0.202  27.028  0.00  0.00    +0.211 HD
ENDBRANCH  21   1
BRANCH  23   2
ATOM      2  O   UNL     1      -2.091  -3.627  24.377  0.00  0.00    -0.387 OA
ATOM     40  H   UNL     1      -1.834  -3.715  25.311  0.00  0.00    +0.210 HD
ENDBRANCH  23   2
BRANCH  24   3
ATOM      3  O   UNL     1      -4.327  -2.775  22.833  0.00  0.00    -0.389 OA
ATOM     41  H   UNL     1      -4.398  -3.720  23.052  0.00  0.00    +0.210 HD
ENDBRANCH  24   3
TORSDOF 15
ENDMDL
MODEL 5
REMARK VINA RESULT:       5.5      2.160      4.804
REMARK  Name = 7134532
REMARK  15 active torsions:
REMARK  status: ('A' for Active; 'I' for Inactive)
REMARK    1  A    between atoms: O_1  and  C_21
REMARK    2  A    between atoms: O_2  and  C_23
REMARK    3  A    between atoms: O_3  and  C_24
REMARK    4  A    between atoms: O_5  and  C_28
REMARK    5  A    between atoms: O_9  and  C_37
REMARK    6  A    between atoms: N_10  and  C_19
REMARK    7  A    between atoms: N_11  and  C_29
REMARK    8  A    between atoms: C_13  and  C_18
REMARK    9  A    between atoms: C_13  and  C_20
REMARK   10  A    between atoms: C_18  and  C_26
REMARK   11  A    between atoms: C_20  and  C_28
REMARK   12  A    between atoms: C_21  and  C_27
REMARK   13  A    between atoms: C_29  and  C_30
REMARK   14  A    between atoms: C_29  and  C_31
REMARK   15  A    between atoms: C_30  and  C_32
REMARK                            x       y       z     vdW  Elec       q    Type
REMARK                         _______ _______ _______ _____ _____    ______ ____
ROOT
ATOM     19  C   UNL     1       0.204   2.357  25.377  0.00  0.00    +0.107 C 
ATOM     21  C   UNL     1      -2.054   3.524  25.362  0.00  0.00    +0.146 C 
ATOM     22  C   UNL     1      -1.208   2.386  24.784  0.00  0.00    +0.069 C 
ATOM     23  C   UNL     1       0.179   2.326  26.912  0.00  0.00    +0.163 C 
ATOM     24  C   UNL     1      -0.683   3.450  27.494  0.00  0.00    +0.148 C 
ATOM     25  C   UNL     1      -2.087   3.470  26.888  0.00  0.00    +0.078 C 
ENDROOT
BRANCH  19  10
ATOM      4  O   UNL     1      -0.621   0.579  23.248  0.00  0.00    -0.276 OA
ATOM     10  N   UNL     1       0.929   1.218  24.857  0.00  0.00    -0.310 N 
ATOM     26  C   UNL     1       0.449   0.422  23.830  0.00  0.00    +0.214 C 
ATOM     38  H   UNL     1       1.796   0.963  25.322  0.00  0.00    +0.149 HD
BRANCH  26  18
ATOM     18  C   UNL     1       1.421  -0.695  23.492  0.00  0.00    +0.103 C 
BRANCH  18  13
ATOM     13  C   UNL     1       2.690  -0.181  22.808  0.00  0.00    -0.011 C 
ATOM     14  C   UNL     1       3.943  -0.897  23.330  0.00  0.00    +0.008 C 
ATOM     15  C   UNL     1       2.985   1.277  23.185  0.00  0.00    +0.008 C 
ATOM     16  C   UNL     1       5.098   0.057  23.036  0.00  0.00    +0.001 C 
ATOM     17  C   UNL     1       4.483   1.454  22.944  0.00  0.00    +0.001 C 
BRANCH  13  20
ATOM     20  C   UNL     1       2.548  -0.346  21.286  0.00  0.00    +0.127 C 
BRANCH  20  28
ATOM      7  O   UNL     1       0.923  -2.148  21.046  0.00  0.00    -0.251 OA
ATOM     28  C   UNL     1       1.232  -0.972  20.924  0.00  0.00    +0.305 C 
BRANCH  28   5
ATOM      5  O   UNL     1       0.403  -0.020  20.425  0.00  0.00    -0.481 OA
ATOM     43  H   UNL     1      -0.461  -0.008  20.890  0.00  0.00    +0.295 HD
ENDBRANCH  28   5
ENDBRANCH  20  28
ENDBRANCH  13  20
ENDBRANCH  18  13
ENDBRANCH  26  18
ENDBRANCH  19  10
BRANCH  21  27
ATOM      6  O   UNL     1      -3.920   4.407  24.161  0.00  0.00    -0.273 OA
ATOM     11  N   UNL     1      -4.105   2.306  25.146  0.00  0.00    -0.301 N 
ATOM     27  C   UNL     1      -3.449   3.477  24.812  0.00  0.00    +0.246 C 
ATOM     42  H   UNL     1      -3.646   1.611  25.726  0.00  0.00    +0.150 HD
BRANCH  11  29
ATOM     29  C   UNL     1      -5.468   2.025  24.757  0.00  0.00    +0.163 C 
BRANCH  29  31
ATOM      8  O   UNL     1      -6.949   1.901  26.680  0.00  0.00    -0.274 OA
ATOM     12  N   UNL     1      -6.429   3.969  25.827  0.00  0.00    -0.328 N 
ATOM     31  C   UNL     1      -6.370   2.591  25.845  0.00  0.00    +0.231 C 
ATOM     44  H   UNL     1      -5.944   4.528  25.132  0.00  0.00    +0.145 HD
ATOM     45  H   UNL     1      -6.984   4.475  26.509  0.00  0.00    +0.145 HD
ENDBRANCH  29  31
BRANCH  29  30
ATOM     30  C   UNL     1      -5.724   0.523  24.580  0.00  0.00    +0.067 C 
BRANCH  30  32
ATOM     32  C   UNL     1      -4.471  -0.304  24.738  0.00  0.00    -0.045 A 
ATOM     33  C   UNL     1      -4.174  -1.305  23.813  0.00  0.00    +0.007 A 
ATOM     34  C   UNL     1      -3.609  -0.065  25.809  0.00  0.00    +0.007 A 
ATOM     35  C   UNL     1      -3.017  -2.068  23.960  0.00  0.00    +0.045 A 
ATOM     36  C   UNL     1      -2.452  -0.829  25.956  0.00  0.00    +0.045 A 
ATOM     37  C   UNL     1      -2.155  -1.831  25.032  0.00  0.00    +0.117 A 
BRANCH  37   9
ATOM      9  O   UNL     1      -1.026  -2.577  25.175  0.00  0.00    -0.507 OA
ATOM     46  H   UNL     1      -0.274  -1.982  25.340  0.00  0.00    +0.292 HD
ENDBRANCH  37   9
ENDBRANCH  30  32
ENDBRANCH  29  30
ENDBRANCH  11  29
ENDBRANCH  21  27
BRANCH  21   1
ATOM      1  O   UNL     1      -1.537   4.784  24.952  0.00  0.00    -0.379 OA
ATOM     39  H   UNL     1      -0.565   4.738  24.967  0.00  0.00    +0.211 HD
ENDBRANCH  21   1
BRANCH  23   2
ATOM      2  O   UNL     1       1.510   2.502  27.404  0.00  0.00    -0.387 OA
ATOM     40  H   UNL     1       1.788   1.671  27.825  0.00  0.00    +0.210 HD
ENDBRANCH  23   2
BRANCH  24   3
ATOM      3  O   UNL     1      -0.792   3.251  28.904  0.00  0.00    -0.389 OA
ATOM     41  H   UNL     1      -1.717   3.018  29.095  0.00  0.00    +0.210 HD
ENDBRANCH  24   3
TORSDOF 15
ENDMDL
MODEL 6
REMARK VINA RESULT:       6.0      1.517      2.080
REMARK  Name = 7134532
REMARK  15 active torsions:
REMARK  status: ('A' for Active; 'I' for Inactive)
REMARK    1  A    between atoms: O_1  and  C_21
REMARK    2  A    between atoms: O_2  and  C_23
REMARK    3  A    between atoms: O_3  and  C_24
REMARK    4  A    between atoms: O_5  and  C_28
REMARK    5  A    between atoms: O_9  and  C_37
REMARK    6  A    between atoms: N_10  and  C_19
REMARK    7  A    between atoms: N_11  and  C_29
REMARK    8  A    between atoms: C_13  and  C_18
REMARK    9  A    between atoms: C_13  and  C_20
REMARK   10  A    between atoms: C_18  and  C_26
REMARK   11  A    between atoms: C_20  and  C_28
REMARK   12  A    between atoms: C_21  and  C_27
REMARK   13  A    between atoms: C_29  and  C_30
REMARK   14  A    between atoms: C_29  and  C_31
REMARK   15  A    between atoms: C_30  and  C_32
REMARK                            x       y       z     vdW  Elec       q    Type
REMARK                         _______ _______ _______ _____ _____    ______ ____
ROOT
ATOM     19  C   UNL     1      -1.922  -1.294  25.412  0.00  0.00    +0.107 C 
ATOM     21  C   UNL     1      -4.110  -0.038  25.108  0.00  0.00    +0.146 C 
ATOM     22  C   UNL     1      -2.582   0.055  25.110  0.00  0.00    +0.069 C 
ATOM     23  C   UNL     1      -2.425  -2.399  24.473  0.00  0.00    +0.163 C 
ATOM     24  C   UNL     1      -3.954  -2.482  24.451  0.00  0.00    +0.148 C 
ATOM     25  C   UNL     1      -4.598  -1.127  24.155  0.00  0.00    +0.078 C 
ENDROOT
BRANCH  19  10
ATOM      4  O   UNL     1      -0.264  -1.760  23.087  0.00  0.00    -0.276 OA
ATOM     10  N   UNL     1      -0.484  -1.165  25.322  0.00  0.00    -0.310 N 
ATOM     26  C   UNL     1       0.225  -1.413  24.158  0.00  0.00    +0.214 C 
ATOM     38  H   UNL     1       0.021  -0.949  26.177  0.00  0.00    +0.149 HD
BRANCH  26  18
ATOM     18  C   UNL     1       1.715  -1.195  24.358  0.00  0.00    +0.103 C 
BRANCH  18  13
ATOM     13  C   UNL     1       2.274  -0.095  23.453  0.00  0.00    -0.011 C 
ATOM     14  C   UNL     1       2.289  -0.528  21.980  0.00  0.00    +0.008 C 
ATOM     15  C   UNL     1       3.765   0.152  23.719  0.00  0.00    +0.008 C 
ATOM     16  C   UNL     1       3.348   0.350  21.319  0.00  0.00    +0.001 C 
ATOM     17  C   UNL     1       4.297   0.786  22.435  0.00  0.00    +0.001 C 
BRANCH  13  20
ATOM     20  C   UNL     1       1.451   1.189  23.649  0.00  0.00    +0.127 C 
BRANCH  20  28
ATOM      7  O   UNL     1      -0.972   1.401  23.493  0.00  0.00    -0.251 OA
ATOM     28  C   UNL     1       0.100   1.076  23.006  0.00  0.00    +0.305 C 
BRANCH  28   5
ATOM      5  O   UNL     1       0.236   0.543  21.764  0.00  0.00    -0.481 OA
ATOM     43  H   UNL     1       0.594  -0.369  21.795  0.00  0.00    +0.295 HD
ENDBRANCH  28   5
ENDBRANCH  20  28
ENDBRANCH  13  20
ENDBRANCH  18  13
ENDBRANCH  26  18
ENDBRANCH  19  10
BRANCH  21  27
ATOM      6  O   UNL     1      -5.884   1.558  25.015  0.00  0.00    -0.273 OA
ATOM     11  N   UNL     1      -3.832   2.097  24.057  0.00  0.00    -0.301 N 
ATOM     27  C   UNL     1      -4.719   1.283  24.739  0.00  0.00    +0.246 C 
ATOM     42  H   UNL     1      -2.900   1.764  23.837  0.00  0.00    +0.150 HD
BRANCH  11  29
ATOM     29  C   UNL     1      -4.181   3.412  23.571  0.00  0.00    +0.163 C 
BRANCH  29  31
ATOM      8  O   UNL     1      -4.353   4.220  21.285  0.00  0.00    -0.274 OA
ATOM     12  N   UNL     1      -2.838   2.558  21.751  0.00  0.00    -0.328 N 
ATOM     31  C   UNL     1      -3.835   3.449  22.089  0.00  0.00    +0.231 C 
ATOM     44  H   UNL     1      -2.417   1.927  22.425  0.00  0.00    +0.145 HD
ATOM     45  H   UNL     1      -2.501   2.491  20.796  0.00  0.00    +0.145 HD
ENDBRANCH  29  31
BRANCH  29  30
ATOM     30  C   UNL     1      -3.436   4.524  24.320  0.00  0.00    +0.067 C 
BRANCH  30  32
ATOM     32  C   UNL     1      -2.209   4.021  25.041  0.00  0.00    -0.045 A 
ATOM     33  C   UNL     1      -2.344   3.228  26.180  0.00  0.00    +0.007 A 
ATOM     34  C   UNL     1      -0.939   4.349  24.565  0.00  0.00    +0.007 A 
ATOM     35  C   UNL     1      -1.209   2.764  26.845  0.00  0.00    +0.045 A 
ATOM     36  C   UNL     1       0.196   3.884  25.230  0.00  0.00    +0.045 A 
ATOM     37  C   UNL     1       0.061   3.092  26.370  0.00  0.00    +0.117 A 
BRANCH  37   9
ATOM      9  O   UNL     1       1.168   2.639  27.019  0.00  0.00    -0.507 OA
ATOM     46  H   UNL     1       1.846   3.337  27.010  0.00  0.00    +0.292 HD
ENDBRANCH  37   9
ENDBRANCH  30  32
ENDBRANCH  29  30
ENDBRANCH  11  29
ENDBRANCH  21  27
BRANCH  21   1
ATOM      1  O   UNL     1      -4.593  -0.314  26.417  0.00  0.00    -0.379 OA
ATOM     39  H   UNL     1      -5.546  -0.120  26.441  0.00  0.00    +0.211 HD
ENDBRANCH  21   1
BRANCH  23   2
ATOM      2  O   UNL     1      -1.930  -3.661  24.930  0.00  0.00    -0.387 OA
ATOM     40  H   UNL     1      -1.704  -4.196  24.151  0.00  0.00    +0.210 HD
ENDBRANCH  23   2
BRANCH  24   3
ATOM      3  O   UNL     1      -4.341  -3.409  23.437  0.00  0.00    -0.389 OA
ATOM     41  H   UNL     1      -5.046  -2.991  22.913  0.00  0.00    +0.210 HD
ENDBRANCH  24   3
TORSDOF 15
ENDMDL
MODEL 7
REMARK VINA RESULT:       6.5      2.320      6.519
REMARK  Name = 7134532
REMARK  15 active torsions:
REMARK  status: ('A' for Active; 'I' for Inactive)
REMARK    1  A    between atoms: O_1  and  C_21
REMARK    2  A    between atoms: O_2  and  C_23
REMARK    3  A    between atoms: O_3  and  C_24
REMARK    4  A    between atoms: O_5  and  C_28
REMARK    5  A    between atoms: O_9  and  C_37
REMARK    6  A    between atoms: N_10  and  C_19
REMARK    7  A    between atoms: N_11  and  C_29
REMARK    8  A    between atoms: C_13  and  C_18
REMARK    9  A    between atoms: C_13  and  C_20
REMARK   10  A    between atoms: C_18  and  C_26
REMARK   11  A    between atoms: C_20  and  C_28
REMARK   12  A    between atoms: C_21  and  C_27
REMARK   13  A    between atoms: C_29  and  C_30
REMARK   14  A    between atoms: C_29  and  C_31
REMARK   15  A    between atoms: C_30  and  C_32
REMARK                            x       y       z     vdW  Elec       q    Type
REMARK                         _______ _______ _______ _____ _____    ______ ____
ROOT
ATOM     19  C   UNL     1       0.712   1.457  24.327  0.00  0.00    +0.107 C 
ATOM     21  C   UNL     1      -0.263  -0.890  24.296  0.00  0.00    +0.146 C 
ATOM     22  C   UNL     1      -0.558   0.606  24.433  0.00  0.00    +0.069 C 
ATOM     23  C   UNL     1       1.503   1.146  23.049  0.00  0.00    +0.163 C 
ATOM     24  C   UNL     1       1.782  -0.352  22.896  0.00  0.00    +0.148 C 
ATOM     25  C   UNL     1       0.506  -1.188  23.011  0.00  0.00    +0.078 C 
ENDROOT
BRANCH  19  10
ATOM      4  O   UNL     1       0.256   3.055  26.696  0.00  0.00    -0.276 OA
ATOM     10  N   UNL     1       0.366   2.860  24.383  0.00  0.00    -0.310 N 
ATOM     26  C   UNL     1       0.166   3.543  25.572  0.00  0.00    +0.214 C 
ATOM     38  H   UNL     1       0.200   3.337  23.501  0.00  0.00    +0.149 HD
BRANCH  26  18
ATOM     18  C   UNL     1      -0.182   5.000  25.325  0.00  0.00    +0.103 C 
BRANCH  18  13
ATOM     13  C   UNL     1      -1.661   5.203  24.992  0.00  0.00    -0.011 C 
ATOM     14  C   UNL     1      -2.177   4.123  24.032  0.00  0.00    +0.008 C 
ATOM     15  C   UNL     1      -1.887   6.481  24.173  0.00  0.00    +0.008 C 
ATOM     16  C   UNL     1      -3.398   4.743  23.356  0.00  0.00    +0.001 C 
ATOM     17  C   UNL     1      -3.211   6.257  23.446  0.00  0.00    +0.001 C 
BRANCH  13  20
ATOM     20  C   UNL     1      -2.475   5.224  26.297  0.00  0.00    +0.127 C 
BRANCH  20  28
ATOM      7  O   UNL     1      -2.587   2.793  26.157  0.00  0.00    -0.251 OA
ATOM     28  C   UNL     1      -2.905   3.843  26.695  0.00  0.00    +0.305 C 
BRANCH  28   5
ATOM      5  O   UNL     1      -3.724   3.920  27.776  0.00  0.00    -0.481 OA
ATOM     43  H   UNL     1      -4.220   4.765  27.799  0.00  0.00    +0.295 HD
ENDBRANCH  28   5
ENDBRANCH  20  28
ENDBRANCH  13  20
ENDBRANCH  18  13
ENDBRANCH  26  18
ENDBRANCH  19  10
BRANCH  21  27
ATOM      6  O   UNL     1      -1.623  -2.791  23.807  0.00  0.00    -0.273 OA
ATOM     11  N   UNL     1      -2.552  -1.015  24.992  0.00  0.00    -0.301 N 
ATOM     27  C   UNL     1      -1.535  -1.684  24.333  0.00  0.00    +0.246 C 
ATOM     42  H   UNL     1      -2.395  -0.082  25.358  0.00  0.00    +0.150 HD
BRANCH  11  29
ATOM     29  C   UNL     1      -3.883  -1.556  25.146  0.00  0.00    +0.163 C 
BRANCH  29  31
ATOM      8  O   UNL     1      -3.332  -3.880  25.593  0.00  0.00    -0.274 OA
ATOM     12  N   UNL     1      -4.362  -3.359  23.607  0.00  0.00    -0.328 N 
ATOM     31  C   UNL     1      -3.803  -3.042  24.827  0.00  0.00    +0.231 C 
ATOM     44  H   UNL     1      -4.749  -2.657  22.985  0.00  0.00    +0.145 HD
ATOM     45  H   UNL     1      -4.387  -4.318  23.280  0.00  0.00    +0.145 HD
ENDBRANCH  29  31
BRANCH  29  30
ATOM     30  C   UNL     1      -4.899  -0.868  24.225  0.00  0.00    +0.067 C 
BRANCH  30  32
ATOM     32  C   UNL     1      -5.247   0.529  24.682  0.00  0.00    -0.045 A 
ATOM     33  C   UNL     1      -5.881   0.724  25.908  0.00  0.00    +0.007 A 
ATOM     34  C   UNL     1      -4.932   1.623  23.875  0.00  0.00    +0.007 A 
ATOM     35  C   UNL     1      -6.202   2.015  26.329  0.00  0.00    +0.045 A 
ATOM     36  C   UNL     1      -5.253   2.914  24.296  0.00  0.00    +0.045 A 
ATOM     37  C   UNL     1      -5.889   3.110  25.523  0.00  0.00    +0.117 A 
BRANCH  37   9
ATOM      9  O   UNL     1      -6.203   4.369  25.933  0.00  0.00    -0.507 OA
ATOM     46  H   UNL     1      -5.511   4.684  26.541  0.00  0.00    +0.292 HD
ENDBRANCH  37   9
ENDBRANCH  30  32
ENDBRANCH  29  30
ENDBRANCH  11  29
ENDBRANCH  21  27
BRANCH  21   1
ATOM      1  O   UNL     1       0.493  -1.351  25.409  0.00  0.00    -0.379 OA
ATOM     39  H   UNL     1       0.798  -0.579  25.915  0.00  0.00    +0.211 HD
ENDBRANCH  21   1
BRANCH  23   2
ATOM      2  O   UNL     1       2.765   1.817  23.106  0.00  0.00    -0.387 OA
ATOM     40  H   UNL     1       3.465   1.155  22.977  0.00  0.00    +0.210 HD
ENDBRANCH  23   2
BRANCH  24   3
ATOM      3  O   UNL     1       2.366  -0.574  21.612  0.00  0.00    -0.389 OA
ATOM     41  H   UNL     1       3.314  -0.368  21.683  0.00  0.00    +0.210 HD
ENDBRANCH  24   3
TORSDOF 15
ENDMDL
MODEL 8
REMARK VINA RESULT:       6.5      2.043      3.435
REMARK  Name = 7134532
REMARK  15 active torsions:
REMARK  status: ('A' for Active; 'I' for Inactive)
REMARK    1  A    between atoms: O_1  and  C_21
REMARK    2  A    between atoms: O_2  and  C_23
REMARK    3  A    between atoms: O_3  and  C_24
REMARK    4  A    between atoms: O_5  and  C_28
REMARK    5  A    between atoms: O_9  and  C_37
REMARK    6  A    between atoms: N_10  and  C_19
REMARK    7  A    between atoms: N_11  and  C_29
REMARK    8  A    between atoms: C_13  and  C_18
REMARK    9  A    between atoms: C_13  and  C_20
REMARK   10  A    between atoms: C_18  and  C_26
REMARK   11  A    between atoms: C_20  and  C_28
REMARK   12  A    between atoms: C_21  and  C_27
REMARK   13  A    between atoms: C_29  and  C_30
REMARK   14  A    between atoms: C_29  and  C_31
REMARK   15  A    between atoms: C_30  and  C_32
REMARK                            x       y       z     vdW  Elec       q    Type
REMARK                         _______ _______ _______ _____ _____    ______ ____
ROOT
ATOM     19  C   UNL     1      -0.485  -1.353  25.094  0.00  0.00    +0.107 C 
ATOM     21  C   UNL     1      -2.233   0.368  24.430  0.00  0.00    +0.146 C 
ATOM     22  C   UNL     1      -0.751  -0.013  24.402  0.00  0.00    +0.069 C 
ATOM     23  C   UNL     1      -1.372  -2.473  24.532  0.00  0.00    +0.163 C 
ATOM     24  C   UNL     1      -2.854  -2.089  24.538  0.00  0.00    +0.148 C 
ATOM     25  C   UNL     1      -3.103  -0.746  23.850  0.00  0.00    +0.078 C 
ENDROOT
BRANCH  19  10
ATOM      4  O   UNL     1       1.279  -0.736  22.885  0.00  0.00    -0.276 OA
ATOM     10  N   UNL     1       0.914  -1.700  24.968  0.00  0.00    -0.310 N 
ATOM     26  C   UNL     1       1.680  -1.359  23.865  0.00  0.00    +0.214 C 
ATOM     38  H   UNL     1       1.321  -2.279  25.697  0.00  0.00    +0.149 HD
BRANCH  26  18
ATOM     18  C   UNL     1       3.110  -1.850  24.008  0.00  0.00    +0.103 C 
BRANCH  18  13
ATOM     13  C   UNL     1       4.133  -0.831  23.504  0.00  0.00    -0.011 C 
ATOM     14  C   UNL     1       5.441  -1.510  23.072  0.00  0.00    +0.008 C 
ATOM     15  C   UNL     1       4.619   0.088  24.633  0.00  0.00    +0.008 C 
ATOM     16  C   UNL     1       6.503  -0.418  23.161  0.00  0.00    +0.001 C 
ATOM     17  C   UNL     1       5.977   0.608  24.164  0.00  0.00    +0.001 C 
BRANCH  13  20
ATOM     20  C   UNL     1       3.518  -0.022  22.350  0.00  0.00    +0.127 C 
BRANCH  20  28
ATOM      7  O   UNL     1       4.164   2.328  22.393  0.00  0.00    -0.251 OA
ATOM     28  C   UNL     1       3.396   1.431  22.706  0.00  0.00    +0.305 C 
BRANCH  28   5
ATOM      5  O   UNL     1       2.277   1.620  23.451  0.00  0.00    -0.481 OA
ATOM     43  H   UNL     1       1.461   1.436  22.938  0.00  0.00    +0.295 HD
ENDBRANCH  28   5
ENDBRANCH  20  28
ENDBRANCH  13  20
ENDBRANCH  18  13
ENDBRANCH  26  18
ENDBRANCH  19  10
BRANCH  21  27
ATOM      6  O   UNL     1      -2.861   1.656  22.520  0.00  0.00    -0.273 OA
ATOM     11  N   UNL     1      -2.161   2.762  24.445  0.00  0.00    -0.301 N 
ATOM     27  C   UNL     1      -2.465   1.648  23.682  0.00  0.00    +0.246 C 
ATOM     42  H   UNL     1      -1.798   2.653  25.386  0.00  0.00    +0.150 HD
BRANCH  11  29
ATOM     29  C   UNL     1      -2.277   4.114  23.948  0.00  0.00    +0.163 C 
BRANCH  29  31
ATOM      8  O   UNL     1      -1.580   6.157  25.065  0.00  0.00    -0.274 OA
ATOM     12  N   UNL     1      -0.250   4.294  25.254  0.00  0.00    -0.328 N 
ATOM     31  C   UNL     1      -1.352   4.981  24.789  0.00  0.00    +0.231 C 
ATOM     44  H   UNL     1      -0.074   3.322  25.020  0.00  0.00    +0.145 HD
ATOM     45  H   UNL     1       0.440   4.751  25.840  0.00  0.00    +0.145 HD
ENDBRANCH  29  31
BRANCH  29  30
ATOM     30  C   UNL     1      -3.717   4.638  24.026  0.00  0.00    +0.067 C 
BRANCH  30  32
ATOM     32  C   UNL     1      -4.623   3.738  24.829  0.00  0.00    -0.045 A 
ATOM     33  C   UNL     1      -4.700   3.880  26.214  0.00  0.00    +0.007 A 
ATOM     34  C   UNL     1      -5.385   2.762  24.184  0.00  0.00    +0.007 A 
ATOM     35  C   UNL     1      -5.538   3.048  26.956  0.00  0.00    +0.045 A 
ATOM     36  C   UNL     1      -6.222   1.930  24.926  0.00  0.00    +0.045 A 
ATOM     37  C   UNL     1      -6.299   2.072  26.312  0.00  0.00    +0.117 A 
BRANCH  37   9
ATOM      9  O   UNL     1      -7.116   1.259  27.036  0.00  0.00    -0.507 OA
ATOM     46  H   UNL     1      -6.891   0.332  26.842  0.00  0.00    +0.292 HD
ENDBRANCH  37   9
ENDBRANCH  30  32
ENDBRANCH  29  30
ENDBRANCH  11  29
ENDBRANCH  21  27
BRANCH  21   1
ATOM      1  O   UNL     1      -2.651   0.638  25.763  0.00  0.00    -0.379 OA
ATOM     39  H   UNL     1      -2.468  -0.147  26.307  0.00  0.00    +0.211 HD
ENDBRANCH  21   1
BRANCH  23   2
ATOM      2  O   UNL     1      -1.224  -3.639  25.346  0.00  0.00    -0.387 OA
ATOM     40  H   UNL     1      -1.700  -4.370  24.917  0.00  0.00    +0.210 HD
ENDBRANCH  23   2
BRANCH  24   3
ATOM      3  O   UNL     1      -3.586  -3.103  23.850  0.00  0.00    -0.389 OA
ATOM     41  H   UNL     1      -3.149  -3.953  24.031  0.00  0.00    +0.210 HD
ENDBRANCH  24   3
TORSDOF 15
ENDMDL
MODEL 9
REMARK VINA RESULT:       7.1      2.045      4.803
REMARK  Name = 7134532
REMARK  15 active torsions:
REMARK  status: ('A' for Active; 'I' for Inactive)
REMARK    1  A    between atoms: O_1  and  C_21
REMARK    2  A    between atoms: O_2  and  C_23
REMARK    3  A    between atoms: O_3  and  C_24
REMARK    4  A    between atoms: O_5  and  C_28
REMARK    5  A    between atoms: O_9  and  C_37
REMARK    6  A    between atoms: N_10  and  C_19
REMARK    7  A    between atoms: N_11  and  C_29
REMARK    8  A    between atoms: C_13  and  C_18
REMARK    9  A    between atoms: C_13  and  C_20
REMARK   10  A    between atoms: C_18  and  C_26
REMARK   11  A    between atoms: C_20  and  C_28
REMARK   12  A    between atoms: C_21  and  C_27
REMARK   13  A    between atoms: C_29  and  C_30
REMARK   14  A    between atoms: C_29  and  C_31
REMARK   15  A    between atoms: C_30  and  C_32
REMARK                            x       y       z     vdW  Elec       q    Type
REMARK                         _______ _______ _______ _____ _____    ______ ____
ROOT
ATOM     19  C   UNL     1      -0.056   2.084  23.891  0.00  0.00    +0.107 C 
ATOM     21  C   UNL     1      -2.402   2.936  24.371  0.00  0.00    +0.146 C 
ATOM     22  C   UNL     1      -1.380   1.825  24.619  0.00  0.00    +0.069 C 
ATOM     23  C   UNL     1       0.515   3.470  24.222  0.00  0.00    +0.163 C 
ATOM     24  C   UNL     1      -0.511   4.584  23.996  0.00  0.00    +0.148 C 
ATOM     25  C   UNL     1      -1.828   4.307  24.723  0.00  0.00    +0.078 C 
ENDROOT
BRANCH  19  10
ATOM      4  O   UNL     1      -0.067  -0.662  22.980  0.00  0.00    -0.276 OA
ATOM     10  N   UNL     1       0.896   1.048  24.224  0.00  0.00    -0.310 N 
ATOM     26  C   UNL     1       0.807  -0.246  23.737  0.00  0.00    +0.214 C 
ATOM     38  H   UNL     1       1.619   1.276  24.901  0.00  0.00    +0.149 HD
BRANCH  26  18
ATOM     18  C   UNL     1       1.942  -1.113  24.250  0.00  0.00    +0.103 C 
BRANCH  18  13
ATOM     13  C   UNL     1       3.266  -0.831  23.536  0.00  0.00    -0.011 C 
ATOM     14  C   UNL     1       4.440  -1.543  24.222  0.00  0.00    +0.008 C 
ATOM     15  C   UNL     1       3.677   0.642  23.667  0.00  0.00    +0.008 C 
ATOM     16  C   UNL     1       5.679  -0.752  23.810  0.00  0.00    +0.001 C 
ATOM     17  C   UNL     1       5.189   0.652  23.455  0.00  0.00    +0.001 C 
BRANCH  13  20
ATOM     20  C   UNL     1       3.145  -1.249  22.061  0.00  0.00    +0.127 C 
BRANCH  20  28
ATOM      7  O   UNL     1       3.488   0.846  20.862  0.00  0.00    -0.251 OA
ATOM     28  C   UNL     1       2.768  -0.084  21.193  0.00  0.00    +0.305 C 
BRANCH  28   5
ATOM      5  O   UNL     1       1.470  -0.209  20.811  0.00  0.00    -0.481 OA
ATOM     43  H   UNL     1       1.377  -0.767  20.011  0.00  0.00    +0.295 HD
ENDBRANCH  28   5
ENDBRANCH  20  28
ENDBRANCH  13  20
ENDBRANCH  18  13
ENDBRANCH  26  18
ENDBRANCH  19  10
BRANCH  21  27
ATOM      6  O   UNL     1      -3.762   3.018  26.333  0.00  0.00    -0.273 OA
ATOM     11  N   UNL     1      -4.622   2.036  24.405  0.00  0.00    -0.301 N 
ATOM     27  C   UNL     1      -3.657   2.685  25.155  0.00  0.00    +0.246 C 
ATOM     42  H   UNL     1      -4.426   1.762  23.448  0.00  0.00    +0.150 HD
BRANCH  11  29
ATOM     29  C   UNL     1      -5.912   1.659  24.934  0.00  0.00    +0.163 C 
BRANCH  29  31
ATOM      8  O   UNL     1      -6.433   3.933  25.617  0.00  0.00    -0.274 OA
ATOM     12  N   UNL     1      -6.627   2.250  27.167  0.00  0.00    -0.328 N 
ATOM     31  C   UNL     1      -6.328   2.745  25.916  0.00  0.00    +0.231 C 
ATOM     44  H   UNL     1      -6.539   1.266  27.401  0.00  0.00    +0.145 HD
ATOM     45  H   UNL     1      -6.933   2.867  27.912  0.00  0.00    +0.145 HD
ENDBRANCH  29  31
BRANCH  29  30
ATOM     30  C   UNL     1      -5.877   0.294  25.633  0.00  0.00    +0.067 C 
BRANCH  30  32
ATOM     32  C   UNL     1      -4.686  -0.539  25.224  0.00  0.00    -0.045 A 
ATOM     33  C   UNL     1      -3.606  -0.688  26.094  0.00  0.00    +0.007 A 
ATOM     34  C   UNL     1      -4.668  -1.161  23.975  0.00  0.00    +0.007 A 
ATOM     35  C   UNL     1      -2.507  -1.459  25.715  0.00  0.00    +0.045 A 
ATOM     36  C   UNL     1      -3.569  -1.931  23.596  0.00  0.00    +0.045 A 
ATOM     37  C   UNL     1      -2.488  -2.080  24.466  0.00  0.00    +0.117 A 
BRANCH  37   9
ATOM      9  O   UNL     1      -1.415  -2.831  24.096  0.00  0.00    -0.507 OA
ATOM     46  H   UNL     1      -1.367  -3.616  24.670  0.00  0.00    +0.292 HD
ENDBRANCH  37   9
ENDBRANCH  30  32
ENDBRANCH  29  30
ENDBRANCH  11  29
ENDBRANCH  21  27
BRANCH  21   1
ATOM      1  O   UNL     1      -2.812   2.939  23.009  0.00  0.00    -0.379 OA
ATOM     39  H   UNL     1      -3.736   2.639  22.965  0.00  0.00    +0.211 HD
ENDBRANCH  21   1
BRANCH  23   2
ATOM      2  O   UNL     1       1.632   3.730  23.367  0.00  0.00    -0.387 OA
ATOM     40  H   UNL     1       1.379   4.436  22.747  0.00  0.00    +0.210 HD
ENDBRANCH  23   2
BRANCH  24   3
ATOM      3  O   UNL     1       0.037   5.809  24.483  0.00  0.00    -0.389 OA
ATOM     41  H   UNL     1      -0.676   6.470  24.478  0.00  0.00    +0.210 HD
ENDBRANCH  24   3
TORSDOF 15
ENDMDL
MODEL 10
REMARK VINA RESULT:       7.4      1.982      7.372
REMARK  Name = 7134532
REMARK  15 active torsions:
REMARK  status: ('A' for Active; 'I' for Inactive)
REMARK    1  A    between atoms: O_1  and  C_21
REMARK    2  A    between atoms: O_2  and  C_23
REMARK    3  A    between atoms: O_3  and  C_24
REMARK    4  A    between atoms: O_5  and  C_28
REMARK    5  A    between atoms: O_9  and  C_37
REMARK    6  A    between atoms: N_10  and  C_19
REMARK    7  A    between atoms: N_11  and  C_29
REMARK    8  A    between atoms: C_13  and  C_18
REMARK    9  A    between atoms: C_13  and  C_20
REMARK   10  A    between atoms: C_18  and  C_26
REMARK   11  A    between atoms: C_20  and  C_28
REMARK   12  A    between atoms: C_21  and  C_27
REMARK   13  A    between atoms: C_29  and  C_30
REMARK   14  A    between atoms: C_29  and  C_31
REMARK   15  A    between atoms: C_30  and  C_32
REMARK                            x       y       z     vdW  Elec       q    Type
REMARK                         _______ _______ _______ _____ _____    ______ ____
ROOT
ATOM     19  C   UNL     1      -3.026  -0.343  23.643  0.00  0.00    +0.107 C 
ATOM     21  C   UNL     1      -0.808  -1.537  23.980  0.00  0.00    +0.146 C 
ATOM     22  C   UNL     1      -1.534  -0.190  23.956  0.00  0.00    +0.069 C 
ATOM     23  C   UNL     1      -3.709  -1.343  24.587  0.00  0.00    +0.163 C 
ATOM     24  C   UNL     1      -2.974  -2.685  24.630  0.00  0.00    +0.148 C 
ATOM     25  C   UNL     1      -1.485  -2.515  24.937  0.00  0.00    +0.078 C 
ENDROOT
BRANCH  19  10
ATOM      4  O   UNL     1      -2.525   1.963  21.968  0.00  0.00    -0.276 OA
ATOM     10  N   UNL     1      -3.675   0.948  23.713  0.00  0.00    -0.310 N 
ATOM     26  C   UNL     1      -3.365   1.997  22.863  0.00  0.00    +0.214 C 
ATOM     38  H   UNL     1      -4.339   1.098  24.468  0.00  0.00    +0.149 HD
BRANCH  26  18
ATOM     18  C   UNL     1      -4.206   3.225  23.166  0.00  0.00    +0.103 C 
BRANCH  18  13
ATOM     13  C   UNL     1      -3.877   3.840  24.527  0.00  0.00    -0.011 C 
ATOM     14  C   UNL     1      -3.088   5.149  24.380  0.00  0.00    +0.008 C 
ATOM     15  C   UNL     1      -2.890   2.970  25.318  0.00  0.00    +0.008 C 
ATOM     16  C   UNL     1      -2.356   5.323  25.708  0.00  0.00    +0.001 C 
ATOM     17  C   UNL     1      -2.227   3.923  26.310  0.00  0.00    +0.001 C 
BRANCH  13  20
ATOM     20  C   UNL     1      -5.180   4.060  25.313  0.00  0.00    +0.127 C 
BRANCH  20  28
ATOM      7  O   UNL     1      -6.186   1.904  24.782  0.00  0.00    -0.251 OA
ATOM     28  C   UNL     1      -5.873   2.759  25.596  0.00  0.00    +0.305 C 
BRANCH  28   5
ATOM      5  O   UNL     1      -6.114   2.658  26.929  0.00  0.00    -0.481 OA
ATOM     43  H   UNL     1      -6.305   3.530  27.333  0.00  0.00    +0.295 HD
ENDBRANCH  28   5
ENDBRANCH  20  28
ENDBRANCH  13  20
ENDBRANCH  18  13
ENDBRANCH  26  18
ENDBRANCH  19  10
BRANCH  21  27
ATOM      6  O   UNL     1       1.142  -1.981  25.285  0.00  0.00    -0.273 OA
ATOM     11  N   UNL     1       1.266  -0.410  23.571  0.00  0.00    -0.301 N 
ATOM     27  C   UNL     1       0.632  -1.355  24.360  0.00  0.00    +0.246 C 
ATOM     42  H   UNL     1       0.748   0.088  22.855  0.00  0.00    +0.150 HD
BRANCH  11  29
ATOM     29  C   UNL     1       2.650  -0.034  23.749  0.00  0.00    +0.163 C 
BRANCH  29  31
ATOM      8  O   UNL     1       3.522   1.983  22.712  0.00  0.00    -0.274 OA
ATOM     12  N   UNL     1       2.786   0.282  21.356  0.00  0.00    -0.328 N 
ATOM     31  C   UNL     1       3.022   0.869  22.581  0.00  0.00    +0.231 C 
ATOM     44  H   UNL     1       2.375  -0.640  21.261  0.00  0.00    +0.145 HD
ATOM     45  H   UNL     1       3.005   0.772  20.494  0.00  0.00    +0.145 HD
ENDBRANCH  29  31
BRANCH  29  30
ATOM     30  C   UNL     1       3.580  -1.253  23.798  0.00  0.00    +0.067 C 
BRANCH  30  32
ATOM     32  C   UNL     1       5.030  -0.889  23.591  0.00  0.00    -0.045 A 
ATOM     33  C   UNL     1       5.841  -1.683  22.782  0.00  0.00    +0.007 A 
ATOM     34  C   UNL     1       5.559   0.245  24.210  0.00  0.00    +0.007 A 
ATOM     35  C   UNL     1       7.181  -1.346  22.591  0.00  0.00    +0.045 A 
ATOM     36  C   UNL     1       6.898   0.582  24.020  0.00  0.00    +0.045 A 
ATOM     37  C   UNL     1       7.710  -0.213  23.210  0.00  0.00    +0.117 A 
BRANCH  37   9
ATOM      9  O   UNL     1       9.017   0.116  23.025  0.00  0.00    -0.507 OA
ATOM     46  H   UNL     1       9.100   1.085  23.015  0.00  0.00    +0.292 HD
ENDBRANCH  37   9
ENDBRANCH  30  32
ENDBRANCH  29  30
ENDBRANCH  11  29
ENDBRANCH  21  27
BRANCH  21   1
ATOM      1  O   UNL     1      -0.777  -2.107  22.677  0.00  0.00    -0.379 OA
ATOM     39  H   UNL     1      -0.313  -1.492  22.083  0.00  0.00    +0.211 HD
ENDBRANCH  21   1
BRANCH  23   2
ATOM      2  O   UNL     1      -5.038  -1.592  24.121  0.00  0.00    -0.387 OA
ATOM     40  H   UNL     1      -5.189  -1.042  23.333  0.00  0.00    +0.210 HD
ENDBRANCH  23   2
BRANCH  24   3
ATOM      3  O   UNL     1      -3.567  -3.492  25.648  0.00  0.00    -0.389 OA
ATOM     41  H   UNL     1      -4.531  -3.378  25.586  0.00  0.00    +0.210 HD
ENDBRANCH  24   3
TORSDOF 15
ENDMDL
