MODEL 1
REMARK VINA RESULT:      -4.2      0.000      0.000
REMARK  Name = 38345003
REMARK  9 active torsions:
REMARK  status: ('A' for Active; 'I' for Inactive)
REMARK    1  A    between atoms: O_3  and  C_21
REMARK    2  A    between atoms: O_3  and  C_24
REMARK    3  A    between atoms: N_5  and  C_17
REMARK    4  A    between atoms: N_8  and  C_20
REMARK    5  A    between atoms: C_12  and  C_16
REMARK    6  A    between atoms: C_16  and  C_19
REMARK    7  A    between atoms: C_19  and  C_21
REMARK    8  A    between atoms: C_20  and  C_22
REMARK    9  A    between atoms: C_20  and  C_23
REMARK                            x       y       z     vdW  Elec       q    Type
REMARK                         _______ _______ _______ _____ _____    ______ ____
ROOT
ATOM      1  O   UNL     1      -0.011   1.734  25.500  0.00  0.00    -0.274 OA
ATOM      2  O   UNL     1       1.708   1.117  22.771  0.00  0.00    -0.253 OA
ATOM      5  N   UNL     1      -3.000  -0.660  24.850  0.00  0.00    -0.296 NA
ATOM      6  N   UNL     1       0.634  -0.486  24.041  0.00  0.00    -0.273 N 
ATOM      7  N   UNL     1      -2.055   2.001  24.486  0.00  0.00    -0.312 N 
ATOM      8  N   UNL     1       2.908  -0.710  23.509  0.00  0.00    -0.297 N 
ATOM      9  C   UNL     1      -1.682  -1.048  24.300  0.00  0.00    +0.088 C 
ATOM     10  C   UNL     1      -0.705   0.071  23.865  0.00  0.00    +0.180 C 
ATOM     11  C   UNL     1      -0.820  -1.793  25.348  0.00  0.00    +0.040 C 
ATOM     12  C   UNL     1      -3.798   0.271  24.008  0.00  0.00    +0.074 C 
ATOM     13  C   UNL     1       0.590  -1.730  24.793  0.00  0.00    +0.112 C 
ATOM     14  C   UNL     1      -3.055   1.544  23.540  0.00  0.00    +0.123 C 
ATOM     15  C   UNL     1      -0.859   1.339  24.703  0.00  0.00    +0.235 C 
ATOM     17  C   UNL     1      -3.780  -1.860  25.196  0.00  0.00    +0.105 C 
ATOM     18  C   UNL     1       1.751   0.052  23.392  0.00  0.00    +0.303 C 
ATOM     25  H   UNL     1      -2.227   2.860  24.999  0.00  0.00    +0.149 HD
ATOM     26  H   UNL     1       2.899  -1.541  24.090  0.00  0.00    +0.150 HD
ENDROOT
BRANCH   8  20
ATOM     20  C   UNL     1       4.173  -0.333  22.917  0.00  0.00    +0.068 C 
ATOM     22  C   UNL     1       5.322  -0.696  23.847  0.00  0.00    +0.027 C 
ATOM     23  C   UNL     1       4.183   1.153  22.578  0.00  0.00    +0.027 C 
ENDBRANCH   8  20
BRANCH  12  16
ATOM     16  C   UNL     1      -5.069   0.741  24.748  0.00  0.00    +0.031 C 
BRANCH  16  19
ATOM     19  C   UNL     1      -5.343   2.207  24.464  0.00  0.00    +0.122 C 
BRANCH  19  21
ATOM      4  O   UNL     1      -5.921   2.801  26.750  0.00  0.00    -0.251 OA
ATOM     21  C   UNL     1      -5.284   3.028  25.731  0.00  0.00    +0.307 C 
BRANCH  21   3
ATOM      3  O   UNL     1      -4.405   4.058  25.549  0.00  0.00    -0.468 OA
ATOM     24  C   UNL     1      -3.301   4.094  26.459  0.00  0.00    +0.280 C 
ENDBRANCH  21   3
ENDBRANCH  19  21
ENDBRANCH  16  19
ENDBRANCH  12  16
TORSDOF 5
ENDMDL
MODEL 2
REMARK VINA RESULT:      -3.2      0.816      1.218
REMARK  Name = 38345003
REMARK  9 active torsions:
REMARK  status: ('A' for Active; 'I' for Inactive)
REMARK    1  A    between atoms: O_3  and  C_21
REMARK    2  A    between atoms: O_3  and  C_24
REMARK    3  A    between atoms: N_5  and  C_17
REMARK    4  A    between atoms: N_8  and  C_20
REMARK    5  A    between atoms: C_12  and  C_16
REMARK    6  A    between atoms: C_16  and  C_19
REMARK    7  A    between atoms: C_19  and  C_21
REMARK    8  A    between atoms: C_20  and  C_22
REMARK    9  A    between atoms: C_20  and  C_23
REMARK                            x       y       z     vdW  Elec       q    Type
REMARK                         _______ _______ _______ _____ _____    ______ ____
ROOT
ATOM      1  O   UNL     1       0.276   2.022  25.363  0.00  0.00    -0.274 OA
ATOM      2  O   UNL     1       2.164   1.207  22.802  0.00  0.00    -0.253 OA
ATOM      5  N   UNL     1      -2.958   0.146  24.313  0.00  0.00    -0.296 NA
ATOM      6  N   UNL     1       0.725  -0.236  23.889  0.00  0.00    -0.273 N 
ATOM      7  N   UNL     1      -1.581   2.632  24.156  0.00  0.00    -0.312 N 
ATOM      8  N   UNL     1       2.980  -0.804  23.585  0.00  0.00    -0.297 N 
ATOM      9  C   UNL     1      -1.665  -0.433  23.886  0.00  0.00    +0.088 C 
ATOM     10  C   UNL     1      -0.486   0.529  23.600  0.00  0.00    +0.180 C 
ATOM     11  C   UNL     1      -1.046  -1.328  24.986  0.00  0.00    +0.040 C 
ATOM     12  C   UNL     1      -3.508   1.210  23.432  0.00  0.00    +0.074 C 
ATOM     13  C   UNL     1       0.409  -1.475  24.582  0.00  0.00    +0.112 C 
ATOM     14  C   UNL     1      -2.532   2.361  23.094  0.00  0.00    +0.123 C 
ATOM     15  C   UNL     1      -0.532   1.785  24.467  0.00  0.00    +0.235 C 
ATOM     17  C   UNL     1      -3.948  -0.925  24.529  0.00  0.00    +0.105 C 
ATOM     18  C   UNL     1       1.974   0.133  23.381  0.00  0.00    +0.303 C 
ATOM     25  H   UNL     1      -1.673   3.495  24.682  0.00  0.00    +0.149 HD
ATOM     26  H   UNL     1       2.781  -1.636  24.128  0.00  0.00    +0.150 HD
ENDROOT
BRANCH   8  20
ATOM     20  C   UNL     1       4.345  -0.617  23.142  0.00  0.00    +0.068 C 
ATOM     22  C   UNL     1       5.314  -1.252  24.129  0.00  0.00    +0.027 C 
ATOM     23  C   UNL     1       4.646   0.864  22.947  0.00  0.00    +0.027 C 
ENDBRANCH   8  20
BRANCH  12  16
ATOM     16  C   UNL     1      -4.764   1.858  24.056  0.00  0.00    +0.031 C 
BRANCH  16  19
ATOM     19  C   UNL     1      -4.536   3.337  24.306  0.00  0.00    +0.122 C 
BRANCH  19  21
ATOM      4  O   UNL     1      -3.448   3.954  26.391  0.00  0.00    -0.251 OA
ATOM     21  C   UNL     1      -4.462   3.635  25.786  0.00  0.00    +0.307 C 
BRANCH  21   3
ATOM      3  O   UNL     1      -5.707   3.490  26.328  0.00  0.00    -0.468 OA
ATOM     24  C   UNL     1      -6.124   2.140  26.560  0.00  0.00    +0.280 C 
ENDBRANCH  21   3
ENDBRANCH  19  21
ENDBRANCH  16  19
ENDBRANCH  12  16
TORSDOF 5
ENDMDL
MODEL 3
REMARK VINA RESULT:      -0.6      1.751      2.690
REMARK  Name = 38345003
REMARK  9 active torsions:
REMARK  status: ('A' for Active; 'I' for Inactive)
REMARK    1  A    between atoms: O_3  and  C_21
REMARK    2  A    between atoms: O_3  and  C_24
REMARK    3  A    between atoms: N_5  and  C_17
REMARK    4  A    between atoms: N_8  and  C_20
REMARK    5  A    between atoms: C_12  and  C_16
REMARK    6  A    between atoms: C_16  and  C_19
REMARK    7  A    between atoms: C_19  and  C_21
REMARK    8  A    between atoms: C_20  and  C_22
REMARK    9  A    between atoms: C_20  and  C_23
REMARK                            x       y       z     vdW  Elec       q    Type
REMARK                         _______ _______ _______ _____ _____    ______ ____
ROOT
ATOM      1  O   UNL     1      -1.669   1.444  22.185  0.00  0.00    -0.274 OA
ATOM      2  O   UNL     1       0.746  -0.564  23.142  0.00  0.00    -0.253 OA
ATOM      5  N   UNL     1      -2.979   2.481  25.691  0.00  0.00    -0.296 NA
ATOM      6  N   UNL     1       0.250   1.463  24.132  0.00  0.00    -0.273 N 
ATOM      7  N   UNL     1      -3.295   0.604  23.573  0.00  0.00    -0.312 N 
ATOM      8  N   UNL     1       2.428   0.995  23.398  0.00  0.00    -0.297 N 
ATOM      9  C   UNL     1      -1.540   2.157  25.568  0.00  0.00    +0.088 C 
ATOM     10  C   UNL     1      -1.109   1.097  24.527  0.00  0.00    +0.180 C 
ATOM     11  C   UNL     1      -0.717   3.379  25.094  0.00  0.00    +0.040 C 
ATOM     12  C   UNL     1      -3.882   1.317  25.898  0.00  0.00    +0.074 C 
ATOM     13  C   UNL     1       0.597   2.789  24.617  0.00  0.00    +0.112 C 
ATOM     14  C   UNL     1      -3.714   0.158  24.889  0.00  0.00    +0.123 C 
ATOM     15  C   UNL     1      -2.022   1.074  23.302  0.00  0.00    +0.235 C 
ATOM     17  C   UNL     1      -3.184   3.501  26.733  0.00  0.00    +0.105 C 
ATOM     18  C   UNL     1       1.118   0.548  23.529  0.00  0.00    +0.303 C 
ATOM     25  H   UNL     1      -3.958   0.549  22.807  0.00  0.00    +0.149 HD
ATOM     26  H   UNL     1       2.659   1.943  23.670  0.00  0.00    +0.150 HD
ENDROOT
BRANCH   8  20
ATOM     20  C   UNL     1       3.483   0.206  22.799  0.00  0.00    +0.068 C 
ATOM     22  C   UNL     1       4.827   0.562  23.419  0.00  0.00    +0.027 C 
ATOM     23  C   UNL     1       3.503   0.398  21.288  0.00  0.00    +0.027 C 
ENDBRANCH   8  20
BRANCH  12  16
ATOM     16  C   UNL     1      -5.365   1.747  25.842  0.00  0.00    +0.031 C 
BRANCH  16  19
ATOM     19  C   UNL     1      -5.631   2.598  24.614  0.00  0.00    +0.122 C 
BRANCH  19  21
ATOM      4  O   UNL     1      -6.273   4.659  25.732  0.00  0.00    -0.251 OA
ATOM     21  C   UNL     1      -5.547   4.070  24.943  0.00  0.00    +0.307 C 
BRANCH  21   3
ATOM      3  O   UNL     1      -4.534   4.628  24.217  0.00  0.00    -0.468 OA
ATOM     24  C   UNL     1      -4.116   3.883  23.068  0.00  0.00    +0.280 C 
ENDBRANCH  21   3
ENDBRANCH  19  21
ENDBRANCH  16  19
ENDBRANCH  12  16
TORSDOF 5
ENDMDL
