MODEL 1
REMARK VINA RESULT:      -6.7      0.000      0.000
REMARK  Name = 75536576
REMARK  8 active torsions:
REMARK  status: ('A' for Active; 'I' for Inactive)
REMARK    1  A    between atoms: O_4  and  C_11
REMARK    2  A    between atoms: O_6  and  C_21
REMARK    3  A    between atoms: O_6  and  C_22
REMARK    4  A    between atoms: N_7  and  C_9
REMARK    5  A    between atoms: N_7  and  C_10
REMARK    6  A    between atoms: N_8  and  C_19
REMARK    7  A    between atoms: C_14  and  C_19
REMARK    8  A    between atoms: C_20  and  C_21
REMARK                            x       y       z     vdW  Elec       q    Type
REMARK                         _______ _______ _______ _____ _____    ______ ____
ROOT
ATOM      3  O   UNL     1      -0.189   3.801  25.694  0.00  0.00    -0.371 OA
ATOM      9  C   UNL     1      -0.216   1.472  25.230  0.00  0.00    +0.111 C 
ATOM     11  C   UNL     1      -1.334   2.144  24.454  0.00  0.00    +0.164 C 
ATOM     14  C   UNL     1      -0.851   3.588  24.435  0.00  0.00    +0.165 C 
ATOM     15  C   UNL     1       0.089   2.521  26.287  0.00  0.00    +0.181 C 
ENDROOT
BRANCH  11   4
ATOM      4  O   UNL     1      -1.483   1.621  23.149  0.00  0.00    -0.388 OA
ATOM     24  H   UNL     1      -1.553   2.366  22.527  0.00  0.00    +0.210 HD
ENDBRANCH  11   4
BRANCH   9   7
ATOM      7  N   UNL     1      -0.592   0.188  25.799  0.00  0.00    -0.306 NA
ATOM     23  H   UNL     1      -0.988   0.316  26.728  0.00  0.00    +0.123 HD
BRANCH   7  10
ATOM      1  F   UNL     1      -3.648  -3.233  25.693  0.00  0.00    -0.206 F 
ATOM      2  F   UNL     1      -4.458  -3.205  23.674  0.00  0.00    -0.206 F 
ATOM     10  C   UNL     1      -1.553  -0.499  24.937  0.00  0.00    +0.054 C 
ATOM     12  C   UNL     1      -1.149  -1.969  24.775  0.00  0.00    +0.024 C 
ATOM     13  C   UNL     1      -2.963  -0.371  25.525  0.00  0.00    +0.024 C 
ATOM     16  C   UNL     1      -2.171  -2.736  23.937  0.00  0.00    +0.077 C 
ATOM     17  C   UNL     1      -3.985  -1.137  24.688  0.00  0.00    +0.077 C 
ATOM     18  C   UNL     1      -3.574  -2.588  24.499  0.00  0.00    +0.249 C 
ENDBRANCH   7  10
ENDBRANCH   9   7
BRANCH  14  19
ATOM     19  C   UNL     1      -1.976   4.595  24.270  0.00  0.00    +0.138 C 
BRANCH  19   8
ATOM      5  O   UNL     1      -3.247   4.286  26.850  0.00  0.00    -0.273 OA
ATOM      8  N   UNL     1      -3.253   3.999  24.540  0.00  0.00    -0.311 N 
ATOM     20  C   UNL     1      -3.789   3.893  25.821  0.00  0.00    +0.239 C 
ATOM     25  H   UNL     1      -3.781   3.631  23.755  0.00  0.00    +0.149 HD
BRANCH  20  21
ATOM     21  C   UNL     1      -5.147   3.224  25.814  0.00  0.00    +0.255 C 
BRANCH  21   6
ATOM      6  O   UNL     1      -5.231   2.277  24.770  0.00  0.00    -0.374 OA
ATOM     22  C   UNL     1      -6.469   1.573  24.790  0.00  0.00    +0.194 C 
ENDBRANCH  21   6
ENDBRANCH  20  21
ENDBRANCH  19   8
ENDBRANCH  14  19
TORSDOF 7
ENDMDL
MODEL 2
REMARK VINA RESULT:      -6.4      1.744      3.796
REMARK  Name = 75536576
REMARK  8 active torsions:
REMARK  status: ('A' for Active; 'I' for Inactive)
REMARK    1  A    between atoms: O_4  and  C_11
REMARK    2  A    between atoms: O_6  and  C_21
REMARK    3  A    between atoms: O_6  and  C_22
REMARK    4  A    between atoms: N_7  and  C_9
REMARK    5  A    between atoms: N_7  and  C_10
REMARK    6  A    between atoms: N_8  and  C_19
REMARK    7  A    between atoms: C_14  and  C_19
REMARK    8  A    between atoms: C_20  and  C_21
REMARK                            x       y       z     vdW  Elec       q    Type
REMARK                         _______ _______ _______ _____ _____    ______ ____
ROOT
ATOM      3  O   UNL     1      -3.062   3.842  23.504  0.00  0.00    -0.371 OA
ATOM      9  C   UNL     1      -4.541   2.653  24.932  0.00  0.00    +0.111 C 
ATOM     11  C   UNL     1      -3.398   3.211  25.759  0.00  0.00    +0.164 C 
ATOM     14  C   UNL     1      -2.893   4.322  24.849  0.00  0.00    +0.165 C 
ATOM     15  C   UNL     1      -3.959   2.718  23.530  0.00  0.00    +0.181 C 
ENDROOT
BRANCH  11   4
ATOM      4  O   UNL     1      -3.822   3.707  27.013  0.00  0.00    -0.388 OA
ATOM     24  H   UNL     1      -3.075   3.647  27.634  0.00  0.00    +0.210 HD
ENDBRANCH  11   4
BRANCH   9   7
ATOM      7  N   UNL     1      -4.939   1.309  25.318  0.00  0.00    -0.306 NA
ATOM     23  H   UNL     1      -5.902   1.132  25.037  0.00  0.00    +0.123 HD
BRANCH   7  10
ATOM      1  F   UNL     1      -3.521  -3.041  25.670  0.00  0.00    -0.206 F 
ATOM      2  F   UNL     1      -2.086  -3.299  24.056  0.00  0.00    -0.206 F 
ATOM     10  C   UNL     1      -4.052   0.314  24.718  0.00  0.00    +0.054 C 
ATOM     12  C   UNL     1      -3.008  -0.140  25.746  0.00  0.00    +0.024 C 
ATOM     13  C   UNL     1      -4.875  -0.872  24.202  0.00  0.00    +0.024 C 
ATOM     16  C   UNL     1      -2.107  -1.233  25.175  0.00  0.00    +0.077 C 
ATOM     17  C   UNL     1      -3.975  -1.966  23.632  0.00  0.00    +0.077 C 
ATOM     18  C   UNL     1      -2.919  -2.397  24.635  0.00  0.00    +0.249 C 
ENDBRANCH   7  10
ENDBRANCH   9   7
BRANCH  14  19
ATOM     19  C   UNL     1      -1.436   4.678  25.087  0.00  0.00    +0.138 C 
BRANCH  19   8
ATOM      5  O   UNL     1      -0.315   2.306  26.307  0.00  0.00    -0.273 OA
ATOM      8  N   UNL     1      -0.559   3.721  24.475  0.00  0.00    -0.311 N 
ATOM     20  C   UNL     1      -0.066   2.602  25.142  0.00  0.00    +0.239 C 
ATOM     25  H   UNL     1      -0.282   3.880  23.511  0.00  0.00    +0.149 HD
BRANCH  20  21
ATOM     21  C   UNL     1       0.833   1.765  24.258  0.00  0.00    +0.255 C 
BRANCH  21   6
ATOM      6  O   UNL     1       0.084   0.787  23.569  0.00  0.00    -0.374 OA
ATOM     22  C   UNL     1       0.917  -0.220  23.002  0.00  0.00    +0.194 C 
ENDBRANCH  21   6
ENDBRANCH  20  21
ENDBRANCH  19   8
ENDBRANCH  14  19
TORSDOF 7
ENDMDL
MODEL 3
REMARK VINA RESULT:      -5.9      2.526      4.720
REMARK  Name = 75536576
REMARK  8 active torsions:
REMARK  status: ('A' for Active; 'I' for Inactive)
REMARK    1  A    between atoms: O_4  and  C_11
REMARK    2  A    between atoms: O_6  and  C_21
REMARK    3  A    between atoms: O_6  and  C_22
REMARK    4  A    between atoms: N_7  and  C_9
REMARK    5  A    between atoms: N_7  and  C_10
REMARK    6  A    between atoms: N_8  and  C_19
REMARK    7  A    between atoms: C_14  and  C_19
REMARK    8  A    between atoms: C_20  and  C_21
REMARK                            x       y       z     vdW  Elec       q    Type
REMARK                         _______ _______ _______ _____ _____    ______ ____
ROOT
ATOM      3  O   UNL     1      -0.533   1.548  22.900  0.00  0.00    -0.371 OA
ATOM      9  C   UNL     1      -0.978   2.986  24.737  0.00  0.00    +0.111 C 
ATOM     11  C   UNL     1      -0.124   1.825  25.213  0.00  0.00    +0.164 C 
ATOM     14  C   UNL     1       0.481   1.348  23.899  0.00  0.00    +0.165 C 
ATOM     15  C   UNL     1      -1.530   2.439  23.432  0.00  0.00    +0.181 C 
ENDROOT
BRANCH  11   4
ATOM      4  O   UNL     1       0.869   2.220  26.138  0.00  0.00    -0.388 OA
ATOM     24  H   UNL     1       1.722   2.263  25.671  0.00  0.00    +0.210 HD
ENDBRANCH  11   4
BRANCH   9   7
ATOM      7  N   UNL     1      -2.019   3.367  25.678  0.00  0.00    -0.306 NA
ATOM     23  H   UNL     1      -1.942   4.357  25.907  0.00  0.00    +0.123 HD
BRANCH   7  10
ATOM      1  F   UNL     1      -6.135   1.621  26.707  0.00  0.00    -0.206 F 
ATOM      2  F   UNL     1      -7.298   1.799  24.878  0.00  0.00    -0.206 F 
ATOM     10  C   UNL     1      -3.343   3.085  25.126  0.00  0.00    +0.054 C 
ATOM     12  C   UNL     1      -3.618   1.577  25.177  0.00  0.00    +0.024 C 
ATOM     13  C   UNL     1      -4.407   3.869  25.902  0.00  0.00    +0.024 C 
ATOM     16  C   UNL     1      -5.023   1.251  24.673  0.00  0.00    +0.077 C 
ATOM     17  C   UNL     1      -5.813   3.545  25.400  0.00  0.00    +0.077 C 
ATOM     18  C   UNL     1      -6.079   2.049  25.419  0.00  0.00    +0.249 C 
ENDBRANCH   7  10
ENDBRANCH   9   7
BRANCH  14  19
ATOM     19  C   UNL     1       0.895  -0.112  23.924  0.00  0.00    +0.138 C 
BRANCH  19   8
ATOM      5  O   UNL     1      -0.651  -1.413  25.994  0.00  0.00    -0.273 OA
ATOM      8  N   UNL     1      -0.235  -0.978  23.746  0.00  0.00    -0.311 N 
ATOM     20  C   UNL     1      -0.923  -1.563  24.807  0.00  0.00    +0.239 C 
ATOM     25  H   UNL     1      -0.536  -1.176  22.797  0.00  0.00    +0.149 HD
BRANCH  20  21
ATOM     21  C   UNL     1      -2.072  -2.426  24.331  0.00  0.00    +0.255 C 
BRANCH  21   6
ATOM      6  O   UNL     1      -3.302  -1.924  24.808  0.00  0.00    -0.374 OA
ATOM     22  C   UNL     1      -4.343  -2.067  23.846  0.00  0.00    +0.194 C 
ENDBRANCH  21   6
ENDBRANCH  20  21
ENDBRANCH  19   8
ENDBRANCH  14  19
TORSDOF 7
ENDMDL
MODEL 4
REMARK VINA RESULT:      -5.8      3.311      5.240
REMARK  Name = 75536576
REMARK  8 active torsions:
REMARK  status: ('A' for Active; 'I' for Inactive)
REMARK    1  A    between atoms: O_4  and  C_11
REMARK    2  A    between atoms: O_6  and  C_21
REMARK    3  A    between atoms: O_6  and  C_22
REMARK    4  A    between atoms: N_7  and  C_9
REMARK    5  A    between atoms: N_7  and  C_10
REMARK    6  A    between atoms: N_8  and  C_19
REMARK    7  A    between atoms: C_14  and  C_19
REMARK    8  A    between atoms: C_20  and  C_21
REMARK                            x       y       z     vdW  Elec       q    Type
REMARK                         _______ _______ _______ _____ _____    ______ ____
ROOT
ATOM      3  O   UNL     1      -1.429  -2.247  23.499  0.00  0.00    -0.371 OA
ATOM      9  C   UNL     1       0.001  -0.640  24.505  0.00  0.00    +0.111 C 
ATOM     11  C   UNL     1      -1.227  -0.825  25.378  0.00  0.00    +0.164 C 
ATOM     14  C   UNL     1      -1.720  -2.186  24.906  0.00  0.00    +0.165 C 
ATOM     15  C   UNL     1      -0.481  -1.212  23.183  0.00  0.00    +0.181 C 
ENDROOT
BRANCH  11   4
ATOM      4  O   UNL     1      -0.921  -0.825  26.759  0.00  0.00    -0.388 OA
ATOM     24  H   UNL     1      -0.672  -1.729  27.017  0.00  0.00    +0.210 HD
ENDBRANCH  11   4
BRANCH   9   7
ATOM      7  N   UNL     1       0.436   0.743  24.399  0.00  0.00    -0.306 NA
ATOM     23  H   UNL     1       0.686   0.961  23.435  0.00  0.00    +0.123 HD
BRANCH   7  10
ATOM      1  F   UNL     1      -0.614   5.179  24.920  0.00  0.00    -0.206 F 
ATOM      2  F   UNL     1      -2.614   5.190  25.775  0.00  0.00    -0.206 F 
ATOM     10  C   UNL     1      -0.611   1.653  24.861  0.00  0.00    +0.054 C 
ATOM     12  C   UNL     1      -0.087   2.500  26.028  0.00  0.00    +0.024 C 
ATOM     13  C   UNL     1      -1.081   2.537  23.700  0.00  0.00    +0.024 C 
ATOM     16  C   UNL     1      -1.132   3.513  26.491  0.00  0.00    +0.077 C 
ATOM     17  C   UNL     1      -2.126   3.551  24.162  0.00  0.00    +0.077 C 
ATOM     18  C   UNL     1      -1.623   4.371  25.338  0.00  0.00    +0.249 C 
ENDBRANCH   7  10
ENDBRANCH   9   7
BRANCH  14  19
ATOM     19  C   UNL     1      -3.206  -2.398  25.133  0.00  0.00    +0.138 C 
BRANCH  19   8
ATOM      5  O   UNL     1      -4.066  -0.134  23.551  0.00  0.00    -0.273 OA
ATOM      8  N   UNL     1      -3.837  -1.200  25.607  0.00  0.00    -0.311 N 
ATOM     20  C   UNL     1      -4.219  -0.156  24.769  0.00  0.00    +0.239 C 
ATOM     25  H   UNL     1      -4.000  -1.113  26.606  0.00  0.00    +0.149 HD
BRANCH  20  21
ATOM     21  C   UNL     1      -4.862   0.981  25.535  0.00  0.00    +0.255 C 
BRANCH  21   6
ATOM      6  O   UNL     1      -5.120   2.075  24.680  0.00  0.00    -0.374 OA
ATOM     22  C   UNL     1      -5.454   3.252  25.409  0.00  0.00    +0.194 C 
ENDBRANCH  21   6
ENDBRANCH  20  21
ENDBRANCH  19   8
ENDBRANCH  14  19
TORSDOF 7
ENDMDL
MODEL 5
REMARK VINA RESULT:      -5.6      3.231      5.260
REMARK  Name = 75536576
REMARK  8 active torsions:
REMARK  status: ('A' for Active; 'I' for Inactive)
REMARK    1  A    between atoms: O_4  and  C_11
REMARK    2  A    between atoms: O_6  and  C_21
REMARK    3  A    between atoms: O_6  and  C_22
REMARK    4  A    between atoms: N_7  and  C_9
REMARK    5  A    between atoms: N_7  and  C_10
REMARK    6  A    between atoms: N_8  and  C_19
REMARK    7  A    between atoms: C_14  and  C_19
REMARK    8  A    between atoms: C_20  and  C_21
REMARK                            x       y       z     vdW  Elec       q    Type
REMARK                         _______ _______ _______ _____ _____    ______ ____
ROOT
ATOM      3  O   UNL     1       0.646  -0.761  23.340  0.00  0.00    -0.371 OA
ATOM      9  C   UNL     1       0.263   1.375  24.304  0.00  0.00    +0.111 C 
ATOM     11  C   UNL     1      -0.617   0.353  25.000  0.00  0.00    +0.164 C 
ATOM     14  C   UNL     1       0.112  -0.940  24.663  0.00  0.00    +0.165 C 
ATOM     15  C   UNL     1       0.620   0.641  23.022  0.00  0.00    +0.181 C 
ENDROOT
BRANCH  11   4
ATOM      4  O   UNL     1      -0.699   0.564  26.396  0.00  0.00    -0.388 OA
ATOM     24  H   UNL     1      -1.277  -0.121  26.775  0.00  0.00    +0.210 HD
ENDBRANCH  11   4
BRANCH   9   7
ATOM      7  N   UNL     1      -0.398   2.647  24.064  0.00  0.00    -0.306 NA
ATOM     23  H   UNL     1      -0.414   2.854  23.066  0.00  0.00    +0.123 HD
BRANCH   7  10
ATOM      1  F   UNL     1      -4.315   5.032  24.211  0.00  0.00    -0.206 F 
ATOM      2  F   UNL     1      -5.671   3.820  25.405  0.00  0.00    -0.206 F 
ATOM     10  C   UNL     1      -1.762   2.629  24.591  0.00  0.00    +0.054 C 
ATOM     12  C   UNL     1      -1.973   3.824  25.529  0.00  0.00    +0.024 C 
ATOM     13  C   UNL     1      -2.767   2.648  23.433  0.00  0.00    +0.024 C 
ATOM     16  C   UNL     1      -3.410   3.878  26.044  0.00  0.00    +0.077 C 
ATOM     17  C   UNL     1      -4.205   2.702  23.947  0.00  0.00    +0.077 C 
ATOM     18  C   UNL     1      -4.411   3.866  24.902  0.00  0.00    +0.249 C 
ENDBRANCH   7  10
ENDBRANCH   9   7
BRANCH  14  19
ATOM     19  C   UNL     1      -0.789  -2.162  24.692  0.00  0.00    +0.138 C 
BRANCH  19   8
ATOM      5  O   UNL     1      -3.359  -3.127  25.603  0.00  0.00    -0.273 OA
ATOM      8  N   UNL     1      -2.074  -1.875  24.121  0.00  0.00    -0.311 N 
ATOM     20  C   UNL     1      -3.266  -2.387  24.629  0.00  0.00    +0.239 C 
ATOM     25  H   UNL     1      -2.107  -1.278  23.300  0.00  0.00    +0.149 HD
BRANCH  20  21
ATOM     21  C   UNL     1      -4.467  -1.922  23.834  0.00  0.00    +0.255 C 
BRANCH  21   6
ATOM      6  O   UNL     1      -4.730  -0.556  24.081  0.00  0.00    -0.374 OA
ATOM     22  C   UNL     1      -4.329  -0.167  25.391  0.00  0.00    +0.194 C 
ENDBRANCH  21   6
ENDBRANCH  20  21
ENDBRANCH  19   8
ENDBRANCH  14  19
TORSDOF 7
ENDMDL
MODEL 6
REMARK VINA RESULT:      -5.3      3.348      6.093
REMARK  Name = 75536576
REMARK  8 active torsions:
REMARK  status: ('A' for Active; 'I' for Inactive)
REMARK    1  A    between atoms: O_4  and  C_11
REMARK    2  A    between atoms: O_6  and  C_21
REMARK    3  A    between atoms: O_6  and  C_22
REMARK    4  A    between atoms: N_7  and  C_9
REMARK    5  A    between atoms: N_7  and  C_10
REMARK    6  A    between atoms: N_8  and  C_19
REMARK    7  A    between atoms: C_14  and  C_19
REMARK    8  A    between atoms: C_20  and  C_21
REMARK                            x       y       z     vdW  Elec       q    Type
REMARK                         _______ _______ _______ _____ _____    ______ ____
ROOT
ATOM      3  O   UNL     1      -0.240   3.294  23.505  0.00  0.00    -0.371 OA
ATOM      9  C   UNL     1      -1.139   3.722  25.662  0.00  0.00    +0.111 C 
ATOM     11  C   UNL     1      -0.448   2.371  25.673  0.00  0.00    +0.164 C 
ATOM     14  C   UNL     1       0.476   2.503  24.470  0.00  0.00    +0.165 C 
ATOM     15  C   UNL     1      -1.334   3.948  24.172  0.00  0.00    +0.181 C 
ENDROOT
BRANCH  11   4
ATOM      4  O   UNL     1       0.271   2.135  26.867  0.00  0.00    -0.388 OA
ATOM     24  H   UNL     1       1.217   2.082  26.649  0.00  0.00    +0.210 HD
ENDBRANCH  11   4
BRANCH   9   7
ATOM      7  N   UNL     1      -2.387   3.745  26.406  0.00  0.00    -0.306 NA
ATOM     23  H   UNL     1      -2.560   4.679  26.776  0.00  0.00    +0.123 HD
BRANCH   7  10
ATOM      1  F   UNL     1      -6.343   1.421  26.415  0.00  0.00    -0.206 F 
ATOM      2  F   UNL     1      -7.086   1.561  24.376  0.00  0.00    -0.206 F 
ATOM     10  C   UNL     1      -3.504   3.329  25.559  0.00  0.00    +0.054 C 
ATOM     12  C   UNL     1      -3.568   1.798  25.498  0.00  0.00    +0.024 C 
ATOM     13  C   UNL     1      -4.812   3.919  26.097  0.00  0.00    +0.024 C 
ATOM     16  C   UNL     1      -4.767   1.326  24.678  0.00  0.00    +0.077 C 
ATOM     17  C   UNL     1      -6.012   3.448  25.277  0.00  0.00    +0.077 C 
ATOM     18  C   UNL     1      -6.063   1.932  25.188  0.00  0.00    +0.249 C 
ENDBRANCH   7  10
ENDBRANCH   9   7
BRANCH  14  19
ATOM     19  C   UNL     1       0.858   1.168  23.857  0.00  0.00    +0.138 C 
BRANCH  19   8
ATOM      5  O   UNL     1       2.071  -0.254  21.649  0.00  0.00    -0.273 OA
ATOM      8  N   UNL     1       2.250   1.133  23.509  0.00  0.00    -0.311 N 
ATOM     20  C   UNL     1       2.747   0.418  22.423  0.00  0.00    +0.239 C 
ATOM     25  H   UNL     1       2.898   1.651  24.095  0.00  0.00    +0.149 HD
BRANCH  20  21
ATOM     21  C   UNL     1       4.248   0.560  22.289  0.00  0.00    +0.255 C 
BRANCH  21   6
ATOM      6  O   UNL     1       4.844   0.760  23.554  0.00  0.00    -0.374 OA
ATOM     22  C   UNL     1       5.427  -0.436  24.062  0.00  0.00    +0.194 C 
ENDBRANCH  21   6
ENDBRANCH  20  21
ENDBRANCH  19   8
ENDBRANCH  14  19
TORSDOF 7
ENDMDL
MODEL 7
REMARK VINA RESULT:      -5.2      2.490      5.031
REMARK  Name = 75536576
REMARK  8 active torsions:
REMARK  status: ('A' for Active; 'I' for Inactive)
REMARK    1  A    between atoms: O_4  and  C_11
REMARK    2  A    between atoms: O_6  and  C_21
REMARK    3  A    between atoms: O_6  and  C_22
REMARK    4  A    between atoms: N_7  and  C_9
REMARK    5  A    between atoms: N_7  and  C_10
REMARK    6  A    between atoms: N_8  and  C_19
REMARK    7  A    between atoms: C_14  and  C_19
REMARK    8  A    between atoms: C_20  and  C_21
REMARK                            x       y       z     vdW  Elec       q    Type
REMARK                         _______ _______ _______ _____ _____    ______ ____
ROOT
ATOM      3  O   UNL     1      -1.289   1.599  23.069  0.00  0.00    -0.371 OA
ATOM      9  C   UNL     1      -3.290   2.395  24.070  0.00  0.00    +0.111 C 
ATOM     11  C   UNL     1      -2.177   2.421  25.101  0.00  0.00    +0.164 C 
ATOM     14  C   UNL     1      -0.946   2.412  24.205  0.00  0.00    +0.165 C 
ATOM     15  C   UNL     1      -2.718   1.442  23.034  0.00  0.00    +0.181 C 
ENDROOT
BRANCH  11   4
ATOM      4  O   UNL     1      -2.221   3.570  25.924  0.00  0.00    -0.388 OA
ATOM     24  H   UNL     1      -3.005   4.091  25.680  0.00  0.00    +0.210 HD
ENDBRANCH  11   4
BRANCH   9   7
ATOM      7  N   UNL     1      -4.568   1.952  24.603  0.00  0.00    -0.306 NA
ATOM     23  H   UNL     1      -5.316   2.155  23.941  0.00  0.00    +0.123 HD
BRANCH   7  10
ATOM      1  F   UNL     1      -1.992  -1.826  24.230  0.00  0.00    -0.206 F 
ATOM      2  F   UNL     1      -3.183  -3.413  25.122  0.00  0.00    -0.206 F 
ATOM     10  C   UNL     1      -4.538   0.520  24.898  0.00  0.00    +0.054 C 
ATOM     12  C   UNL     1      -4.417  -0.278  23.594  0.00  0.00    +0.024 C 
ATOM     13  C   UNL     1      -3.377   0.210  25.849  0.00  0.00    +0.024 C 
ATOM     16  C   UNL     1      -4.311  -1.777  23.869  0.00  0.00    +0.077 C 
ATOM     17  C   UNL     1      -3.270  -1.288  26.125  0.00  0.00    +0.077 C 
ATOM     18  C   UNL     1      -3.181  -2.086  24.834  0.00  0.00    +0.249 C 
ENDBRANCH   7  10
ENDBRANCH   9   7
BRANCH  14  19
ATOM     19  C   UNL     1       0.288   1.847  24.886  0.00  0.00    +0.138 C 
BRANCH  19   8
ATOM      5  O   UNL     1       0.667  -0.680  23.531  0.00  0.00    -0.273 OA
ATOM      8  N   UNL     1       1.307   1.521  23.930  0.00  0.00    -0.311 N 
ATOM     20  C   UNL     1       1.414   0.272  23.325  0.00  0.00    +0.239 C 
ATOM     25  H   UNL     1       1.986   2.240  23.697  0.00  0.00    +0.149 HD
BRANCH  20  21
ATOM     21  C   UNL     1       2.578   0.206  22.359  0.00  0.00    +0.255 C 
BRANCH  21   6
ATOM      6  O   UNL     1       3.608   1.085  22.760  0.00  0.00    -0.374 OA
ATOM     22  C   UNL     1       4.786   0.383  23.146  0.00  0.00    +0.194 C 
ENDBRANCH  21   6
ENDBRANCH  20  21
ENDBRANCH  19   8
ENDBRANCH  14  19
TORSDOF 7
ENDMDL
MODEL 8
REMARK VINA RESULT:      -4.7      2.968      5.241
REMARK  Name = 75536576
REMARK  8 active torsions:
REMARK  status: ('A' for Active; 'I' for Inactive)
REMARK    1  A    between atoms: O_4  and  C_11
REMARK    2  A    between atoms: O_6  and  C_21
REMARK    3  A    between atoms: O_6  and  C_22
REMARK    4  A    between atoms: N_7  and  C_9
REMARK    5  A    between atoms: N_7  and  C_10
REMARK    6  A    between atoms: N_8  and  C_19
REMARK    7  A    between atoms: C_14  and  C_19
REMARK    8  A    between atoms: C_20  and  C_21
REMARK                            x       y       z     vdW  Elec       q    Type
REMARK                         _______ _______ _______ _____ _____    ______ ____
ROOT
ATOM      3  O   UNL     1       0.149   2.862  25.482  0.00  0.00    -0.371 OA
ATOM      9  C   UNL     1      -1.737   1.427  25.315  0.00  0.00    +0.111 C 
ATOM     11  C   UNL     1      -0.901   1.295  24.055  0.00  0.00    +0.164 C 
ATOM     14  C   UNL     1       0.444   1.817  24.539  0.00  0.00    +0.165 C 
ATOM     15  C   UNL     1      -1.230   2.746  25.875  0.00  0.00    +0.181 C 
ENDROOT
BRANCH  11   4
ATOM      4  O   UNL     1      -0.814  -0.039  23.594  0.00  0.00    -0.388 OA
ATOM     24  H   UNL     1      -0.432  -0.583  24.304  0.00  0.00    +0.210 HD
ENDBRANCH  11   4
BRANCH   9   7
ATOM      7  N   UNL     1      -3.169   1.430  25.066  0.00  0.00    -0.306 NA
ATOM     23  H   UNL     1      -3.369   1.852  24.160  0.00  0.00    +0.123 HD
BRANCH   7  10
ATOM      1  F   UNL     1      -2.270  -2.920  23.918  0.00  0.00    -0.206 F 
ATOM      2  F   UNL     1      -3.999  -4.052  24.594  0.00  0.00    -0.206 F 
ATOM     10  C   UNL     1      -3.706   0.071  25.113  0.00  0.00    +0.054 C 
ATOM     12  C   UNL     1      -3.886  -0.467  23.688  0.00  0.00    +0.024 C 
ATOM     13  C   UNL     1      -2.773  -0.828  25.933  0.00  0.00    +0.024 C 
ATOM     16  C   UNL     1      -4.379  -1.913  23.700  0.00  0.00    +0.077 C 
ATOM     17  C   UNL     1      -3.265  -2.274  25.945  0.00  0.00    +0.077 C 
ATOM     18  C   UNL     1      -3.474  -2.802  24.535  0.00  0.00    +0.249 C 
ENDBRANCH   7  10
ENDBRANCH   9   7
BRANCH  14  19
ATOM     19  C   UNL     1       1.313   2.367  23.421  0.00  0.00    +0.138 C 
BRANCH  19   8
ATOM      5  O   UNL     1       1.821  -0.092  21.984  0.00  0.00    -0.273 OA
ATOM      8  N   UNL     1       2.557   1.657  23.331  0.00  0.00    -0.311 N 
ATOM     20  C   UNL     1       2.711   0.475  22.613  0.00  0.00    +0.239 C 
ATOM     25  H   UNL     1       3.357   2.038  23.827  0.00  0.00    +0.149 HD
BRANCH  20  21
ATOM     21  C   UNL     1       4.127  -0.055  22.688  0.00  0.00    +0.255 C 
BRANCH  21   6
ATOM      6  O   UNL     1       4.256  -0.983  23.744  0.00  0.00    -0.374 OA
ATOM     22  C   UNL     1       5.534  -0.904  24.368  0.00  0.00    +0.194 C 
ENDBRANCH  21   6
ENDBRANCH  20  21
ENDBRANCH  19   8
ENDBRANCH  14  19
TORSDOF 7
ENDMDL
MODEL 9
REMARK VINA RESULT:      -4.0     18.560     20.053
REMARK  Name = 75536576
REMARK  8 active torsions:
REMARK  status: ('A' for Active; 'I' for Inactive)
REMARK    1  A    between atoms: O_4  and  C_11
REMARK    2  A    between atoms: O_6  and  C_21
REMARK    3  A    between atoms: O_6  and  C_22
REMARK    4  A    between atoms: N_7  and  C_9
REMARK    5  A    between atoms: N_7  and  C_10
REMARK    6  A    between atoms: N_8  and  C_19
REMARK    7  A    between atoms: C_14  and  C_19
REMARK    8  A    between atoms: C_20  and  C_21
REMARK                            x       y       z     vdW  Elec       q    Type
REMARK                         _______ _______ _______ _____ _____    ______ ____
ROOT
ATOM      3  O   UNL     1      15.601  -7.715  26.014  0.00  0.00    -0.371 OA
ATOM      9  C   UNL     1      15.720  -7.082  28.300  0.00  0.00    +0.111 C 
ATOM     11  C   UNL     1      16.839  -6.396  27.538  0.00  0.00    +0.164 C 
ATOM     14  C   UNL     1      16.310  -6.467  26.112  0.00  0.00    +0.165 C 
ATOM     15  C   UNL     1      15.347  -8.202  27.343  0.00  0.00    +0.181 C 
ENDROOT
BRANCH  11   4
ATOM      4  O   UNL     1      17.047  -5.061  27.957  0.00  0.00    -0.388 OA
ATOM     24  H   UNL     1      17.422  -4.562  27.211  0.00  0.00    +0.210 HD
ENDBRANCH  11   4
BRANCH   9   7
ATOM      7  N   UNL     1      16.119  -7.566  29.611  0.00  0.00    -0.306 NA
ATOM     23  H   UNL     1      17.016  -7.162  29.878  0.00  0.00    +0.123 HD
BRANCH   7  10
ATOM      1  F   UNL     1      11.660  -6.639  30.169  0.00  0.00    -0.206 F 
ATOM      2  F   UNL     1      11.414  -6.310  32.305  0.00  0.00    -0.206 F 
ATOM     10  C   UNL     1      15.107  -7.240  30.614  0.00  0.00    +0.054 C 
ATOM     12  C   UNL     1      14.500  -5.864  30.313  0.00  0.00    +0.024 C 
ATOM     13  C   UNL     1      14.029  -8.330  30.638  0.00  0.00    +0.024 C 
ATOM     16  C   UNL     1      13.386  -5.520  31.301  0.00  0.00    +0.077 C 
ATOM     17  C   UNL     1      12.915  -7.987  31.626  0.00  0.00    +0.077 C 
ATOM     18  C   UNL     1      12.331  -6.611  31.350  0.00  0.00    +0.249 C 
ENDBRANCH   7  10
ENDBRANCH   9   7
BRANCH  14  19
ATOM     19  C   UNL     1      17.405  -6.415  25.062  0.00  0.00    +0.138 C 
BRANCH  19   8
ATOM      5  O   UNL     1      17.404  -3.527  25.236  0.00  0.00    -0.273 OA
ATOM      8  N   UNL     1      17.083  -5.485  24.018  0.00  0.00    -0.311 N 
ATOM     20  C   UNL     1      17.109  -4.104  24.193  0.00  0.00    +0.239 C 
ATOM     25  H   UNL     1      16.814  -5.861  23.114  0.00  0.00    +0.149 HD
BRANCH  20  21
ATOM     21  C   UNL     1      16.727  -3.365  22.928  0.00  0.00    +0.255 C 
BRANCH  21   6
ATOM      6  O   UNL     1      16.232  -2.078  23.233  0.00  0.00    -0.374 OA
ATOM     22  C   UNL     1      17.172  -1.057  22.912  0.00  0.00    +0.194 C 
ENDBRANCH  21   6
ENDBRANCH  20  21
ENDBRANCH  19   8
ENDBRANCH  14  19
TORSDOF 7
ENDMDL
MODEL 10
REMARK VINA RESULT:      -4.0      2.119      4.386
REMARK  Name = 75536576
REMARK  8 active torsions:
REMARK  status: ('A' for Active; 'I' for Inactive)
REMARK    1  A    between atoms: O_4  and  C_11
REMARK    2  A    between atoms: O_6  and  C_21
REMARK    3  A    between atoms: O_6  and  C_22
REMARK    4  A    between atoms: N_7  and  C_9
REMARK    5  A    between atoms: N_7  and  C_10
REMARK    6  A    between atoms: N_8  and  C_19
REMARK    7  A    between atoms: C_14  and  C_19
REMARK    8  A    between atoms: C_20  and  C_21
REMARK                            x       y       z     vdW  Elec       q    Type
REMARK                         _______ _______ _______ _____ _____    ______ ____
ROOT
ATOM      3  O   UNL     1      -0.375   4.213  23.832  0.00  0.00    -0.371 OA
ATOM      9  C   UNL     1      -1.719   4.345  25.786  0.00  0.00    +0.111 C 
ATOM     11  C   UNL     1      -1.001   3.008  25.768  0.00  0.00    +0.164 C 
ATOM     14  C   UNL     1       0.149   3.304  24.816  0.00  0.00    +0.165 C 
ATOM     15  C   UNL     1      -1.605   4.766  24.330  0.00  0.00    +0.181 C 
ENDROOT
BRANCH  11   4
ATOM      4  O   UNL     1      -0.540   2.618  27.047  0.00  0.00    -0.388 OA
ATOM     24  H   UNL     1      -1.309   2.356  27.582  0.00  0.00    +0.210 HD
ENDBRANCH  11   4
BRANCH   9   7
ATOM      7  N   UNL     1      -3.095   4.263  26.246  0.00  0.00    -0.306 NA
ATOM     23  H   UNL     1      -3.517   5.190  26.264  0.00  0.00    +0.123 HD
BRANCH   7  10
ATOM      1  F   UNL     1      -4.888   0.048  25.970  0.00  0.00    -0.206 F 
ATOM      2  F   UNL     1      -5.886  -0.016  24.039  0.00  0.00    -0.206 F 
ATOM     10  C   UNL     1      -3.877   3.375  25.386  0.00  0.00    +0.054 C 
ATOM     12  C   UNL     1      -3.044   2.140  25.019  0.00  0.00    +0.024 C 
ATOM     13  C   UNL     1      -5.177   2.979  26.093  0.00  0.00    +0.024 C 
ATOM     16  C   UNL     1      -3.854   1.156  24.177  0.00  0.00    +0.077 C 
ATOM     17  C   UNL     1      -5.988   1.994  25.252  0.00  0.00    +0.077 C 
ATOM     18  C   UNL     1      -5.159   0.783  24.860  0.00  0.00    +0.249 C 
ENDBRANCH   7  10
ENDBRANCH   9   7
BRANCH  14  19
ATOM     19  C   UNL     1       0.695   2.064  24.130  0.00  0.00    +0.138 C 
BRANCH  19   8
ATOM      5  O   UNL     1       0.434  -0.545  22.909  0.00  0.00    -0.273 OA
ATOM      8  N   UNL     1       0.196   0.867  24.744  0.00  0.00    -0.311 N 
ATOM     20  C   UNL     1       0.106  -0.352  24.076  0.00  0.00    +0.239 C 
ATOM     25  H   UNL     1      -0.113   0.922  25.709  0.00  0.00    +0.149 HD
BRANCH  20  21
ATOM     21  C   UNL     1      -0.453  -1.445  24.962  0.00  0.00    +0.255 C 
BRANCH  21   6
ATOM      6  O   UNL     1      -1.855  -1.323  25.078  0.00  0.00    -0.374 OA
ATOM     22  C   UNL     1      -2.535  -2.411  24.459  0.00  0.00    +0.194 C 
ENDBRANCH  21   6
ENDBRANCH  20  21
ENDBRANCH  19   8
ENDBRANCH  14  19
TORSDOF 7
ENDMDL
