MODEL 1
REMARK VINA RESULT:       1.4      0.000      0.000
REMARK  Name = 38029071
REMARK  12 active torsions:
REMARK  status: ('A' for Active; 'I' for Inactive)
REMARK    1  A    between atoms: O_3  and  C_32
REMARK    2  A    between atoms: N_5  and  C_17
REMARK    3  A    between atoms: C_9  and  C_13
REMARK    4  A    between atoms: C_10  and  C_17
REMARK    5  A    between atoms: C_12  and  C_16
REMARK    6  A    between atoms: C_13  and  C_18
REMARK    7  A    between atoms: C_13  and  C_19
REMARK    8  A    between atoms: C_14  and  C_20
REMARK    9  A    between atoms: C_16  and  C_21
REMARK   10  A    between atoms: C_26  and  C_27
REMARK   11  A    between atoms: C_27  and  C_29
REMARK   12  A    between atoms: C_29  and  C_32
REMARK                            x       y       z     vdW  Elec       q    Type
REMARK                         _______ _______ _______ _____ _____    ______ ____
ROOT
ATOM      9  C   UNL     1      -3.427   2.177  24.142  0.00  0.00    +0.000 C 
ATOM     10  C   UNL     1      -4.163   3.362  24.814  0.00  0.00    +0.032 C 
ATOM     11  C   UNL     1      -4.406   1.027  23.862  0.00  0.00    +0.012 C 
ATOM     12  C   UNL     1      -5.086   0.515  25.146  0.00  0.00    +0.023 C 
ATOM     14  C   UNL     1      -5.606   1.653  26.000  0.00  0.00    -0.073 C 
ATOM     15  C   UNL     1      -5.192   2.921  25.829  0.00  0.00    -0.022 C 
ATOM     20  C   UNL     1      -6.647   1.308  27.028  0.00  0.00    +0.039 C 
ENDROOT
BRANCH   9  13
ATOM     13  C   UNL     1      -2.737   2.599  22.841  0.00  0.00    -0.013 C 
ATOM     18  C   UNL     1      -2.336   1.372  22.028  0.00  0.00    +0.007 C 
ATOM     19  C   UNL     1      -3.648   3.513  22.028  0.00  0.00    +0.007 C 
ENDBRANCH   9  13
BRANCH  12  16
ATOM     16  C   UNL     1      -4.143  -0.388  25.948  0.00  0.00    +0.103 C 
BRANCH  16  21
ATOM      1  O   UNL     1      -4.107  -2.376  24.652  0.00  0.00    -0.276 OA
ATOM      6  N   UNL     1      -2.162  -1.107  24.667  0.00  0.00    -0.298 N 
ATOM      7  N   UNL     1       0.496  -0.520  23.678  0.00  0.00    -0.312 N 
ATOM      8  N   UNL     1       2.785  -0.071  24.048  0.00  0.00    -0.240 NA
ATOM     21  C   UNL     1      -3.479  -1.384  25.030  0.00  0.00    +0.216 C 
ATOM     22  C   UNL     1      -1.449  -2.027  23.785  0.00  0.00    +0.126 C 
ATOM     23  C   UNL     1      -1.421   0.078  25.109  0.00  0.00    +0.126 C 
ATOM     24  C   UNL     1      -0.456  -1.299  22.881  0.00  0.00    +0.125 C 
ATOM     25  C   UNL     1       0.095  -0.108  25.026  0.00  0.00    +0.125 C 
ATOM     28  C   UNL     1       1.759  -0.214  23.179  0.00  0.00    +0.121 A 
ATOM     30  C   UNL     1       1.880  -0.074  21.805  0.00  0.00    +0.043 A 
ATOM     31  C   UNL     1       3.135   0.232  21.291  0.00  0.00    +0.005 A 
ATOM     33  C   UNL     1       3.989   0.226  23.512  0.00  0.00    +0.113 A 
ATOM     34  C   UNL     1       4.215   0.387  22.154  0.00  0.00    +0.020 A 
ENDBRANCH  16  21
ENDBRANCH  12  16
BRANCH  10  17
ATOM     17  C   UNL     1      -3.171   4.325  25.477  0.00  0.00    +0.112 C 
BRANCH  17   5
ATOM      2  O   UNL     1      -0.451   4.972  24.736  0.00  0.00    -0.276 OA
ATOM      5  N   UNL     1      -1.982   3.637  25.869  0.00  0.00    -0.315 N 
ATOM     26  C   UNL     1      -0.700   4.016  25.465  0.00  0.00    +0.214 C 
ATOM     35  H   UNL     1      -2.070   2.862  26.520  0.00  0.00    +0.149 HD
BRANCH  26  27
ATOM     27  C   UNL     1       0.371   3.102  26.031  0.00  0.00    +0.107 C 
BRANCH  27  29
ATOM     29  C   UNL     1       0.038   2.617  27.439  0.00  0.00    +0.129 C 
BRANCH  29  32
ATOM      4  O   UNL     1       2.371   2.997  28.020  0.00  0.00    -0.251 OA
ATOM     32  C   UNL     1       1.246   2.650  28.347  0.00  0.00    +0.305 C 
BRANCH  32   3
ATOM      3  O   UNL     1       0.932   2.238  29.604  0.00  0.00    -0.481 OA
ATOM     36  H   UNL     1       1.141   2.922  30.275  0.00  0.00    +0.295 HD
ENDBRANCH  32   3
ENDBRANCH  29  32
ENDBRANCH  27  29
ENDBRANCH  26  27
ENDBRANCH  17   5
ENDBRANCH  10  17
TORSDOF 9
ENDMDL
MODEL 2
REMARK VINA RESULT:       3.4      1.540      2.078
REMARK  Name = 38029071
REMARK  12 active torsions:
REMARK  status: ('A' for Active; 'I' for Inactive)
REMARK    1  A    between atoms: O_3  and  C_32
REMARK    2  A    between atoms: N_5  and  C_17
REMARK    3  A    between atoms: C_9  and  C_13
REMARK    4  A    between atoms: C_10  and  C_17
REMARK    5  A    between atoms: C_12  and  C_16
REMARK    6  A    between atoms: C_13  and  C_18
REMARK    7  A    between atoms: C_13  and  C_19
REMARK    8  A    between atoms: C_14  and  C_20
REMARK    9  A    between atoms: C_16  and  C_21
REMARK   10  A    between atoms: C_26  and  C_27
REMARK   11  A    between atoms: C_27  and  C_29
REMARK   12  A    between atoms: C_29  and  C_32
REMARK                            x       y       z     vdW  Elec       q    Type
REMARK                         _______ _______ _______ _____ _____    ______ ____
ROOT
ATOM      9  C   UNL     1      -3.844   1.806  23.700  0.00  0.00    +0.000 C 
ATOM     10  C   UNL     1      -4.774   2.995  24.046  0.00  0.00    +0.032 C 
ATOM     11  C   UNL     1      -4.596   0.475  23.857  0.00  0.00    +0.012 C 
ATOM     12  C   UNL     1      -5.134   0.275  25.286  0.00  0.00    +0.023 C 
ATOM     14  C   UNL     1      -5.838   1.514  25.802  0.00  0.00    -0.073 C 
ATOM     15  C   UNL     1      -5.675   2.718  25.227  0.00  0.00    -0.022 C 
ATOM     20  C   UNL     1      -6.768   1.328  26.968  0.00  0.00    +0.039 C 
ENDROOT
BRANCH   9  13
ATOM     13  C   UNL     1      -3.281   1.918  22.280  0.00  0.00    -0.013 C 
ATOM     18  C   UNL     1      -3.816   3.170  21.592  0.00  0.00    +0.007 C 
ATOM     19  C   UNL     1      -1.756   1.928  22.312  0.00  0.00    +0.007 C 
ENDBRANCH   9  13
BRANCH  12  16
ATOM     16  C   UNL     1      -4.017  -0.160  26.241  0.00  0.00    +0.103 C 
BRANCH  16  21
ATOM      1  O   UNL     1      -3.694  -2.426  25.609  0.00  0.00    -0.276 OA
ATOM      6  N   UNL     1      -1.974  -0.948  25.106  0.00  0.00    -0.298 N 
ATOM      7  N   UNL     1       0.537  -0.320  23.807  0.00  0.00    -0.312 N 
ATOM      8  N   UNL     1       2.734   0.546  23.867  0.00  0.00    -0.240 NA
ATOM     21  C   UNL     1      -3.223  -1.286  25.625  0.00  0.00    +0.216 C 
ATOM     22  C   UNL     1      -1.142  -1.983  24.498  0.00  0.00    +0.126 C 
ATOM     23  C   UNL     1      -1.420   0.409  25.116  0.00  0.00    +0.126 C 
ATOM     24  C   UNL     1      -0.296  -1.436  23.350  0.00  0.00    +0.125 C 
ATOM     25  C   UNL     1       0.103   0.427  24.991  0.00  0.00    +0.125 C 
ATOM     28  C   UNL     1       1.725  -0.006  23.154  0.00  0.00    +0.121 A 
ATOM     30  C   UNL     1       1.795  -0.282  21.798  0.00  0.00    +0.043 A 
ATOM     31  C   UNL     1       2.976   0.027  21.131  0.00  0.00    +0.005 A 
ATOM     33  C   UNL     1       3.865   0.832  23.185  0.00  0.00    +0.113 A 
ATOM     34  C   UNL     1       4.035   0.595  21.831  0.00  0.00    +0.020 A 
ENDBRANCH  16  21
ENDBRANCH  12  16
BRANCH  10  17
ATOM     17  C   UNL     1      -3.965   4.272  24.309  0.00  0.00    +0.112 C 
BRANCH  17   5
ATOM      2  O   UNL     1      -3.248   4.011  27.099  0.00  0.00    -0.276 OA
ATOM      5  N   UNL     1      -2.679   3.955  24.845  0.00  0.00    -0.315 N 
ATOM     26  C   UNL     1      -2.415   3.847  26.211  0.00  0.00    +0.214 C 
ATOM     35  H   UNL     1      -1.928   3.745  24.193  0.00  0.00    +0.149 HD
BRANCH  26  27
ATOM     27  C   UNL     1      -0.964   3.503  26.488  0.00  0.00    +0.107 C 
BRANCH  27  29
ATOM     29  C   UNL     1      -0.109   3.524  25.225  0.00  0.00    +0.129 C 
BRANCH  29  32
ATOM      4  O   UNL     1      -0.644   5.881  24.934  0.00  0.00    -0.251 OA
ATOM     32  C   UNL     1      -0.260   4.821  24.462  0.00  0.00    +0.305 C 
BRANCH  32   3
ATOM      3  O   UNL     1       0.087   4.671  23.157  0.00  0.00    -0.481 OA
ATOM     36  H   UNL     1       0.493   3.795  22.985  0.00  0.00    +0.295 HD
ENDBRANCH  32   3
ENDBRANCH  29  32
ENDBRANCH  27  29
ENDBRANCH  26  27
ENDBRANCH  17   5
ENDBRANCH  10  17
TORSDOF 9
ENDMDL
MODEL 3
REMARK VINA RESULT:       4.1      2.033      4.631
REMARK  Name = 38029071
REMARK  12 active torsions:
REMARK  status: ('A' for Active; 'I' for Inactive)
REMARK    1  A    between atoms: O_3  and  C_32
REMARK    2  A    between atoms: N_5  and  C_17
REMARK    3  A    between atoms: C_9  and  C_13
REMARK    4  A    between atoms: C_10  and  C_17
REMARK    5  A    between atoms: C_12  and  C_16
REMARK    6  A    between atoms: C_13  and  C_18
REMARK    7  A    between atoms: C_13  and  C_19
REMARK    8  A    between atoms: C_14  and  C_20
REMARK    9  A    between atoms: C_16  and  C_21
REMARK   10  A    between atoms: C_26  and  C_27
REMARK   11  A    between atoms: C_27  and  C_29
REMARK   12  A    between atoms: C_29  and  C_32
REMARK                            x       y       z     vdW  Elec       q    Type
REMARK                         _______ _______ _______ _____ _____    ______ ____
ROOT
ATOM      9  C   UNL     1      -4.673   2.607  25.150  0.00  0.00    +0.000 C 
ATOM     10  C   UNL     1      -4.477   2.510  23.616  0.00  0.00    +0.032 C 
ATOM     11  C   UNL     1      -5.253   3.978  25.530  0.00  0.00    +0.012 C 
ATOM     12  C   UNL     1      -4.349   5.139  25.079  0.00  0.00    +0.023 C 
ATOM     14  C   UNL     1      -3.893   4.973  23.643  0.00  0.00    -0.073 C 
ATOM     15  C   UNL     1      -3.970   3.794  23.002  0.00  0.00    -0.022 C 
ATOM     20  C   UNL     1      -3.386   6.205  22.946  0.00  0.00    +0.039 C 
ENDROOT
BRANCH   9  13
ATOM     13  C   UNL     1      -5.582   1.494  25.680  0.00  0.00    -0.013 C 
ATOM     18  C   UNL     1      -6.170   1.885  27.031  0.00  0.00    +0.007 C 
ATOM     19  C   UNL     1      -6.689   1.187  24.676  0.00  0.00    +0.007 C 
ENDBRANCH   9  13
BRANCH  12  16
ATOM     16  C   UNL     1      -3.151   5.305  26.020  0.00  0.00    +0.103 C 
BRANCH  16  21
ATOM      1  O   UNL     1      -3.248   3.438  27.483  0.00  0.00    -0.276 OA
ATOM      6  N   UNL     1      -1.635   3.370  25.813  0.00  0.00    -0.298 N 
ATOM      7  N   UNL     1       0.405   1.972  24.306  0.00  0.00    -0.312 N 
ATOM      8  N   UNL     1       2.585   1.844  23.407  0.00  0.00    -0.240 NA
ATOM     21  C   UNL     1      -2.691   3.954  26.511  0.00  0.00    +0.216 C 
ATOM     22  C   UNL     1      -1.130   2.065  26.230  0.00  0.00    +0.126 C 
ATOM     23  C   UNL     1      -0.982   3.981  24.652  0.00  0.00    +0.126 C 
ATOM     24  C   UNL     1      -0.628   1.241  25.046  0.00  0.00    +0.125 C 
ATOM     25  C   UNL     1       0.425   3.433  24.409  0.00  0.00    +0.125 C 
ATOM     28  C   UNL     1       1.360   1.290  23.557  0.00  0.00    +0.121 A 
ATOM     30  C   UNL     1       0.985   0.074  23.009  0.00  0.00    +0.043 A 
ATOM     31  C   UNL     1       1.928  -0.619  22.258  0.00  0.00    +0.005 A 
ATOM     33  C   UNL     1       3.474   1.142  22.670  0.00  0.00    +0.113 A 
ATOM     34  C   UNL     1       3.199  -0.081  22.080  0.00  0.00    +0.020 A 
ENDBRANCH  16  21
ENDBRANCH  12  16
BRANCH  10  17
ATOM     17  C   UNL     1      -3.531   1.360  23.251  0.00  0.00    +0.112 C 
BRANCH  17   5
ATOM      2  O   UNL     1      -4.239  -1.445  23.218  0.00  0.00    -0.276 OA
ATOM      5  N   UNL     1      -3.426   0.429  24.330  0.00  0.00    -0.315 N 
ATOM     26  C   UNL     1      -3.790  -0.915  24.231  0.00  0.00    +0.214 C 
ATOM     35  H   UNL     1      -3.013   0.751  25.201  0.00  0.00    +0.149 HD
BRANCH  26  27
ATOM     27  C   UNL     1      -3.573  -1.664  25.533  0.00  0.00    +0.107 C 
BRANCH  27  29
ATOM     29  C   UNL     1      -2.165  -1.470  26.088  0.00  0.00    +0.129 C 
BRANCH  29  32
ATOM      4  O   UNL     1      -1.341  -2.757  24.194  0.00  0.00    -0.251 OA
ATOM     32  C   UNL     1      -1.118  -2.122  25.214  0.00  0.00    +0.305 C 
BRANCH  32   3
ATOM      3  O   UNL     1       0.133  -1.919  25.704  0.00  0.00    -0.481 OA
ATOM     36  H   UNL     1       0.812  -1.952  24.996  0.00  0.00    +0.295 HD
ENDBRANCH  32   3
ENDBRANCH  29  32
ENDBRANCH  27  29
ENDBRANCH  26  27
ENDBRANCH  17   5
ENDBRANCH  10  17
TORSDOF 9
ENDMDL
