MODEL 1
REMARK VINA RESULT:       9.3      0.000      0.000
REMARK  Name = 7143792
REMARK  3 active torsions:
REMARK  status: ('A' for Active; 'I' for Inactive)
REMARK    1  A    between atoms: N_6  and  C_21
REMARK    2  A    between atoms: C_18  and  C_20
REMARK    3  A    between atoms: C_27  and  C_30
REMARK                            x       y       z     vdW  Elec       q    Type
REMARK                         _______ _______ _______ _____ _____    ______ ____
ROOT
ATOM      2  O   UNL     1      -3.598   0.245  22.299  0.00  0.00    -0.267 OA
ATOM      3  O   UNL     1       0.460   1.987  26.048  0.00  0.00    -0.252 OA
ATOM      4  N   UNL     1      -0.886   3.524  24.961  0.00  0.00    -0.284 N 
ATOM      5  N   UNL     1      -3.424   1.855  23.977  0.00  0.00    -0.311 N 
ATOM      6  N   UNL     1       0.951   2.544  23.851  0.00  0.00    -0.269 N 
ATOM      8  C   UNL     1      -2.772   4.282  23.496  0.00  0.00    +0.027 C 
ATOM      9  C   UNL     1      -3.227   3.577  25.804  0.00  0.00    +0.054 C 
ATOM     10  C   UNL     1      -3.590   4.607  24.738  0.00  0.00    +0.018 C 
ATOM     11  C   UNL     1      -1.260   4.339  23.794  0.00  0.00    +0.114 C 
ATOM     12  C   UNL     1      -3.199   2.904  22.974  0.00  0.00    +0.130 C 
ATOM     13  C   UNL     1      -1.733   3.708  26.145  0.00  0.00    +0.119 C 
ATOM     14  C   UNL     1      -3.525   2.165  25.335  0.00  0.00    +0.027 A 
ATOM     15  C   UNL     1      -3.852   1.212  26.222  0.00  0.00    +0.022 A 
ATOM     16  C   UNL     1      -3.641   0.550  23.492  0.00  0.00    +0.260 A 
ATOM     17  C   UNL     1       0.201   2.624  25.023  0.00  0.00    +0.306 C 
ATOM     18  C   UNL     1      -3.964  -0.506  24.514  0.00  0.00    +0.053 A 
ATOM     19  C   UNL     1      -4.068  -0.143  25.802  0.00  0.00    +0.016 A 
ATOM     31  H   UNL     1       0.979   3.355  23.243  0.00  0.00    +0.156 HD
ENDROOT
BRANCH   6  21
ATOM     21  C   UNL     1       1.740   1.453  23.411  0.00  0.00    +0.036 A 
ATOM     24  C   UNL     1       3.116   1.461  23.626  0.00  0.00    +0.042 A 
ATOM     25  C   UNL     1       1.134   0.377  22.766  0.00  0.00    +0.023 A 
ATOM     27  C   UNL     1       3.892   0.387  23.192  0.00  0.00    +0.054 A 
ATOM     28  C   UNL     1       1.911  -0.698  22.333  0.00  0.00    +0.003 A 
ATOM     29  C   UNL     1       3.289  -0.694  22.546  0.00  0.00    +0.019 A 
BRANCH  27  30
ATOM      7  N   UNL     1       6.452   0.393  23.588  0.00  0.00    -0.191 NA
ATOM     30  C   UNL     1       5.304   0.390  23.410  0.00  0.00    +0.099 C 
ENDBRANCH  27  30
ENDBRANCH   6  21
BRANCH  18  20
ATOM      1  S   UNL     1      -3.044  -3.103  24.666  0.00  0.00    -0.096 S 
ATOM     20  C   UNL     1      -4.155  -1.913  24.124  0.00  0.00    +0.024 A 
ATOM     22  C   UNL     1      -5.150  -2.468  23.340  0.00  0.00    +0.016 A 
ATOM     23  C   UNL     1      -4.996  -3.876  23.186  0.00  0.00    +0.008 A 
ATOM     26  C   UNL     1      -3.890  -4.352  23.856  0.00  0.00    +0.046 A 
ENDBRANCH  18  20
TORSDOF 3
ENDMDL
MODEL 2
REMARK VINA RESULT:      10.4      2.170      6.136
REMARK  Name = 7143792
REMARK  3 active torsions:
REMARK  status: ('A' for Active; 'I' for Inactive)
REMARK    1  A    between atoms: N_6  and  C_21
REMARK    2  A    between atoms: C_18  and  C_20
REMARK    3  A    between atoms: C_27  and  C_30
REMARK                            x       y       z     vdW  Elec       q    Type
REMARK                         _______ _______ _______ _____ _____    ______ ____
ROOT
ATOM      2  O   UNL     1       0.766   1.652  25.926  0.00  0.00    -0.267 OA
ATOM      3  O   UNL     1      -4.158   1.994  22.892  0.00  0.00    -0.252 OA
ATOM      4  N   UNL     1      -3.875   3.222  24.833  0.00  0.00    -0.284 N 
ATOM      5  N   UNL     1      -0.717   3.336  25.290  0.00  0.00    -0.311 N 
ATOM      6  N   UNL     1      -4.419   0.929  24.936  0.00  0.00    -0.269 N 
ATOM      8  C   UNL     1      -2.621   4.138  26.800  0.00  0.00    +0.027 C 
ATOM      9  C   UNL     1      -2.317   5.147  24.581  0.00  0.00    +0.054 C 
ATOM     10  C   UNL     1      -2.465   5.463  26.067  0.00  0.00    +0.018 C 
ATOM     11  C   UNL     1      -3.858   3.367  26.297  0.00  0.00    +0.114 C 
ATOM     12  C   UNL     1      -1.332   3.325  26.624  0.00  0.00    +0.130 C 
ATOM     13  C   UNL     1      -3.596   4.453  24.084  0.00  0.00    +0.119 C 
ATOM     14  C   UNL     1      -1.115   4.259  24.320  0.00  0.00    +0.027 A 
ATOM     15  C   UNL     1      -0.459   4.335  23.152  0.00  0.00    +0.022 A 
ATOM     16  C   UNL     1       0.361   2.453  25.081  0.00  0.00    +0.260 A 
ATOM     17  C   UNL     1      -4.146   2.031  24.126  0.00  0.00    +0.306 C 
ATOM     18  C   UNL     1       1.051   2.532  23.746  0.00  0.00    +0.053 A 
ATOM     19  C   UNL     1       0.636   3.452  22.863  0.00  0.00    +0.016 A 
ATOM     31  H   UNL     1      -4.820   1.095  25.852  0.00  0.00    +0.156 HD
ENDROOT
BRANCH   6  21
ATOM     21  C   UNL     1      -4.243  -0.438  24.610  0.00  0.00    +0.036 A 
ATOM     24  C   UNL     1      -3.025  -1.061  24.868  0.00  0.00    +0.042 A 
ATOM     25  C   UNL     1      -5.290  -1.152  24.031  0.00  0.00    +0.023 A 
ATOM     27  C   UNL     1      -2.852  -2.407  24.545  0.00  0.00    +0.054 A 
ATOM     28  C   UNL     1      -5.117  -2.498  23.709  0.00  0.00    +0.003 A 
ATOM     29  C   UNL     1      -3.898  -3.126  23.966  0.00  0.00    +0.019 A 
BRANCH  27  30
ATOM      7  N   UNL     1      -0.589  -3.574  25.023  0.00  0.00    -0.191 NA
ATOM     30  C   UNL     1      -1.603  -3.051  24.808  0.00  0.00    +0.099 C 
ENDBRANCH  27  30
ENDBRANCH   6  21
BRANCH  18  20
ATOM      1  S   UNL     1       1.832  -0.055  23.188  0.00  0.00    -0.096 S 
ATOM     20  C   UNL     1       2.153   1.617  23.401  0.00  0.00    +0.024 A 
ATOM     22  C   UNL     1       3.491   1.906  23.209  0.00  0.00    +0.016 A 
ATOM     23  C   UNL     1       4.254   0.748  22.884  0.00  0.00    +0.008 A 
ATOM     26  C   UNL     1       3.475  -0.389  22.840  0.00  0.00    +0.046 A 
ENDBRANCH  18  20
TORSDOF 3
ENDMDL
MODEL 3
REMARK VINA RESULT:      10.8      2.597      5.357
REMARK  Name = 7143792
REMARK  3 active torsions:
REMARK  status: ('A' for Active; 'I' for Inactive)
REMARK    1  A    between atoms: N_6  and  C_21
REMARK    2  A    between atoms: C_18  and  C_20
REMARK    3  A    between atoms: C_27  and  C_30
REMARK                            x       y       z     vdW  Elec       q    Type
REMARK                         _______ _______ _______ _____ _____    ______ ____
ROOT
ATOM      2  O   UNL     1      -1.289   2.480  26.457  0.00  0.00    -0.267 OA
ATOM      3  O   UNL     1      -0.099  -1.057  22.026  0.00  0.00    -0.252 OA
ATOM      4  N   UNL     1      -0.864  -1.899  24.040  0.00  0.00    -0.284 N 
ATOM      5  N   UNL     1      -2.246   0.579  25.504  0.00  0.00    -0.311 N 
ATOM      6  N   UNL     1       1.395  -1.269  23.787  0.00  0.00    -0.269 N 
ATOM      8  C   UNL     1      -1.777  -1.782  26.371  0.00  0.00    +0.027 C 
ATOM      9  C   UNL     1      -3.280  -1.463  24.454  0.00  0.00    +0.054 C 
ATOM     10  C   UNL     1      -3.162  -2.111  25.831  0.00  0.00    +0.018 C 
ATOM     11  C   UNL     1      -0.674  -2.321  25.437  0.00  0.00    +0.114 C 
ATOM     12  C   UNL     1      -1.673  -0.264  26.561  0.00  0.00    +0.130 C 
ATOM     13  C   UNL     1      -2.224  -2.075  23.517  0.00  0.00    +0.119 C 
ATOM     14  C   UNL     1      -3.090   0.040  24.530  0.00  0.00    +0.027 A 
ATOM     15  C   UNL     1      -3.702   0.844  23.647  0.00  0.00    +0.022 A 
ATOM     16  C   UNL     1      -1.995   1.963  25.590  0.00  0.00    +0.260 A 
ATOM     17  C   UNL     1       0.137  -1.373  23.195  0.00  0.00    +0.306 C 
ATOM     18  C   UNL     1      -2.661   2.836  24.560  0.00  0.00    +0.053 A 
ATOM     19  C   UNL     1      -3.476   2.262  23.663  0.00  0.00    +0.016 A 
ATOM     31  H   UNL     1       1.628  -1.914  24.533  0.00  0.00    +0.156 HD
ENDROOT
BRANCH   6  21
ATOM     21  C   UNL     1       2.437  -0.377  23.433  0.00  0.00    +0.036 A 
ATOM     24  C   UNL     1       3.762  -0.802  23.490  0.00  0.00    +0.042 A 
ATOM     25  C   UNL     1       2.130   0.921  23.031  0.00  0.00    +0.023 A 
ATOM     27  C   UNL     1       4.788   0.077  23.143  0.00  0.00    +0.054 A 
ATOM     28  C   UNL     1       3.156   1.799  22.682  0.00  0.00    +0.003 A 
ATOM     29  C   UNL     1       4.485   1.378  22.738  0.00  0.00    +0.019 A 
BRANCH  27  30
ATOM      7  N   UNL     1       7.256  -0.703  23.245  0.00  0.00    -0.191 NA
ATOM     30  C   UNL     1       6.149  -0.353  23.199  0.00  0.00    +0.099 C 
ENDBRANCH  27  30
ENDBRANCH   6  21
BRANCH  18  20
ATOM      1  S   UNL     1      -3.583   5.320  23.790  0.00  0.00    -0.096 S 
ATOM     20  C   UNL     1      -2.423   4.289  24.523  0.00  0.00    +0.024 A 
ATOM     22  C   UNL     1      -1.348   5.004  25.016  0.00  0.00    +0.016 A 
ATOM     23  C   UNL     1      -1.479   6.405  24.789  0.00  0.00    +0.008 A 
ATOM     26  C   UNL     1      -2.649   6.714  24.130  0.00  0.00    +0.046 A 
ENDBRANCH  18  20
TORSDOF 3
ENDMDL
