MODEL 1
REMARK VINA RESULT:      15.4      0.000      0.000
REMARK  Name = 11882861
REMARK  13 active torsions:
REMARK  status: ('A' for Active; 'I' for Inactive)
REMARK    1  A    between atoms: O_2  and  C_16
REMARK    2  A    between atoms: O_3  and  C_21
REMARK    3  A    between atoms: C_11  and  C_19
REMARK    4  A    between atoms: C_13  and  C_21
REMARK    5  A    between atoms: C_13  and  C_22
REMARK    6  A    between atoms: C_14  and  C_24
REMARK    7  A    between atoms: C_24  and  C_25
REMARK    8  A    between atoms: C_31  and  C_33
REMARK    9  A    between atoms: C_32  and  C_34
REMARK   10  A    between atoms: C_34  and  C_35
REMARK   11  A    between atoms: C_35  and  C_36
REMARK   12  A    between atoms: C_35  and  C_37
REMARK   13  A    between atoms: C_35  and  C_38
REMARK                            x       y       z     vdW  Elec       q    Type
REMARK                         _______ _______ _______ _____ _____    ______ ____
ROOT
ATOM      1  S   UNL     1       0.338  -1.328  23.551  0.00  0.00    -0.057 S 
ATOM      5  O   UNL     1       3.573   1.925  22.737  0.00  0.00    -0.275 OA
ATOM      7  N   UNL     1       0.789   1.218  23.471  0.00  0.00    -0.229 NA
ATOM      9  N   UNL     1       2.643  -0.232  22.949  0.00  0.00    -0.265 N 
ATOM     11  C   UNL     1      -2.978   1.773  24.074  0.00  0.00    -0.019 C 
ATOM     12  C   UNL     1      -3.119   0.435  24.927  0.00  0.00    +0.011 C 
ATOM     13  C   UNL     1      -4.572   0.030  25.389  0.00  0.00    +0.021 C 
ATOM     14  C   UNL     1      -1.442   2.213  24.098  0.00  0.00    +0.054 C 
ATOM     15  C   UNL     1      -3.818   2.896  24.735  0.00  0.00    +0.010 C 
ATOM     16  C   UNL     1      -5.286   1.278  25.982  0.00  0.00    +0.123 C 
ATOM     17  C   UNL     1      -2.317  -0.734  24.285  0.00  0.00    +0.049 C 
ATOM     18  C   UNL     1      -5.250   2.489  25.056  0.00  0.00    +0.032 C 
ATOM     19  C   UNL     1      -3.444   1.602  22.607  0.00  0.00    +0.012 C 
ATOM     20  C   UNL     1      -0.538   1.040  23.813  0.00  0.00    +0.058 A 
ATOM     22  C   UNL     1      -4.466  -1.026  26.526  0.00  0.00    +0.016 C 
ATOM     23  C   UNL     1      -0.946  -0.274  23.922  0.00  0.00    +0.015 A 
ATOM     26  C   UNL     1       1.347   0.038  23.301  0.00  0.00    +0.165 A 
ATOM     32  C   UNL     1       3.660   0.702  22.692  0.00  0.00    +0.219 C 
ATOM     41  H   UNL     1       2.866  -1.221  22.869  0.00  0.00    +0.157 HD
ENDROOT
BRANCH  16   2
ATOM      2  O   UNL     1      -6.648   0.977  26.292  0.00  0.00    -0.391 OA
ATOM     39  H   UNL     1      -6.756   0.013  26.233  0.00  0.00    +0.210 HD
ENDBRANCH  16   2
BRANCH  13  21
ATOM     21  C   UNL     1      -5.435  -0.627  24.290  0.00  0.00    +0.165 C 
BRANCH  21   3
ATOM      3  O   UNL     1      -4.793  -1.817  23.891  0.00  0.00    -0.394 OA
ATOM     40  H   UNL     1      -4.696  -1.785  22.925  0.00  0.00    +0.209 HD
ENDBRANCH  21   3
ENDBRANCH  13  21
BRANCH  14  24
ATOM     24  C   UNL     1      -1.108   3.411  23.199  0.00  0.00    +0.106 C 
BRANCH  24  25
ATOM      4  O   UNL     1       0.475   5.171  23.272  0.00  0.00    -0.276 OA
ATOM      8  N   UNL     1      -0.107   4.216  25.308  0.00  0.00    -0.301 N 
ATOM     25  C   UNL     1      -0.175   4.348  23.923  0.00  0.00    +0.216 C 
ATOM     27  C   UNL     1       0.747   5.116  26.086  0.00  0.00    +0.108 C 
ATOM     28  C   UNL     1      -0.867   3.248  26.109  0.00  0.00    +0.108 C 
ATOM     29  C   UNL     1       1.716   4.327  26.962  0.00  0.00    +0.032 C 
ATOM     30  C   UNL     1       0.068   2.419  26.986  0.00  0.00    +0.032 C 
ATOM     31  C   UNL     1       0.969   3.316  27.838  0.00  0.00    +0.078 C 
BRANCH  31  33
ATOM      6  O   UNL     1       3.150   2.452  28.290  0.00  0.00    -0.276 OA
ATOM     10  N   UNL     1       1.405   1.759  29.621  0.00  0.00    -0.329 N 
ATOM     33  C   UNL     1       1.959   2.484  28.591  0.00  0.00    +0.214 C 
ATOM     42  H   UNL     1       0.414   1.793  29.840  0.00  0.00    +0.145 HD
ATOM     43  H   UNL     1       1.977   1.154  30.199  0.00  0.00    +0.145 HD
ENDBRANCH  31  33
ENDBRANCH  24  25
ENDBRANCH  14  24
BRANCH  32  34
ATOM     34  C   UNL     1       4.984   0.042  22.319  0.00  0.00    +0.102 C 
BRANCH  34  35
ATOM     35  C   UNL     1       5.853  -0.390  23.524  0.00  0.00    -0.029 C 
ATOM     36  C   UNL     1       7.323  -0.584  23.121  0.00  0.00    +0.011 C 
ATOM     37  C   UNL     1       5.310  -1.735  24.045  0.00  0.00    +0.011 C 
ATOM     38  C   UNL     1       5.772   0.640  24.663  0.00  0.00    +0.011 C 
ENDBRANCH  34  35
ENDBRANCH  32  34
TORSDOF 8
ENDMDL
MODEL 2
REMARK VINA RESULT:      15.4      2.067      3.502
REMARK  Name = 11882861
REMARK  13 active torsions:
REMARK  status: ('A' for Active; 'I' for Inactive)
REMARK    1  A    between atoms: O_2  and  C_16
REMARK    2  A    between atoms: O_3  and  C_21
REMARK    3  A    between atoms: C_11  and  C_19
REMARK    4  A    between atoms: C_13  and  C_21
REMARK    5  A    between atoms: C_13  and  C_22
REMARK    6  A    between atoms: C_14  and  C_24
REMARK    7  A    between atoms: C_24  and  C_25
REMARK    8  A    between atoms: C_31  and  C_33
REMARK    9  A    between atoms: C_32  and  C_34
REMARK   10  A    between atoms: C_34  and  C_35
REMARK   11  A    between atoms: C_35  and  C_36
REMARK   12  A    between atoms: C_35  and  C_37
REMARK   13  A    between atoms: C_35  and  C_38
REMARK                            x       y       z     vdW  Elec       q    Type
REMARK                         _______ _______ _______ _____ _____    ______ ____
ROOT
ATOM      1  S   UNL     1       1.600  -1.632  22.750  0.00  0.00    -0.057 S 
ATOM      5  O   UNL     1       4.611   1.896  23.206  0.00  0.00    -0.275 OA
ATOM      7  N   UNL     1       1.874   0.810  23.560  0.00  0.00    -0.229 NA
ATOM      9  N   UNL     1       3.830  -0.256  22.636  0.00  0.00    -0.265 N 
ATOM     11  C   UNL     1      -1.928   0.891  24.190  0.00  0.00    -0.019 C 
ATOM     12  C   UNL     1      -1.985  -0.664  24.529  0.00  0.00    +0.011 C 
ATOM     13  C   UNL     1      -3.410  -1.292  24.776  0.00  0.00    +0.021 C 
ATOM     14  C   UNL     1      -0.427   1.390  24.414  0.00  0.00    +0.054 C 
ATOM     15  C   UNL     1      -2.851   1.664  25.166  0.00  0.00    +0.010 C 
ATOM     16  C   UNL     1      -4.216  -0.370  25.736  0.00  0.00    +0.123 C 
ATOM     17  C   UNL     1      -1.096  -1.490  23.554  0.00  0.00    +0.049 C 
ATOM     18  C   UNL     1      -4.254   1.085  25.281  0.00  0.00    +0.032 C 
ATOM     19  C   UNL     1      -2.365   1.206  22.738  0.00  0.00    +0.012 C 
ATOM     20  C   UNL     1       0.560   0.444  23.777  0.00  0.00    +0.058 A 
ATOM     22  C   UNL     1      -3.243  -2.665  25.486  0.00  0.00    +0.016 C 
ATOM     23  C   UNL     1       0.243  -0.850  23.416  0.00  0.00    +0.015 A 
ATOM     26  C   UNL     1       2.515  -0.203  23.016  0.00  0.00    +0.165 A 
ATOM     32  C   UNL     1       4.783   0.770  22.748  0.00  0.00    +0.219 C 
ATOM     41  H   UNL     1       4.122  -1.141  22.231  0.00  0.00    +0.157 HD
ENDROOT
BRANCH  16   2
ATOM      2  O   UNL     1      -5.556  -0.842  25.878  0.00  0.00    -0.391 OA
ATOM     39  H   UNL     1      -6.072  -0.491  25.133  0.00  0.00    +0.210 HD
ENDBRANCH  16   2
BRANCH  13  21
ATOM     21  C   UNL     1      -4.214  -1.584  23.490  0.00  0.00    +0.165 C 
BRANCH  21   3
ATOM      3  O   UNL     1      -4.725  -2.894  23.588  0.00  0.00    -0.394 OA
ATOM     40  H   UNL     1      -5.566  -2.842  24.073  0.00  0.00    +0.209 HD
ENDBRANCH  21   3
ENDBRANCH  13  21
BRANCH  14  24
ATOM     24  C   UNL     1      -0.167   2.841  23.991  0.00  0.00    +0.106 C 
BRANCH  24  25
ATOM      4  O   UNL     1       0.111   3.925  26.079  0.00  0.00    -0.276 OA
ATOM      8  N   UNL     1      -1.824   4.433  24.899  0.00  0.00    -0.301 N 
ATOM     25  C   UNL     1      -0.607   3.780  25.086  0.00  0.00    +0.216 C 
ATOM     27  C   UNL     1      -2.300   5.389  25.900  0.00  0.00    +0.108 C 
ATOM     28  C   UNL     1      -2.699   4.281  23.730  0.00  0.00    +0.108 C 
ATOM     29  C   UNL     1      -3.705   5.028  26.375  0.00  0.00    +0.032 C 
ATOM     30  C   UNL     1      -4.113   3.895  24.159  0.00  0.00    +0.032 C 
ATOM     31  C   UNL     1      -4.666   4.881  25.192  0.00  0.00    +0.078 C 
BRANCH  31  33
ATOM      6  O   UNL     1      -6.187   3.253  26.055  0.00  0.00    -0.276 OA
ATOM     10  N   UNL     1      -6.970   5.384  25.675  0.00  0.00    -0.329 N 
ATOM     33  C   UNL     1      -5.998   4.411  25.689  0.00  0.00    +0.214 C 
ATOM     42  H   UNL     1      -6.790   6.330  25.355  0.00  0.00    +0.145 HD
ATOM     43  H   UNL     1      -7.914   5.181  25.985  0.00  0.00    +0.145 HD
ENDBRANCH  31  33
ENDBRANCH  24  25
ENDBRANCH  14  24
BRANCH  32  34
ATOM     34  C   UNL     1       6.153   0.362  22.218  0.00  0.00    +0.102 C 
BRANCH  34  35
ATOM     35  C   UNL     1       6.961  -0.562  23.158  0.00  0.00    -0.029 C 
ATOM     36  C   UNL     1       8.296   0.078  23.571  0.00  0.00    +0.011 C 
ATOM     37  C   UNL     1       7.264  -1.869  22.398  0.00  0.00    +0.011 C 
ATOM     38  C   UNL     1       6.155  -0.911  24.421  0.00  0.00    +0.011 C 
ENDBRANCH  34  35
ENDBRANCH  32  34
TORSDOF 8
ENDMDL
MODEL 3
REMARK VINA RESULT:      16.4      2.715      5.640
REMARK  Name = 11882861
REMARK  13 active torsions:
REMARK  status: ('A' for Active; 'I' for Inactive)
REMARK    1  A    between atoms: O_2  and  C_16
REMARK    2  A    between atoms: O_3  and  C_21
REMARK    3  A    between atoms: C_11  and  C_19
REMARK    4  A    between atoms: C_13  and  C_21
REMARK    5  A    between atoms: C_13  and  C_22
REMARK    6  A    between atoms: C_14  and  C_24
REMARK    7  A    between atoms: C_24  and  C_25
REMARK    8  A    between atoms: C_31  and  C_33
REMARK    9  A    between atoms: C_32  and  C_34
REMARK   10  A    between atoms: C_34  and  C_35
REMARK   11  A    between atoms: C_35  and  C_36
REMARK   12  A    between atoms: C_35  and  C_37
REMARK   13  A    between atoms: C_35  and  C_38
REMARK                            x       y       z     vdW  Elec       q    Type
REMARK                         _______ _______ _______ _____ _____    ______ ____
ROOT
ATOM      1  S   UNL     1       1.250   3.317  23.111  0.00  0.00    -0.057 S 
ATOM      5  O   UNL     1       3.027  -0.966  23.568  0.00  0.00    -0.275 OA
ATOM      7  N   UNL     1       0.808   0.944  24.039  0.00  0.00    -0.229 NA
ATOM      9  N   UNL     1       2.921   1.304  22.934  0.00  0.00    -0.265 N 
ATOM     11  C   UNL     1      -2.435   2.305  25.617  0.00  0.00    -0.019 C 
ATOM     12  C   UNL     1      -2.639   3.381  24.462  0.00  0.00    +0.011 C 
ATOM     13  C   UNL     1      -3.835   4.396  24.631  0.00  0.00    +0.021 C 
ATOM     14  C   UNL     1      -1.494   1.145  25.050  0.00  0.00    +0.054 C 
ATOM     15  C   UNL     1      -3.806   1.684  25.990  0.00  0.00    +0.010 C 
ATOM     16  C   UNL     1      -5.113   3.615  25.048  0.00  0.00    +0.123 C 
ATOM     17  C   UNL     1      -1.293   4.059  24.073  0.00  0.00    +0.049 C 
ATOM     18  C   UNL     1      -4.898   2.711  26.257  0.00  0.00    +0.032 C 
ATOM     19  C   UNL     1      -1.799   2.907  26.895  0.00  0.00    +0.012 C 
ATOM     20  C   UNL     1      -0.296   1.719  24.336  0.00  0.00    +0.058 A 
ATOM     22  C   UNL     1      -4.129   5.065  23.259  0.00  0.00    +0.016 C 
ATOM     23  C   UNL     1      -0.235   3.024  23.890  0.00  0.00    +0.015 A 
ATOM     26  C   UNL     1       1.690   1.682  23.400  0.00  0.00    +0.165 A 
ATOM     32  C   UNL     1       3.508   0.032  23.041  0.00  0.00    +0.219 C 
ATOM     41  H   UNL     1       3.446   2.039  22.469  0.00  0.00    +0.157 HD
ENDROOT
BRANCH  16   2
ATOM      2  O   UNL     1      -6.182   4.518  25.335  0.00  0.00    -0.391 OA
ATOM     39  H   UNL     1      -6.605   4.751  24.491  0.00  0.00    +0.210 HD
ENDBRANCH  16   2
BRANCH  13  21
ATOM     21  C   UNL     1      -3.556   5.558  25.609  0.00  0.00    +0.165 C 
BRANCH  21   3
ATOM      3  O   UNL     1      -2.229   5.988  25.402  0.00  0.00    -0.394 OA
ATOM     40  H   UNL     1      -1.796   5.329  24.835  0.00  0.00    +0.209 HD
ENDBRANCH  21   3
ENDBRANCH  13  21
BRANCH  14  24
ATOM     24  C   UNL     1      -1.079   0.095  26.089  0.00  0.00    +0.106 C 
BRANCH  24  25
ATOM      4  O   UNL     1       0.258  -1.522  24.988  0.00  0.00    -0.276 OA
ATOM      8  N   UNL     1      -1.976  -2.071  25.312  0.00  0.00    -0.301 N 
ATOM     25  C   UNL     1      -0.864  -1.236  25.414  0.00  0.00    +0.216 C 
ATOM     27  C   UNL     1      -1.840  -3.396  24.704  0.00  0.00    +0.108 C 
ATOM     28  C   UNL     1      -3.322  -1.759  25.808  0.00  0.00    +0.108 C 
ATOM     29  C   UNL     1      -2.842  -3.581  23.569  0.00  0.00    +0.032 C 
ATOM     30  C   UNL     1      -4.357  -1.909  24.695  0.00  0.00    +0.032 C 
ATOM     31  C   UNL     1      -4.270  -3.291  24.041  0.00  0.00    +0.078 C 
BRANCH  31  33
ATOM      6  O   UNL     1      -4.834  -3.145  21.724  0.00  0.00    -0.276 OA
ATOM     10  N   UNL     1      -6.498  -3.684  23.219  0.00  0.00    -0.329 N 
ATOM     33  C   UNL     1      -5.205  -3.366  22.874  0.00  0.00    +0.214 C 
ATOM     42  H   UNL     1      -6.781  -3.849  24.180  0.00  0.00    +0.145 HD
ATOM     43  H   UNL     1      -7.222  -3.759  22.513  0.00  0.00    +0.145 HD
ENDBRANCH  31  33
ENDBRANCH  24  25
ENDBRANCH  14  24
BRANCH  32  34
ATOM     34  C   UNL     1       4.896  -0.029  22.412  0.00  0.00    +0.102 C 
BRANCH  34  35
ATOM     35  C   UNL     1       6.056  -0.209  23.420  0.00  0.00    -0.029 C 
ATOM     36  C   UNL     1       5.756  -1.323  24.435  0.00  0.00    +0.011 C 
ATOM     37  C   UNL     1       6.228   1.116  24.190  0.00  0.00    +0.011 C 
ATOM     38  C   UNL     1       7.375  -0.525  22.697  0.00  0.00    +0.011 C 
ENDBRANCH  34  35
ENDBRANCH  32  34
TORSDOF 8
ENDMDL
MODEL 4
REMARK VINA RESULT:      17.1      2.514      4.250
REMARK  Name = 11882861
REMARK  13 active torsions:
REMARK  status: ('A' for Active; 'I' for Inactive)
REMARK    1  A    between atoms: O_2  and  C_16
REMARK    2  A    between atoms: O_3  and  C_21
REMARK    3  A    between atoms: C_11  and  C_19
REMARK    4  A    between atoms: C_13  and  C_21
REMARK    5  A    between atoms: C_13  and  C_22
REMARK    6  A    between atoms: C_14  and  C_24
REMARK    7  A    between atoms: C_24  and  C_25
REMARK    8  A    between atoms: C_31  and  C_33
REMARK    9  A    between atoms: C_32  and  C_34
REMARK   10  A    between atoms: C_34  and  C_35
REMARK   11  A    between atoms: C_35  and  C_36
REMARK   12  A    between atoms: C_35  and  C_37
REMARK   13  A    between atoms: C_35  and  C_38
REMARK                            x       y       z     vdW  Elec       q    Type
REMARK                         _______ _______ _______ _____ _____    ______ ____
ROOT
ATOM      1  S   UNL     1       0.934   2.399  25.226  0.00  0.00    -0.057 S 
ATOM      5  O   UNL     1       2.255   0.172  21.352  0.00  0.00    -0.275 OA
ATOM      7  N   UNL     1       0.100   1.353  23.012  0.00  0.00    -0.229 NA
ATOM      9  N   UNL     1       2.470   1.239  23.445  0.00  0.00    -0.265 N 
ATOM     11  C   UNL     1      -3.504   2.036  24.196  0.00  0.00    -0.019 C 
ATOM     12  C   UNL     1      -3.072   3.328  25.021  0.00  0.00    +0.011 C 
ATOM     13  C   UNL     1      -4.187   4.031  25.887  0.00  0.00    +0.021 C 
ATOM     14  C   UNL     1      -2.387   1.763  23.087  0.00  0.00    +0.054 C 
ATOM     15  C   UNL     1      -4.850   2.310  23.478  0.00  0.00    +0.010 C 
ATOM     16  C   UNL     1      -5.477   4.186  25.031  0.00  0.00    +0.123 C 
ATOM     17  C   UNL     1      -1.739   3.093  25.788  0.00  0.00    +0.049 C 
ATOM     18  C   UNL     1      -5.931   2.881  24.386  0.00  0.00    +0.032 C 
ATOM     19  C   UNL     1      -3.664   0.780  25.088  0.00  0.00    +0.012 C 
ATOM     20  C   UNL     1      -1.003   1.850  23.678  0.00  0.00    +0.058 A 
ATOM     22  C   UNL     1      -3.709   5.462  26.264  0.00  0.00    +0.016 C 
ATOM     23  C   UNL     1      -0.732   2.468  24.883  0.00  0.00    +0.015 A 
ATOM     26  C   UNL     1       1.175   1.579  23.736  0.00  0.00    +0.165 A 
ATOM     32  C   UNL     1       2.928   0.570  22.298  0.00  0.00    +0.219 C 
ATOM     41  H   UNL     1       3.151   1.508  24.149  0.00  0.00    +0.157 HD
ENDROOT
BRANCH  16   2
ATOM      2  O   UNL     1      -6.547   4.702  25.825  0.00  0.00    -0.391 OA
ATOM     39  H   UNL     1      -7.303   4.856  25.233  0.00  0.00    +0.210 HD
ENDBRANCH  16   2
BRANCH  13  21
ATOM     21  C   UNL     1      -4.497   3.329  27.227  0.00  0.00    +0.165 C 
BRANCH  21   3
ATOM      3  O   UNL     1      -5.727   2.655  27.087  0.00  0.00    -0.394 OA
ATOM     40  H   UNL     1      -5.861   2.126  27.891  0.00  0.00    +0.209 HD
ENDBRANCH  21   3
ENDBRANCH  13  21
BRANCH  14  24
ATOM     24  C   UNL     1      -2.579   0.463  22.296  0.00  0.00    +0.106 C 
BRANCH  24  25
ATOM      4  O   UNL     1      -4.611  -0.589  22.909  0.00  0.00    -0.276 OA
ATOM      8  N   UNL     1      -2.704  -1.278  24.043  0.00  0.00    -0.301 N 
ATOM     25  C   UNL     1      -3.395  -0.513  23.105  0.00  0.00    +0.216 C 
ATOM     27  C   UNL     1      -3.420  -2.276  24.841  0.00  0.00    +0.108 C 
ATOM     28  C   UNL     1      -1.260  -1.210  24.299  0.00  0.00    +0.108 C 
ATOM     29  C   UNL     1      -3.190  -2.049  26.333  0.00  0.00    +0.032 C 
ATOM     30  C   UNL     1      -0.984  -0.960  25.780  0.00  0.00    +0.032 C 
ATOM     31  C   UNL     1      -1.695  -1.994  26.658  0.00  0.00    +0.078 C 
BRANCH  31  33
ATOM      6  O   UNL     1      -2.304  -2.020  28.967  0.00  0.00    -0.276 OA
ATOM     10  N   UNL     1      -0.399  -0.884  28.356  0.00  0.00    -0.329 N 
ATOM     33  C   UNL     1      -1.512  -1.652  28.104  0.00  0.00    +0.214 C 
ATOM     42  H   UNL     1       0.233  -0.583  27.621  0.00  0.00    +0.145 HD
ATOM     43  H   UNL     1      -0.174  -0.587  29.299  0.00  0.00    +0.145 HD
ENDBRANCH  31  33
ENDBRANCH  24  25
ENDBRANCH  14  24
BRANCH  32  34
ATOM     34  C   UNL     1       4.437   0.352  22.308  0.00  0.00    +0.102 C 
BRANCH  34  35
ATOM     35  C   UNL     1       4.971  -0.414  23.541  0.00  0.00    -0.029 C 
ATOM     36  C   UNL     1       5.131   0.512  24.757  0.00  0.00    +0.011 C 
ATOM     37  C   UNL     1       6.356  -0.989  23.183  0.00  0.00    +0.011 C 
ATOM     38  C   UNL     1       4.042  -1.582  23.914  0.00  0.00    +0.011 C 
ENDBRANCH  34  35
ENDBRANCH  32  34
TORSDOF 8
ENDMDL
MODEL 5
REMARK VINA RESULT:      18.2     14.105     18.771
REMARK  Name = 11882861
REMARK  13 active torsions:
REMARK  status: ('A' for Active; 'I' for Inactive)
REMARK    1  A    between atoms: O_2  and  C_16
REMARK    2  A    between atoms: O_3  and  C_21
REMARK    3  A    between atoms: C_11  and  C_19
REMARK    4  A    between atoms: C_13  and  C_21
REMARK    5  A    between atoms: C_13  and  C_22
REMARK    6  A    between atoms: C_14  and  C_24
REMARK    7  A    between atoms: C_24  and  C_25
REMARK    8  A    between atoms: C_31  and  C_33
REMARK    9  A    between atoms: C_32  and  C_34
REMARK   10  A    between atoms: C_34  and  C_35
REMARK   11  A    between atoms: C_35  and  C_36
REMARK   12  A    between atoms: C_35  and  C_37
REMARK   13  A    between atoms: C_35  and  C_38
REMARK                            x       y       z     vdW  Elec       q    Type
REMARK                         _______ _______ _______ _____ _____    ______ ____
ROOT
ATOM      1  S   UNL     1      12.117  -6.198  28.733  0.00  0.00    -0.057 S 
ATOM      5  O   UNL     1      13.515  -4.578  32.872  0.00  0.00    -0.275 OA
ATOM      7  N   UNL     1      14.023  -6.256  30.481  0.00  0.00    -0.229 NA
ATOM      9  N   UNL     1      12.112  -4.880  31.000  0.00  0.00    -0.265 N 
ATOM     11  C   UNL     1      15.727  -8.973  28.342  0.00  0.00    -0.019 C 
ATOM     12  C   UNL     1      15.134  -8.388  26.985  0.00  0.00    +0.011 C 
ATOM     13  C   UNL     1      15.412  -9.211  25.668  0.00  0.00    +0.021 C 
ATOM     14  C   UNL     1      15.715  -7.802  29.430  0.00  0.00    +0.054 C 
ATOM     15  C   UNL     1      17.196  -9.413  28.114  0.00  0.00    +0.010 C 
ATOM     16  C   UNL     1      16.915  -9.609  25.622  0.00  0.00    +0.123 C 
ATOM     17  C   UNL     1      13.647  -7.960  27.153  0.00  0.00    +0.049 C 
ATOM     18  C   UNL     1      17.393 -10.303  26.894  0.00  0.00    +0.032 C 
ATOM     19  C   UNL     1      14.923 -10.183  28.878  0.00  0.00    +0.012 C 
ATOM     20  C   UNL     1      14.391  -7.082  29.436  0.00  0.00    +0.058 A 
ATOM     22  C   UNL     1      15.137  -8.304  24.436  0.00  0.00    +0.016 C 
ATOM     23  C   UNL     1      13.486  -7.152  28.396  0.00  0.00    +0.015 A 
ATOM     26  C   UNL     1      12.840  -5.741  30.222  0.00  0.00    +0.165 A 
ATOM     32  C   UNL     1      12.479  -4.359  32.252  0.00  0.00    +0.219 C 
ATOM     41  H   UNL     1      11.215  -4.607  30.610  0.00  0.00    +0.157 HD
ENDROOT
BRANCH  16   2
ATOM      2  O   UNL     1      17.174 -10.465  24.509  0.00  0.00    -0.391 OA
ATOM     39  H   UNL     1      16.563 -10.213  23.796  0.00  0.00    +0.210 HD
ENDBRANCH  16   2
BRANCH  13  21
ATOM     21  C   UNL     1      14.509 -10.450  25.483  0.00  0.00    +0.165 C 
BRANCH  21   3
ATOM      3  O   UNL     1      13.408 -10.067  24.689  0.00  0.00    -0.394 OA
ATOM     40  H   UNL     1      13.762  -9.668  23.877  0.00  0.00    +0.209 HD
ENDBRANCH  21   3
ENDBRANCH  13  21
BRANCH  14  24
ATOM     24  C   UNL     1      16.123  -8.241  30.842  0.00  0.00    +0.106 C 
BRANCH  24  25
ATOM      4  O   UNL     1      15.959 -10.600  30.699  0.00  0.00    -0.276 OA
ATOM      8  N   UNL     1      14.367  -9.528  32.008  0.00  0.00    -0.301 N 
ATOM     25  C   UNL     1      15.482  -9.565  31.173  0.00  0.00    +0.216 C 
ATOM     27  C   UNL     1      13.712 -10.776  32.406  0.00  0.00    +0.108 C 
ATOM     28  C   UNL     1      13.777  -8.314  32.586  0.00  0.00    +0.108 C 
ATOM     29  C   UNL     1      12.223 -10.740  32.073  0.00  0.00    +0.032 C 
ATOM     30  C   UNL     1      12.289  -8.226  32.257  0.00  0.00    +0.032 C 
ATOM     31  C   UNL     1      11.553  -9.502  32.676  0.00  0.00    +0.078 C 
BRANCH  31  33
ATOM      6  O   UNL     1       9.682 -10.182  31.355  0.00  0.00    -0.276 OA
ATOM     10  N   UNL     1       9.383  -8.478  32.873  0.00  0.00    -0.329 N 
ATOM     33  C   UNL     1      10.125  -9.441  32.229  0.00  0.00    +0.214 C 
ATOM     42  H   UNL     1       9.778  -7.870  33.583  0.00  0.00    +0.145 HD
ATOM     43  H   UNL     1       8.403  -8.340  32.650  0.00  0.00    +0.145 HD
ENDBRANCH  31  33
ENDBRANCH  24  25
ENDBRANCH  14  24
BRANCH  32  34
ATOM     34  C   UNL     1      11.419  -3.431  32.836  0.00  0.00    +0.102 C 
BRANCH  34  35
ATOM     35  C   UNL     1      10.017  -3.567  32.197  0.00  0.00    -0.029 C 
ATOM     36  C   UNL     1      10.055  -3.286  30.686  0.00  0.00    +0.011 C 
ATOM     37  C   UNL     1       9.088  -2.531  32.861  0.00  0.00    +0.011 C 
ATOM     38  C   UNL     1       9.432  -4.969  32.437  0.00  0.00    +0.011 C 
ENDBRANCH  34  35
ENDBRANCH  32  34
TORSDOF 8
ENDMDL
