MODEL 1
REMARK VINA RESULT:      -5.3      0.000      0.000
REMARK  Name = 75536707
REMARK  10 active torsions:
REMARK  status: ('A' for Active; 'I' for Inactive)
REMARK    1  A    between atoms: S_1  and  N_7
REMARK    2  A    between atoms: S_1  and  C_15
REMARK    3  A    between atoms: O_3  and  C_9
REMARK    4  A    between atoms: N_6  and  C_8
REMARK    5  A    between atoms: N_6  and  C_13
REMARK    6  A    between atoms: N_7  and  C_12
REMARK    7  A    between atoms: C_10  and  C_12
REMARK    8  A    between atoms: C_13  and  C_14
REMARK    9  A    between atoms: C_22  and  C_26
REMARK   10  A    between atoms: C_25  and  C_27
REMARK                            x       y       z     vdW  Elec       q    Type
REMARK                         _______ _______ _______ _____ _____    ______ ____
ROOT
ATOM      2  O   UNL     1      -0.821   3.430  25.753  0.00  0.00    -0.371 OA
ATOM      8  C   UNL     1      -0.251   1.738  24.187  0.00  0.00    +0.111 C 
ATOM      9  C   UNL     1      -1.748   1.978  24.132  0.00  0.00    +0.164 C 
ATOM     10  C   UNL     1      -1.845   3.369  24.744  0.00  0.00    +0.164 C 
ATOM     11  C   UNL     1       0.103   2.351  25.533  0.00  0.00    +0.181 C 
ENDROOT
BRANCH   9   3
ATOM      3  O   UNL     1      -2.257   1.947  22.813  0.00  0.00    -0.388 OA
ATOM     29  H   UNL     1      -1.702   1.351  22.284  0.00  0.00    +0.210 HD
ENDBRANCH   9   3
BRANCH   8   6
ATOM      6  N   UNL     1       0.118   0.334  24.090  0.00  0.00    -0.305 NA
ATOM     28  H   UNL     1      -0.727  -0.236  24.127  0.00  0.00    +0.123 HD
BRANCH   6  13
ATOM     13  C   UNL     1       0.818   0.061  22.839  0.00  0.00    +0.116 C 
BRANCH  13  14
ATOM     14  C   UNL     1       2.308  -0.012  23.036  0.00  0.00    -0.034 A 
ATOM     16  C   UNL     1       3.110   1.084  22.716  0.00  0.00    +0.005 A 
ATOM     17  C   UNL     1       2.890  -1.178  23.536  0.00  0.00    +0.005 A 
ATOM     20  C   UNL     1       4.491   1.015  22.896  0.00  0.00    +0.003 A 
ATOM     21  C   UNL     1       4.272  -1.247  23.715  0.00  0.00    +0.003 A 
ATOM     22  C   UNL     1       5.072  -0.150  23.395  0.00  0.00    -0.050 A 
ATOM     26  C   UNL     1       6.550  -0.224  23.586  0.00  0.00    +0.044 C 
ENDBRANCH  13  14
ENDBRANCH   6  13
ENDBRANCH   8   6
BRANCH  10  12
ATOM     12  C   UNL     1      -3.198   3.657  25.369  0.00  0.00    +0.140 C 
BRANCH  12   7
ATOM      7  N   UNL     1      -4.264   3.070  24.533  0.00  0.00    -0.187 NA
ATOM     30  H   UNL     1      -4.535   3.616  23.706  0.00  0.00    +0.148 HD
BRANCH   7   1
ATOM      1  S   UNL     1      -5.416   2.028  25.228  0.00  0.00    +0.058 S 
ATOM      4  O   UNL     1      -6.612   2.018  24.407  0.00  0.00    -0.153 OA
ATOM      5  O   UNL     1      -5.508   2.307  26.649  0.00  0.00    -0.153 OA
BRANCH   1  15
ATOM     15  C   UNL     1      -4.629   0.454  25.061  0.00  0.00    +0.105 A 
ATOM     18  C   UNL     1      -3.907  -0.080  26.128  0.00  0.00    +0.029 A 
ATOM     19  C   UNL     1      -4.728  -0.252  23.862  0.00  0.00    +0.029 A 
ATOM     23  C   UNL     1      -3.284  -1.321  25.996  0.00  0.00    +0.005 A 
ATOM     24  C   UNL     1      -4.104  -1.492  23.730  0.00  0.00    +0.005 A 
ATOM     25  C   UNL     1      -3.381  -2.027  24.797  0.00  0.00    -0.050 A 
ATOM     27  C   UNL     1      -2.715  -3.353  24.656  0.00  0.00    +0.044 C 
ENDBRANCH   1  15
ENDBRANCH   7   1
ENDBRANCH  12   7
ENDBRANCH  10  12
TORSDOF 8
ENDMDL
MODEL 2
REMARK VINA RESULT:      -4.9      1.318      1.735
REMARK  Name = 75536707
REMARK  10 active torsions:
REMARK  status: ('A' for Active; 'I' for Inactive)
REMARK    1  A    between atoms: S_1  and  N_7
REMARK    2  A    between atoms: S_1  and  C_15
REMARK    3  A    between atoms: O_3  and  C_9
REMARK    4  A    between atoms: N_6  and  C_8
REMARK    5  A    between atoms: N_6  and  C_13
REMARK    6  A    between atoms: N_7  and  C_12
REMARK    7  A    between atoms: C_10  and  C_12
REMARK    8  A    between atoms: C_13  and  C_14
REMARK    9  A    between atoms: C_22  and  C_26
REMARK   10  A    between atoms: C_25  and  C_27
REMARK                            x       y       z     vdW  Elec       q    Type
REMARK                         _______ _______ _______ _____ _____    ______ ____
ROOT
ATOM      2  O   UNL     1      -0.941   2.450  26.462  0.00  0.00    -0.371 OA
ATOM      8  C   UNL     1       0.193   1.295  24.724  0.00  0.00    +0.111 C 
ATOM      9  C   UNL     1      -0.428   2.556  24.156  0.00  0.00    +0.164 C 
ATOM     10  C   UNL     1      -0.618   3.385  25.419  0.00  0.00    +0.164 C 
ATOM     11  C   UNL     1      -0.592   1.128  26.016  0.00  0.00    +0.181 C 
ENDROOT
BRANCH   9   3
ATOM      3  O   UNL     1       0.412   3.206  23.222  0.00  0.00    -0.388 OA
ATOM     29  H   UNL     1       1.335   3.064  23.490  0.00  0.00    +0.210 HD
ENDBRANCH   9   3
BRANCH   8   6
ATOM      6  N   UNL     1       0.084   0.143  23.843  0.00  0.00    -0.305 NA
ATOM     28  H   UNL     1      -0.889   0.034  23.557  0.00  0.00    +0.123 HD
BRANCH   6  13
ATOM     13  C   UNL     1       0.911   0.312  22.653  0.00  0.00    +0.116 C 
BRANCH  13  14
ATOM     14  C   UNL     1       2.372   0.107  22.953  0.00  0.00    -0.034 A 
ATOM     16  C   UNL     1       2.813  -1.109  23.476  0.00  0.00    +0.005 A 
ATOM     17  C   UNL     1       3.285   1.133  22.709  0.00  0.00    +0.005 A 
ATOM     20  C   UNL     1       4.166  -1.298  23.756  0.00  0.00    +0.003 A 
ATOM     21  C   UNL     1       4.638   0.944  22.991  0.00  0.00    +0.003 A 
ATOM     22  C   UNL     1       5.078  -0.272  23.513  0.00  0.00    -0.050 A 
ATOM     26  C   UNL     1       6.526  -0.475  23.813  0.00  0.00    +0.044 C 
ENDBRANCH  13  14
ENDBRANCH   6  13
ENDBRANCH   8   6
BRANCH  10  12
ATOM     12  C   UNL     1      -1.722   4.420  25.297  0.00  0.00    +0.140 C 
BRANCH  12   7
ATOM      7  N   UNL     1      -2.971   3.881  25.872  0.00  0.00    -0.187 NA
ATOM     30  H   UNL     1      -2.870   3.368  26.756  0.00  0.00    +0.148 HD
BRANCH   7   1
ATOM      1  S   UNL     1      -4.279   3.493  24.854  0.00  0.00    +0.058 S 
ATOM      4  O   UNL     1      -4.085   4.122  23.562  0.00  0.00    -0.153 OA
ATOM      5  O   UNL     1      -5.518   3.686  25.583  0.00  0.00    -0.153 OA
BRANCH   1  15
ATOM     15  C   UNL     1      -4.069   1.750  24.646  0.00  0.00    +0.105 A 
ATOM     18  C   UNL     1      -4.472   0.875  25.655  0.00  0.00    +0.029 A 
ATOM     19  C   UNL     1      -3.499   1.250  23.476  0.00  0.00    +0.029 A 
ATOM     23  C   UNL     1      -4.306  -0.501  25.493  0.00  0.00    +0.005 A 
ATOM     24  C   UNL     1      -3.332  -0.126  23.314  0.00  0.00    +0.005 A 
ATOM     25  C   UNL     1      -3.734  -1.001  24.323  0.00  0.00    -0.050 A 
ATOM     27  C   UNL     1      -3.556  -2.471  24.150  0.00  0.00    +0.044 C 
ENDBRANCH   1  15
ENDBRANCH   7   1
ENDBRANCH  12   7
ENDBRANCH  10  12
TORSDOF 8
ENDMDL
MODEL 3
REMARK VINA RESULT:      -4.2      1.884      4.041
REMARK  Name = 75536707
REMARK  10 active torsions:
REMARK  status: ('A' for Active; 'I' for Inactive)
REMARK    1  A    between atoms: S_1  and  N_7
REMARK    2  A    between atoms: S_1  and  C_15
REMARK    3  A    between atoms: O_3  and  C_9
REMARK    4  A    between atoms: N_6  and  C_8
REMARK    5  A    between atoms: N_6  and  C_13
REMARK    6  A    between atoms: N_7  and  C_12
REMARK    7  A    between atoms: C_10  and  C_12
REMARK    8  A    between atoms: C_13  and  C_14
REMARK    9  A    between atoms: C_22  and  C_26
REMARK   10  A    between atoms: C_25  and  C_27
REMARK                            x       y       z     vdW  Elec       q    Type
REMARK                         _______ _______ _______ _____ _____    ______ ____
ROOT
ATOM      2  O   UNL     1      -2.007  -2.512  24.121  0.00  0.00    -0.371 OA
ATOM      8  C   UNL     1      -0.214  -1.020  24.570  0.00  0.00    +0.111 C 
ATOM      9  C   UNL     1      -1.383  -0.675  25.473  0.00  0.00    +0.164 C 
ATOM     10  C   UNL     1      -2.170  -1.979  25.446  0.00  0.00    +0.164 C 
ATOM     11  C   UNL     1      -0.900  -1.843  23.491  0.00  0.00    +0.181 C 
ENDROOT
BRANCH   9   3
ATOM      3  O   UNL     1      -0.977  -0.334  26.785  0.00  0.00    -0.388 OA
ATOM     29  H   UNL     1      -1.401  -0.949  27.406  0.00  0.00    +0.210 HD
ENDBRANCH   9   3
BRANCH   8   6
ATOM      6  N   UNL     1       0.477   0.145  24.040  0.00  0.00    -0.305 NA
ATOM     28  H   UNL     1       1.138   0.485  24.738  0.00  0.00    +0.123 HD
BRANCH   6  13
ATOM     13  C   UNL     1       1.206  -0.188  22.821  0.00  0.00    +0.116 C 
BRANCH  13  14
ATOM     14  C   UNL     1       2.695  -0.180  23.040  0.00  0.00    -0.034 A 
ATOM     16  C   UNL     1       3.333  -1.313  23.547  0.00  0.00    +0.005 A 
ATOM     17  C   UNL     1       3.439   0.962  22.739  0.00  0.00    +0.005 A 
ATOM     20  C   UNL     1       4.712  -1.304  23.753  0.00  0.00    +0.003 A 
ATOM     21  C   UNL     1       4.818   0.970  22.946  0.00  0.00    +0.003 A 
ATOM     22  C   UNL     1       5.455  -0.163  23.452  0.00  0.00    -0.050 A 
ATOM     26  C   UNL     1       6.930  -0.154  23.673  0.00  0.00    +0.044 C 
ENDBRANCH  13  14
ENDBRANCH   6  13
ENDBRANCH   8   6
BRANCH  10  12
ATOM     12  C   UNL     1      -3.647  -1.795  25.746  0.00  0.00    +0.140 C 
BRANCH  12   7
ATOM      7  N   UNL     1      -3.938  -0.360  25.935  0.00  0.00    -0.187 NA
ATOM     30  H   UNL     1      -4.214  -0.082  26.885  0.00  0.00    +0.148 HD
BRANCH   7   1
ATOM      1  S   UNL     1      -4.487   0.578  24.625  0.00  0.00    +0.058 S 
ATOM      4  O   UNL     1      -5.849   1.008  24.879  0.00  0.00    -0.153 OA
ATOM      5  O   UNL     1      -4.154  -0.100  23.387  0.00  0.00    -0.153 OA
BRANCH   1  15
ATOM     15  C   UNL     1      -3.440   1.998  24.734  0.00  0.00    +0.105 A 
ATOM     18  C   UNL     1      -2.312   2.096  23.919  0.00  0.00    +0.029 A 
ATOM     19  C   UNL     1      -3.739   3.020  25.635  0.00  0.00    +0.029 A 
ATOM     23  C   UNL     1      -1.483   3.215  24.005  0.00  0.00    +0.005 A 
ATOM     24  C   UNL     1      -2.911   4.138  25.722  0.00  0.00    +0.005 A 
ATOM     25  C   UNL     1      -1.782   4.236  24.907  0.00  0.00    -0.050 A 
ATOM     27  C   UNL     1      -0.897   5.432  25.000  0.00  0.00    +0.044 C 
ENDBRANCH   1  15
ENDBRANCH   7   1
ENDBRANCH  12   7
ENDBRANCH  10  12
TORSDOF 8
ENDMDL
MODEL 4
REMARK VINA RESULT:      -3.4      2.423      7.349
REMARK  Name = 75536707
REMARK  10 active torsions:
REMARK  status: ('A' for Active; 'I' for Inactive)
REMARK    1  A    between atoms: S_1  and  N_7
REMARK    2  A    between atoms: S_1  and  C_15
REMARK    3  A    between atoms: O_3  and  C_9
REMARK    4  A    between atoms: N_6  and  C_8
REMARK    5  A    between atoms: N_6  and  C_13
REMARK    6  A    between atoms: N_7  and  C_12
REMARK    7  A    between atoms: C_10  and  C_12
REMARK    8  A    between atoms: C_13  and  C_14
REMARK    9  A    between atoms: C_22  and  C_26
REMARK   10  A    between atoms: C_25  and  C_27
REMARK                            x       y       z     vdW  Elec       q    Type
REMARK                         _______ _______ _______ _____ _____    ______ ____
ROOT
ATOM      2  O   UNL     1      -3.076  -2.128  23.862  0.00  0.00    -0.371 OA
ATOM      8  C   UNL     1      -4.072  -0.088  24.562  0.00  0.00    +0.111 C 
ATOM      9  C   UNL     1      -2.678  -0.186  25.152  0.00  0.00    +0.164 C 
ATOM     10  C   UNL     1      -2.035  -1.203  24.218  0.00  0.00    +0.164 C 
ATOM     11  C   UNL     1      -4.346  -1.538  24.194  0.00  0.00    +0.181 C 
ENDROOT
BRANCH   9   3
ATOM      3  O   UNL     1      -1.991   1.051  25.135  0.00  0.00    -0.388 OA
ATOM     29  H   UNL     1      -1.131   0.918  24.704  0.00  0.00    +0.210 HD
ENDBRANCH   9   3
BRANCH   8   6
ATOM      6  N   UNL     1      -5.057   0.457  25.483  0.00  0.00    -0.305 NA
ATOM     28  H   UNL     1      -4.630   0.564  26.402  0.00  0.00    +0.123 HD
BRANCH   6  13
ATOM     13  C   UNL     1      -5.534   1.759  25.029  0.00  0.00    +0.116 C 
BRANCH  13  14
ATOM     14  C   UNL     1      -4.433   2.785  25.014  0.00  0.00    -0.034 A 
ATOM     16  C   UNL     1      -3.926   3.247  23.800  0.00  0.00    +0.005 A 
ATOM     17  C   UNL     1      -3.916   3.271  26.216  0.00  0.00    +0.005 A 
ATOM     20  C   UNL     1      -2.903   4.195  23.786  0.00  0.00    +0.003 A 
ATOM     21  C   UNL     1      -2.892   4.219  26.202  0.00  0.00    +0.003 A 
ATOM     22  C   UNL     1      -2.386   4.681  24.986  0.00  0.00    -0.050 A 
ATOM     26  C   UNL     1      -1.292   5.695  24.972  0.00  0.00    +0.044 C 
ENDBRANCH  13  14
ENDBRANCH   6  13
ENDBRANCH   8   6
BRANCH  10  12
ATOM     12  C   UNL     1      -0.877  -1.953  24.853  0.00  0.00    +0.140 C 
BRANCH  12   7
ATOM      7  N   UNL     1       0.345  -1.128  24.782  0.00  0.00    -0.187 NA
ATOM     30  H   UNL     1       0.715  -0.800  25.682  0.00  0.00    +0.148 HD
BRANCH   7   1
ATOM      1  S   UNL     1       0.671  -0.206  23.389  0.00  0.00    +0.058 S 
ATOM      4  O   UNL     1       0.223   1.158  23.599  0.00  0.00    -0.153 OA
ATOM      5  O   UNL     1       0.234  -0.946  22.220  0.00  0.00    -0.153 OA
BRANCH   1  15
ATOM     15  C   UNL     1       2.439  -0.200  23.365  0.00  0.00    +0.105 A 
ATOM     18  C   UNL     1       3.145  -1.322  23.798  0.00  0.00    +0.029 A 
ATOM     19  C   UNL     1       3.127   0.927  22.916  0.00  0.00    +0.029 A 
ATOM     23  C   UNL     1       4.540  -1.318  23.782  0.00  0.00    +0.005 A 
ATOM     24  C   UNL     1       4.522   0.931  22.900  0.00  0.00    +0.005 A 
ATOM     25  C   UNL     1       5.229  -0.191  23.334  0.00  0.00    -0.050 A 
ATOM     27  C   UNL     1       6.719  -0.186  23.316  0.00  0.00    +0.044 C 
ENDBRANCH   1  15
ENDBRANCH   7   1
ENDBRANCH  12   7
ENDBRANCH  10  12
TORSDOF 8
ENDMDL
MODEL 5
REMARK VINA RESULT:      -3.2      3.527      7.159
REMARK  Name = 75536707
REMARK  10 active torsions:
REMARK  status: ('A' for Active; 'I' for Inactive)
REMARK    1  A    between atoms: S_1  and  N_7
REMARK    2  A    between atoms: S_1  and  C_15
REMARK    3  A    between atoms: O_3  and  C_9
REMARK    4  A    between atoms: N_6  and  C_8
REMARK    5  A    between atoms: N_6  and  C_13
REMARK    6  A    between atoms: N_7  and  C_12
REMARK    7  A    between atoms: C_10  and  C_12
REMARK    8  A    between atoms: C_13  and  C_14
REMARK    9  A    between atoms: C_22  and  C_26
REMARK   10  A    between atoms: C_25  and  C_27
REMARK                            x       y       z     vdW  Elec       q    Type
REMARK                         _______ _______ _______ _____ _____    ______ ____
ROOT
ATOM      2  O   UNL     1      -1.546  -1.411  26.406  0.00  0.00    -0.371 OA
ATOM      8  C   UNL     1      -3.447  -1.945  25.085  0.00  0.00    +0.111 C 
ATOM      9  C   UNL     1      -2.191  -2.248  24.290  0.00  0.00    +0.164 C 
ATOM     10  C   UNL     1      -1.160  -2.367  25.404  0.00  0.00    +0.164 C 
ATOM     11  C   UNL     1      -2.906  -1.013  26.158  0.00  0.00    +0.181 C 
ENDROOT
BRANCH   9   3
ATOM      3  O   UNL     1      -2.295  -3.443  23.540  0.00  0.00    -0.388 OA
ATOM     29  H   UNL     1      -2.638  -4.141  24.122  0.00  0.00    +0.210 HD
ENDBRANCH   9   3
BRANCH   8   6
ATOM      6  N   UNL     1      -4.507  -1.342  24.293  0.00  0.00    -0.305 NA
ATOM     28  H   UNL     1      -5.242  -1.011  24.918  0.00  0.00    +0.123 HD
BRANCH   6  13
ATOM     13  C   UNL     1      -4.005  -0.212  23.518  0.00  0.00    +0.116 C 
BRANCH  13  14
ATOM     14  C   UNL     1      -4.454   1.105  24.091  0.00  0.00    -0.034 A 
ATOM     16  C   UNL     1      -3.991   2.300  23.541  0.00  0.00    +0.005 A 
ATOM     17  C   UNL     1      -5.332   1.130  25.175  0.00  0.00    +0.005 A 
ATOM     20  C   UNL     1      -4.406   3.520  24.074  0.00  0.00    +0.003 A 
ATOM     21  C   UNL     1      -5.746   2.351  25.709  0.00  0.00    +0.003 A 
ATOM     22  C   UNL     1      -5.283   3.546  25.158  0.00  0.00    -0.050 A 
ATOM     26  C   UNL     1      -5.725   4.851  25.729  0.00  0.00    +0.044 C 
ENDBRANCH  13  14
ENDBRANCH   6  13
ENDBRANCH   8   6
BRANCH  10  12
ATOM     12  C   UNL     1       0.258  -2.082  24.942  0.00  0.00    +0.140 C 
BRANCH  12   7
ATOM      7  N   UNL     1       0.536  -0.637  25.062  0.00  0.00    -0.187 NA
ATOM     30  H   UNL     1       0.267  -0.203  25.953  0.00  0.00    +0.148 HD
BRANCH   7   1
ATOM      1  S   UNL     1       0.585   0.340  23.668  0.00  0.00    +0.058 S 
ATOM      4  O   UNL     1      -0.291  -0.221  22.657  0.00  0.00    -0.153 OA
ATOM      5  O   UNL     1       1.968   0.641  23.351  0.00  0.00    -0.153 OA
BRANCH   1  15
ATOM     15  C   UNL     1      -0.149   1.839  24.252  0.00  0.00    +0.105 A 
ATOM     18  C   UNL     1      -0.787   1.865  25.492  0.00  0.00    +0.029 A 
ATOM     19  C   UNL     1      -0.091   2.994  23.472  0.00  0.00    +0.029 A 
ATOM     23  C   UNL     1      -1.368   3.047  25.952  0.00  0.00    +0.005 A 
ATOM     24  C   UNL     1      -0.673   4.175  23.932  0.00  0.00    +0.005 A 
ATOM     25  C   UNL     1      -1.312   4.202  25.172  0.00  0.00    -0.050 A 
ATOM     27  C   UNL     1      -1.933   5.465  25.664  0.00  0.00    +0.044 C 
ENDBRANCH   1  15
ENDBRANCH   7   1
ENDBRANCH  12   7
ENDBRANCH  10  12
TORSDOF 8
ENDMDL
MODEL 6
REMARK VINA RESULT:      -3.1      2.287      7.076
REMARK  Name = 75536707
REMARK  10 active torsions:
REMARK  status: ('A' for Active; 'I' for Inactive)
REMARK    1  A    between atoms: S_1  and  N_7
REMARK    2  A    between atoms: S_1  and  C_15
REMARK    3  A    between atoms: O_3  and  C_9
REMARK    4  A    between atoms: N_6  and  C_8
REMARK    5  A    between atoms: N_6  and  C_13
REMARK    6  A    between atoms: N_7  and  C_12
REMARK    7  A    between atoms: C_10  and  C_12
REMARK    8  A    between atoms: C_13  and  C_14
REMARK    9  A    between atoms: C_22  and  C_26
REMARK   10  A    between atoms: C_25  and  C_27
REMARK                            x       y       z     vdW  Elec       q    Type
REMARK                         _______ _______ _______ _____ _____    ______ ____
ROOT
ATOM      2  O   UNL     1      -0.467   4.749  24.359  0.00  0.00    -0.371 OA
ATOM      8  C   UNL     1      -2.142   4.236  25.963  0.00  0.00    +0.111 C 
ATOM      9  C   UNL     1      -1.424   2.959  25.573  0.00  0.00    +0.164 C 
ATOM     10  C   UNL     1      -0.123   3.514  25.009  0.00  0.00    +0.164 C 
ATOM     11  C   UNL     1      -1.772   5.155  24.809  0.00  0.00    +0.181 C 
ENDROOT
BRANCH   9   3
ATOM      3  O   UNL     1      -1.197   2.102  26.675  0.00  0.00    -0.388 OA
ATOM     29  H   UNL     1      -0.881   1.247  26.339  0.00  0.00    +0.210 HD
ENDBRANCH   9   3
BRANCH   8   6
ATOM      6  N   UNL     1      -3.579   4.073  26.117  0.00  0.00    -0.305 NA
ATOM     28  H   UNL     1      -3.980   4.951  26.449  0.00  0.00    +0.123 HD
BRANCH   6  13
ATOM     13  C   UNL     1      -4.206   3.719  24.848  0.00  0.00    +0.116 C 
BRANCH  13  14
ATOM     14  C   UNL     1      -4.173   2.234  24.603  0.00  0.00    -0.034 A 
ATOM     16  C   UNL     1      -4.961   1.381  25.376  0.00  0.00    +0.005 A 
ATOM     17  C   UNL     1      -3.351   1.711  23.604  0.00  0.00    +0.005 A 
ATOM     20  C   UNL     1      -4.928   0.005  25.150  0.00  0.00    +0.003 A 
ATOM     21  C   UNL     1      -3.317   0.334  23.379  0.00  0.00    +0.003 A 
ATOM     22  C   UNL     1      -4.106  -0.518  24.152  0.00  0.00    -0.050 A 
ATOM     26  C   UNL     1      -4.070  -1.990  23.911  0.00  0.00    +0.044 C 
ENDBRANCH  13  14
ENDBRANCH   6  13
ENDBRANCH   8   6
BRANCH  10  12
ATOM     12  C   UNL     1       0.548   2.581  24.017  0.00  0.00    +0.140 C 
BRANCH  12   7
ATOM      7  N   UNL     1       0.433   1.188  24.492  0.00  0.00    -0.187 NA
ATOM     30  H   UNL     1       0.618   1.041  25.491  0.00  0.00    +0.148 HD
BRANCH   7   1
ATOM      1  S   UNL     1       0.708  -0.104  23.418  0.00  0.00    +0.058 S 
ATOM      4  O   UNL     1       0.235   0.261  22.096  0.00  0.00    -0.153 OA
ATOM      5  O   UNL     1       0.263  -1.337  24.039  0.00  0.00    -0.153 OA
BRANCH   1  15
ATOM     15  C   UNL     1       2.475  -0.160  23.366  0.00  0.00    +0.105 A 
ATOM     18  C   UNL     1       3.148  -1.302  23.800  0.00  0.00    +0.029 A 
ATOM     19  C   UNL     1       3.195   0.937  22.894  0.00  0.00    +0.029 A 
ATOM     23  C   UNL     1       4.541  -1.348  23.761  0.00  0.00    +0.005 A 
ATOM     24  C   UNL     1       4.588   0.892  22.856  0.00  0.00    +0.005 A 
ATOM     25  C   UNL     1       5.262  -0.250  23.290  0.00  0.00    -0.050 A 
ATOM     27  C   UNL     1       6.751  -0.298  23.249  0.00  0.00    +0.044 C 
ENDBRANCH   1  15
ENDBRANCH   7   1
ENDBRANCH  12   7
ENDBRANCH  10  12
TORSDOF 8
ENDMDL
MODEL 7
REMARK VINA RESULT:      -2.5      1.604      3.502
REMARK  Name = 75536707
REMARK  10 active torsions:
REMARK  status: ('A' for Active; 'I' for Inactive)
REMARK    1  A    between atoms: S_1  and  N_7
REMARK    2  A    between atoms: S_1  and  C_15
REMARK    3  A    between atoms: O_3  and  C_9
REMARK    4  A    between atoms: N_6  and  C_8
REMARK    5  A    between atoms: N_6  and  C_13
REMARK    6  A    between atoms: N_7  and  C_12
REMARK    7  A    between atoms: C_10  and  C_12
REMARK    8  A    between atoms: C_13  and  C_14
REMARK    9  A    between atoms: C_22  and  C_26
REMARK   10  A    between atoms: C_25  and  C_27
REMARK                            x       y       z     vdW  Elec       q    Type
REMARK                         _______ _______ _______ _____ _____    ______ ____
ROOT
ATOM      2  O   UNL     1      -1.820  -0.250  25.378  0.00  0.00    -0.371 OA
ATOM      8  C   UNL     1      -0.479   0.870  23.770  0.00  0.00    +0.111 C 
ATOM      9  C   UNL     1      -1.922   0.881  23.304  0.00  0.00    +0.164 C 
ATOM     10  C   UNL     1      -2.656   0.636  24.615  0.00  0.00    +0.164 C 
ATOM     11  C   UNL     1      -0.503  -0.248  24.799  0.00  0.00    +0.181 C 
ENDROOT
BRANCH   9   3
ATOM      3  O   UNL     1      -2.296   2.110  22.713  0.00  0.00    -0.388 OA
ATOM     29  H   UNL     1      -2.553   1.942  21.792  0.00  0.00    +0.210 HD
ENDBRANCH   9   3
BRANCH   8   6
ATOM      6  N   UNL     1       0.477   0.633  22.700  0.00  0.00    -0.305 NA
ATOM     28  H   UNL     1       1.162   1.389  22.692  0.00  0.00    +0.123 HD
BRANCH   6  13
ATOM     13  C   UNL     1       1.175  -0.634  22.890  0.00  0.00    +0.116 C 
BRANCH  13  14
ATOM     14  C   UNL     1       2.652  -0.434  23.096  0.00  0.00    -0.034 A 
ATOM     16  C   UNL     1       3.254   0.766  22.717  0.00  0.00    +0.005 A 
ATOM     17  C   UNL     1       3.421  -1.450  23.664  0.00  0.00    +0.005 A 
ATOM     20  C   UNL     1       4.624   0.950  22.905  0.00  0.00    +0.003 A 
ATOM     21  C   UNL     1       4.791  -1.267  23.851  0.00  0.00    +0.003 A 
ATOM     22  C   UNL     1       5.392  -0.066  23.472  0.00  0.00    -0.050 A 
ATOM     26  C   UNL     1       6.857   0.131  23.673  0.00  0.00    +0.044 C 
ENDBRANCH  13  14
ENDBRANCH   6  13
ENDBRANCH   8   6
BRANCH  10  12
ATOM     12  C   UNL     1      -4.028   0.013  24.429  0.00  0.00    +0.140 C 
BRANCH  12   7
ATOM      7  N   UNL     1      -4.889   0.362  25.576  0.00  0.00    -0.187 NA
ATOM     30  H   UNL     1      -5.306  -0.432  26.079  0.00  0.00    +0.148 HD
BRANCH   7   1
ATOM      1  S   UNL     1      -5.702   1.857  25.609  0.00  0.00    +0.058 S 
ATOM      4  O   UNL     1      -6.258   2.072  26.932  0.00  0.00    -0.153 OA
ATOM      5  O   UNL     1      -6.546   1.961  24.435  0.00  0.00    -0.153 OA
BRANCH   1  15
ATOM     15  C   UNL     1      -4.368   2.997  25.389  0.00  0.00    +0.105 A 
ATOM     18  C   UNL     1      -4.339   3.826  24.268  0.00  0.00    +0.029 A 
ATOM     19  C   UNL     1      -3.345   3.066  26.334  0.00  0.00    +0.029 A 
ATOM     23  C   UNL     1      -3.287   4.725  24.092  0.00  0.00    +0.005 A 
ATOM     24  C   UNL     1      -2.293   3.964  26.158  0.00  0.00    +0.005 A 
ATOM     25  C   UNL     1      -2.262   4.793  25.036  0.00  0.00    -0.050 A 
ATOM     27  C   UNL     1      -1.138   5.753  24.849  0.00  0.00    +0.044 C 
ENDBRANCH   1  15
ENDBRANCH   7   1
ENDBRANCH  12   7
ENDBRANCH  10  12
TORSDOF 8
ENDMDL
MODEL 8
REMARK VINA RESULT:      -2.1      3.283      6.062
REMARK  Name = 75536707
REMARK  10 active torsions:
REMARK  status: ('A' for Active; 'I' for Inactive)
REMARK    1  A    between atoms: S_1  and  N_7
REMARK    2  A    between atoms: S_1  and  C_15
REMARK    3  A    between atoms: O_3  and  C_9
REMARK    4  A    between atoms: N_6  and  C_8
REMARK    5  A    between atoms: N_6  and  C_13
REMARK    6  A    between atoms: N_7  and  C_12
REMARK    7  A    between atoms: C_10  and  C_12
REMARK    8  A    between atoms: C_13  and  C_14
REMARK    9  A    between atoms: C_22  and  C_26
REMARK   10  A    between atoms: C_25  and  C_27
REMARK                            x       y       z     vdW  Elec       q    Type
REMARK                         _______ _______ _______ _____ _____    ______ ____
ROOT
ATOM      2  O   UNL     1      -0.410   4.883  24.311  0.00  0.00    -0.371 OA
ATOM      8  C   UNL     1      -1.951   4.323  26.029  0.00  0.00    +0.111 C 
ATOM      9  C   UNL     1      -1.395   3.046  25.428  0.00  0.00    +0.164 C 
ATOM     10  C   UNL     1      -0.114   3.558  24.784  0.00  0.00    +0.164 C 
ATOM     11  C   UNL     1      -1.619   5.336  24.945  0.00  0.00    +0.181 C 
ENDROOT
BRANCH   9   3
ATOM      3  O   UNL     1      -1.135   2.053  26.401  0.00  0.00    -0.388 OA
ATOM     29  H   UNL     1      -0.177   2.026  26.562  0.00  0.00    +0.210 HD
ENDBRANCH   9   3
BRANCH   8   6
ATOM      6  N   UNL     1      -3.373   4.257  26.325  0.00  0.00    -0.305 NA
ATOM     28  H   UNL     1      -3.664   5.132  26.761  0.00  0.00    +0.123 HD
BRANCH   6  13
ATOM     13  C   UNL     1      -4.154   4.054  25.110  0.00  0.00    +0.116 C 
BRANCH  13  14
ATOM     14  C   UNL     1      -4.245   2.597  24.740  0.00  0.00    -0.034 A 
ATOM     16  C   UNL     1      -3.465   2.090  23.700  0.00  0.00    +0.005 A 
ATOM     17  C   UNL     1      -5.112   1.754  25.435  0.00  0.00    +0.005 A 
ATOM     20  C   UNL     1      -3.552   0.742  23.356  0.00  0.00    +0.003 A 
ATOM     21  C   UNL     1      -5.200   0.405  25.090  0.00  0.00    +0.003 A 
ATOM     22  C   UNL     1      -4.419  -0.101  24.050  0.00  0.00    -0.050 A 
ATOM     26  C   UNL     1      -4.513  -1.543  23.682  0.00  0.00    +0.044 C 
ENDBRANCH  13  14
ENDBRANCH   6  13
ENDBRANCH   8   6
BRANCH  10  12
ATOM     12  C   UNL     1       0.365   2.696  23.630  0.00  0.00    +0.140 C 
BRANCH  12   7
ATOM      7  N   UNL     1       1.094   1.525  24.156  0.00  0.00    -0.187 NA
ATOM     30  H   UNL     1       1.908   1.735  24.747  0.00  0.00    +0.148 HD
BRANCH   7   1
ATOM      1  S   UNL     1       1.071   0.053  23.302  0.00  0.00    +0.058 S 
ATOM      4  O   UNL     1       2.327  -0.643  23.510  0.00  0.00    -0.153 OA
ATOM      5  O   UNL     1       0.583   0.294  21.958  0.00  0.00    -0.153 OA
BRANCH   1  15
ATOM     15  C   UNL     1      -0.192  -0.841  24.158  0.00  0.00    +0.105 A 
ATOM     18  C   UNL     1      -0.655  -0.384  25.391  0.00  0.00    +0.029 A 
ATOM     19  C   UNL     1      -0.724  -2.004  23.600  0.00  0.00    +0.029 A 
ATOM     23  C   UNL     1      -1.650  -1.089  26.068  0.00  0.00    +0.005 A 
ATOM     24  C   UNL     1      -1.719  -2.709  24.277  0.00  0.00    +0.005 A 
ATOM     25  C   UNL     1      -2.182  -2.253  25.511  0.00  0.00    -0.050 A 
ATOM     27  C   UNL     1      -3.245  -3.007  26.234  0.00  0.00    +0.044 C 
ENDBRANCH   1  15
ENDBRANCH   7   1
ENDBRANCH  12   7
ENDBRANCH  10  12
TORSDOF 8
ENDMDL
MODEL 9
REMARK VINA RESULT:      -1.4      3.379      6.254
REMARK  Name = 75536707
REMARK  10 active torsions:
REMARK  status: ('A' for Active; 'I' for Inactive)
REMARK    1  A    between atoms: S_1  and  N_7
REMARK    2  A    between atoms: S_1  and  C_15
REMARK    3  A    between atoms: O_3  and  C_9
REMARK    4  A    between atoms: N_6  and  C_8
REMARK    5  A    between atoms: N_6  and  C_13
REMARK    6  A    between atoms: N_7  and  C_12
REMARK    7  A    between atoms: C_10  and  C_12
REMARK    8  A    between atoms: C_13  and  C_14
REMARK    9  A    between atoms: C_22  and  C_26
REMARK   10  A    between atoms: C_25  and  C_27
REMARK                            x       y       z     vdW  Elec       q    Type
REMARK                         _______ _______ _______ _____ _____    ______ ____
ROOT
ATOM      2  O   UNL     1       0.197   2.881  23.179  0.00  0.00    -0.371 OA
ATOM      8  C   UNL     1      -0.354   4.049  25.172  0.00  0.00    +0.111 C 
ATOM      9  C   UNL     1      -0.702   2.583  25.346  0.00  0.00    +0.164 C 
ATOM     10  C   UNL     1       0.167   1.945  24.270  0.00  0.00    +0.164 C 
ATOM     11  C   UNL     1      -0.258   4.158  23.658  0.00  0.00    +0.181 C 
ENDROOT
BRANCH   9   3
ATOM      3  O   UNL     1      -0.384   2.097  26.636  0.00  0.00    -0.388 OA
ATOM     29  H   UNL     1       0.460   2.491  26.912  0.00  0.00    +0.210 HD
ENDBRANCH   9   3
BRANCH   8   6
ATOM      6  N   UNL     1      -1.339   4.954  25.742  0.00  0.00    -0.305 NA
ATOM     28  H   UNL     1      -0.882   5.833  25.987  0.00  0.00    +0.123 HD
BRANCH   6  13
ATOM     13  C   UNL     1      -2.412   5.229  24.792  0.00  0.00    +0.116 C 
BRANCH  13  14
ATOM     14  C   UNL     1      -3.489   4.179  24.845  0.00  0.00    -0.034 A 
ATOM     16  C   UNL     1      -3.699   3.339  23.751  0.00  0.00    +0.005 A 
ATOM     17  C   UNL     1      -4.279   4.048  25.987  0.00  0.00    +0.005 A 
ATOM     20  C   UNL     1      -4.699   2.369  23.799  0.00  0.00    +0.003 A 
ATOM     21  C   UNL     1      -5.281   3.077  26.034  0.00  0.00    +0.003 A 
ATOM     22  C   UNL     1      -5.490   2.237  24.940  0.00  0.00    -0.050 A 
ATOM     26  C   UNL     1      -6.560   1.199  24.991  0.00  0.00    +0.044 C 
ENDBRANCH  13  14
ENDBRANCH   6  13
ENDBRANCH   8   6
BRANCH  10  12
ATOM     12  C   UNL     1      -0.363   0.608  23.786  0.00  0.00    +0.140 C 
BRANCH  12   7
ATOM      7  N   UNL     1       0.375  -0.486  24.448  0.00  0.00    -0.187 NA
ATOM     30  H   UNL     1       1.102  -0.940  23.882  0.00  0.00    +0.148 HD
BRANCH   7   1
ATOM      1  S   UNL     1      -0.366  -1.386  25.688  0.00  0.00    +0.058 S 
ATOM      4  O   UNL     1      -0.644  -0.515  26.814  0.00  0.00    -0.153 OA
ATOM      5  O   UNL     1       0.373  -2.619  25.883  0.00  0.00    -0.153 OA
BRANCH   1  15
ATOM     15  C   UNL     1      -1.910  -1.822  24.944  0.00  0.00    +0.105 A 
ATOM     18  C   UNL     1      -2.970  -0.917  24.958  0.00  0.00    +0.029 A 
ATOM     19  C   UNL     1      -2.068  -3.072  24.345  0.00  0.00    +0.029 A 
ATOM     23  C   UNL     1      -4.189  -1.260  24.373  0.00  0.00    +0.005 A 
ATOM     24  C   UNL     1      -3.287  -3.416  23.761  0.00  0.00    +0.005 A 
ATOM     25  C   UNL     1      -4.348  -2.511  23.776  0.00  0.00    -0.050 A 
ATOM     27  C   UNL     1      -5.650  -2.879  23.151  0.00  0.00    +0.044 C 
ENDBRANCH   1  15
ENDBRANCH   7   1
ENDBRANCH  12   7
ENDBRANCH  10  12
TORSDOF 8
ENDMDL
MODEL 10
REMARK VINA RESULT:      -1.4      2.688      3.452
REMARK  Name = 75536707
REMARK  10 active torsions:
REMARK  status: ('A' for Active; 'I' for Inactive)
REMARK    1  A    between atoms: S_1  and  N_7
REMARK    2  A    between atoms: S_1  and  C_15
REMARK    3  A    between atoms: O_3  and  C_9
REMARK    4  A    between atoms: N_6  and  C_8
REMARK    5  A    between atoms: N_6  and  C_13
REMARK    6  A    between atoms: N_7  and  C_12
REMARK    7  A    between atoms: C_10  and  C_12
REMARK    8  A    between atoms: C_13  and  C_14
REMARK    9  A    between atoms: C_22  and  C_26
REMARK   10  A    between atoms: C_25  and  C_27
REMARK                            x       y       z     vdW  Elec       q    Type
REMARK                         _______ _______ _______ _____ _____    ______ ____
ROOT
ATOM      2  O   UNL     1      -0.716  -0.204  26.014  0.00  0.00    -0.371 OA
ATOM      8  C   UNL     1       0.428  -0.273  23.935  0.00  0.00    +0.111 C 
ATOM      9  C   UNL     1       0.153   1.174  24.299  0.00  0.00    +0.164 C 
ATOM     10  C   UNL     1      -0.066   1.061  25.802  0.00  0.00    +0.164 C 
ATOM     11  C   UNL     1      -0.561  -1.003  24.828  0.00  0.00    +0.181 C 
ENDROOT
BRANCH   9   3
ATOM      3  O   UNL     1       1.234   2.031  23.988  0.00  0.00    -0.388 OA
ATOM     29  H   UNL     1       1.820   1.571  23.364  0.00  0.00    +0.210 HD
ENDBRANCH   9   3
BRANCH   8   6
ATOM      6  N   UNL     1       0.238  -0.565  22.522  0.00  0.00    -0.305 NA
ATOM     28  H   UNL     1      -0.625  -0.122  22.205  0.00  0.00    +0.123 HD
BRANCH   6  13
ATOM     13  C   UNL     1       1.350  -0.056  21.727  0.00  0.00    +0.116 C 
BRANCH  13  14
ATOM     14  C   UNL     1       2.662  -0.186  22.452  0.00  0.00    -0.034 A 
ATOM     16  C   UNL     1       3.594   0.851  22.401  0.00  0.00    +0.005 A 
ATOM     17  C   UNL     1       2.949  -1.346  23.173  0.00  0.00    +0.005 A 
ATOM     20  C   UNL     1       4.811   0.729  23.070  0.00  0.00    +0.003 A 
ATOM     21  C   UNL     1       4.167  -1.468  23.842  0.00  0.00    +0.003 A 
ATOM     22  C   UNL     1       5.098  -0.430  23.791  0.00  0.00    -0.050 A 
ATOM     26  C   UNL     1       6.400  -0.560  24.506  0.00  0.00    +0.044 C 
ENDBRANCH  13  14
ENDBRANCH   6  13
ENDBRANCH   8   6
BRANCH  10  12
ATOM     12  C   UNL     1      -0.921   2.179  26.370  0.00  0.00    +0.140 C 
BRANCH  12   7
ATOM      7  N   UNL     1      -0.405   3.482  25.904  0.00  0.00    -0.187 NA
ATOM     30  H   UNL     1       0.204   3.982  26.562  0.00  0.00    +0.148 HD
BRANCH   7   1
ATOM      1  S   UNL     1      -1.288   4.390  24.767  0.00  0.00    +0.058 S 
ATOM      4  O   UNL     1      -0.711   4.201  23.449  0.00  0.00    -0.153 OA
ATOM      5  O   UNL     1      -1.494   5.727  25.289  0.00  0.00    -0.153 OA
BRANCH   1  15
ATOM     15  C   UNL     1      -2.857   3.577  24.794  0.00  0.00    +0.105 A 
ATOM     18  C   UNL     1      -3.805   3.925  25.757  0.00  0.00    +0.029 A 
ATOM     19  C   UNL     1      -3.147   2.586  23.857  0.00  0.00    +0.029 A 
ATOM     23  C   UNL     1      -5.043   3.284  25.781  0.00  0.00    +0.005 A 
ATOM     24  C   UNL     1      -4.385   1.944  23.881  0.00  0.00    +0.005 A 
ATOM     25  C   UNL     1      -5.333   2.291  24.844  0.00  0.00    -0.050 A 
ATOM     27  C   UNL     1      -6.656   1.605  24.869  0.00  0.00    +0.044 C 
ENDBRANCH   1  15
ENDBRANCH   7   1
ENDBRANCH  12   7
ENDBRANCH  10  12
TORSDOF 8
ENDMDL
