MODEL 1
REMARK VINA RESULT:      -3.3      0.000      0.000
REMARK  Name = 40777363
REMARK  6 active torsions:
REMARK  status: ('A' for Active; 'I' for Inactive)
REMARK    1  A    between atoms: N_4  and  C_13
REMARK    2  A    between atoms: C_6  and  C_10
REMARK    3  A    between atoms: C_7  and  C_12
REMARK    4  A    between atoms: C_10  and  C_16
REMARK    5  A    between atoms: C_12  and  C_20
REMARK    6  A    between atoms: C_22  and  C_23
REMARK                            x       y       z     vdW  Elec       q    Type
REMARK                         _______ _______ _______ _____ _____    ______ ____
ROOT
ATOM      3  N   UNL     1      -0.671   5.200  24.493  0.00  0.00    -0.316 NA
ATOM      6  C   UNL     1      -2.489   3.062  25.406  0.00  0.00    +0.004 C 
ATOM      7  C   UNL     1      -1.270   2.789  24.494  0.00  0.00    +0.012 C 
ATOM      8  C   UNL     1      -2.242   4.354  26.202  0.00  0.00    +0.019 C 
ATOM      9  C   UNL     1      -0.901   4.023  23.654  0.00  0.00    +0.085 C 
ATOM     11  C   UNL     1      -1.842   5.525  25.306  0.00  0.00    +0.081 C 
ATOM     29  H   UNL     1      -0.439   5.997  23.902  0.00  0.00    +0.122 HD
ENDROOT
BRANCH   6  10
ATOM     10  C   UNL     1      -3.825   3.131  24.656  0.00  0.00    +0.099 C 
BRANCH  10  16
ATOM      1  O   UNL     1      -5.878   1.853  24.756  0.00  0.00    -0.276 OA
ATOM      4  N   UNL     1      -3.848   0.782  25.123  0.00  0.00    -0.312 N 
ATOM     16  C   UNL     1      -4.652   1.876  24.843  0.00  0.00    +0.214 C 
ATOM     30  H   UNL     1      -2.839   0.893  25.105  0.00  0.00    +0.149 HD
BRANCH   4  13
ATOM     13  C   UNL     1      -4.373  -0.547  25.350  0.00  0.00    +0.073 C 
ATOM     14  C   UNL     1      -4.529  -1.309  24.030  0.00  0.00    +0.022 C 
ATOM     15  C   UNL     1      -3.497  -1.322  26.339  0.00  0.00    +0.022 C 
ATOM     17  C   UNL     1      -3.186  -1.721  23.429  0.00  0.00    +0.002 C 
ATOM     18  C   UNL     1      -2.155  -1.735  25.734  0.00  0.00    +0.002 C 
ATOM     19  C   UNL     1      -2.338  -2.502  24.428  0.00  0.00    +0.000 C 
ENDBRANCH   4  13
ENDBRANCH  10  16
ENDBRANCH   6  10
BRANCH   7  12
ATOM     12  C   UNL     1      -1.453   1.564  23.598  0.00  0.00    +0.064 C 
BRANCH  12  20
ATOM      2  O   UNL     1       1.255  -0.492  22.411  0.00  0.00    -0.354 OA
ATOM      5  N   UNL     1      -0.078  -0.098  22.419  0.00  0.00    -0.083 NA
ATOM     20  C   UNL     1      -0.142   0.887  23.320  0.00  0.00    +0.085 A 
ATOM     21  C   UNL     1       1.107   1.155  23.907  0.00  0.00    +0.076 A 
ATOM     22  C   UNL     1       1.950   0.262  23.301  0.00  0.00    +0.167 A 
BRANCH  22  23
ATOM     23  C   UNL     1       3.349  -0.032  23.404  0.00  0.00    +0.020 A 
ATOM     24  C   UNL     1       4.293   0.962  23.141  0.00  0.00    +0.011 A 
ATOM     25  C   UNL     1       3.768  -1.312  23.766  0.00  0.00    +0.011 A 
ATOM     26  C   UNL     1       5.654   0.676  23.241  0.00  0.00    +0.001 A 
ATOM     27  C   UNL     1       5.130  -1.598  23.866  0.00  0.00    +0.001 A 
ATOM     28  C   UNL     1       6.073  -0.604  23.605  0.00  0.00    +0.000 A 
ENDBRANCH  22  23
ENDBRANCH  12  20
ENDBRANCH   7  12
TORSDOF 6
ENDMDL
MODEL 2
REMARK VINA RESULT:      -3.3      1.406      4.367
REMARK  Name = 40777363
REMARK  6 active torsions:
REMARK  status: ('A' for Active; 'I' for Inactive)
REMARK    1  A    between atoms: N_4  and  C_13
REMARK    2  A    between atoms: C_6  and  C_10
REMARK    3  A    between atoms: C_7  and  C_12
REMARK    4  A    between atoms: C_10  and  C_16
REMARK    5  A    between atoms: C_12  and  C_20
REMARK    6  A    between atoms: C_22  and  C_23
REMARK                            x       y       z     vdW  Elec       q    Type
REMARK                         _______ _______ _______ _____ _____    ______ ____
ROOT
ATOM      3  N   UNL     1      -2.066  -2.915  24.443  0.00  0.00    -0.316 NA
ATOM      6  C   UNL     1      -4.051  -0.785  23.962  0.00  0.00    +0.004 C 
ATOM      7  C   UNL     1      -2.539  -0.593  23.697  0.00  0.00    +0.012 C 
ATOM      8  C   UNL     1      -4.389  -2.283  23.886  0.00  0.00    +0.019 C 
ATOM      9  C   UNL     1      -1.685  -1.510  24.590  0.00  0.00    +0.085 C 
ATOM     11  C   UNL     1      -3.474  -3.133  24.767  0.00  0.00    +0.081 C 
ATOM     29  H   UNL     1      -1.487  -3.488  25.055  0.00  0.00    +0.122 HD
ENDROOT
BRANCH   6  10
ATOM     10  C   UNL     1      -4.532  -0.184  25.288  0.00  0.00    +0.099 C 
BRANCH  10  16
ATOM      1  O   UNL     1      -6.139   1.489  24.598  0.00  0.00    -0.276 OA
ATOM      4  N   UNL     1      -4.166   2.158  25.627  0.00  0.00    -0.312 N 
ATOM     16  C   UNL     1      -5.058   1.226  25.120  0.00  0.00    +0.214 C 
ATOM     30  H   UNL     1      -3.329   1.834  26.101  0.00  0.00    +0.149 HD
BRANCH   4  13
ATOM     13  C   UNL     1      -4.410   3.584  25.598  0.00  0.00    +0.073 C 
ATOM     14  C   UNL     1      -3.514   4.316  26.602  0.00  0.00    +0.022 C 
ATOM     15  C   UNL     1      -4.232   4.144  24.183  0.00  0.00    +0.022 C 
ATOM     17  C   UNL     1      -2.050   4.352  26.164  0.00  0.00    +0.002 C 
ATOM     18  C   UNL     1      -2.766   4.180  23.749  0.00  0.00    +0.002 C 
ATOM     19  C   UNL     1      -1.898   4.925  24.758  0.00  0.00    +0.000 C 
ENDBRANCH   4  13
ENDBRANCH  10  16
ENDBRANCH   6  10
BRANCH   7  12
ATOM     12  C   UNL     1      -2.086   0.861  23.830  0.00  0.00    +0.064 C 
BRANCH  12  20
ATOM      2  O   UNL     1       1.362   1.881  24.031  0.00  0.00    -0.354 OA
ATOM      5  N   UNL     1      -0.001   2.121  24.158  0.00  0.00    -0.083 NA
ATOM     20  C   UNL     1      -0.589   0.972  23.811  0.00  0.00    +0.085 A 
ATOM     21  C   UNL     1       0.344  -0.019  23.457  0.00  0.00    +0.076 A 
ATOM     22  C   UNL     1       1.555   0.603  23.613  0.00  0.00    +0.167 A 
BRANCH  22  23
ATOM     23  C   UNL     1       2.921   0.208  23.435  0.00  0.00    +0.020 A 
ATOM     24  C   UNL     1       3.839   1.099  22.880  0.00  0.00    +0.011 A 
ATOM     25  C   UNL     1       3.333  -1.069  23.818  0.00  0.00    +0.011 A 
ATOM     26  C   UNL     1       5.168   0.714  22.706  0.00  0.00    +0.001 A 
ATOM     27  C   UNL     1       4.663  -1.454  23.644  0.00  0.00    +0.001 A 
ATOM     28  C   UNL     1       5.580  -0.562  23.089  0.00  0.00    +0.000 A 
ENDBRANCH  22  23
ENDBRANCH  12  20
ENDBRANCH   7  12
TORSDOF 6
ENDMDL
MODEL 3
REMARK VINA RESULT:      -1.4      2.274      6.677
REMARK  Name = 40777363
REMARK  6 active torsions:
REMARK  status: ('A' for Active; 'I' for Inactive)
REMARK    1  A    between atoms: N_4  and  C_13
REMARK    2  A    between atoms: C_6  and  C_10
REMARK    3  A    between atoms: C_7  and  C_12
REMARK    4  A    between atoms: C_10  and  C_16
REMARK    5  A    between atoms: C_12  and  C_20
REMARK    6  A    between atoms: C_22  and  C_23
REMARK                            x       y       z     vdW  Elec       q    Type
REMARK                         _______ _______ _______ _____ _____    ______ ____
ROOT
ATOM      3  N   UNL     1       2.785   0.616  21.834  0.00  0.00    -0.316 NA
ATOM      6  C   UNL     1       0.314  -0.005  23.324  0.00  0.00    +0.004 C 
ATOM      7  C   UNL     1       1.094   1.318  23.513  0.00  0.00    +0.012 C 
ATOM      8  C   UNL     1       0.622  -0.575  21.929  0.00  0.00    +0.019 C 
ATOM      9  C   UNL     1       2.587   1.150  23.183  0.00  0.00    +0.085 C 
ATOM     11  C   UNL     1       2.123  -0.675  21.658  0.00  0.00    +0.081 C 
ATOM     29  H   UNL     1       3.783   0.510  21.656  0.00  0.00    +0.122 HD
ENDROOT
BRANCH   6  10
ATOM     10  C   UNL     1       0.587  -1.050  24.413  0.00  0.00    +0.099 C 
BRANCH  10  16
ATOM      1  O   UNL     1      -0.798  -0.780  26.378  0.00  0.00    -0.276 OA
ATOM      4  N   UNL     1      -1.501  -2.194  24.673  0.00  0.00    -0.312 N 
ATOM     16  C   UNL     1      -0.628  -1.304  25.280  0.00  0.00    +0.214 C 
ATOM     30  H   UNL     1      -1.300  -2.518  23.733  0.00  0.00    +0.149 HD
BRANCH   4  13
ATOM     13  C   UNL     1      -2.744  -2.619  25.279  0.00  0.00    +0.073 C 
ATOM     14  C   UNL     1      -3.379  -1.482  26.087  0.00  0.00    +0.022 C 
ATOM     15  C   UNL     1      -3.714  -3.160  24.224  0.00  0.00    +0.022 C 
ATOM     17  C   UNL     1      -3.953  -0.381  25.196  0.00  0.00    +0.002 C 
ATOM     18  C   UNL     1      -4.288  -2.055  23.336  0.00  0.00    +0.002 C 
ATOM     19  C   UNL     1      -4.925  -0.942  24.163  0.00  0.00    +0.000 C 
ENDBRANCH   4  13
ENDBRANCH  10  16
ENDBRANCH   6  10
BRANCH   7  12
ATOM     12  C   UNL     1       0.917   1.925  24.905  0.00  0.00    +0.064 C 
BRANCH  12  20
ATOM      2  O   UNL     1      -1.750   4.335  25.119  0.00  0.00    -0.354 OA
ATOM      5  N   UNL     1      -0.409   3.993  24.990  0.00  0.00    -0.083 NA
ATOM     20  C   UNL     1      -0.389   2.656  25.021  0.00  0.00    +0.085 A 
ATOM     21  C   UNL     1      -1.675   2.107  25.167  0.00  0.00    +0.076 A 
ATOM     22  C   UNL     1      -2.493   3.204  25.223  0.00  0.00    +0.167 A 
BRANCH  22  23
ATOM     23  C   UNL     1      -3.906   3.401  25.364  0.00  0.00    +0.020 A 
ATOM     24  C   UNL     1      -4.752   2.302  25.520  0.00  0.00    +0.011 A 
ATOM     25  C   UNL     1      -4.436   4.691  25.343  0.00  0.00    +0.011 A 
ATOM     26  C   UNL     1      -6.126   2.493  25.656  0.00  0.00    +0.001 A 
ATOM     27  C   UNL     1      -5.812   4.882  25.480  0.00  0.00    +0.001 A 
ATOM     28  C   UNL     1      -6.656   3.783  25.637  0.00  0.00    +0.000 A 
ENDBRANCH  22  23
ENDBRANCH  12  20
ENDBRANCH   7  12
TORSDOF 6
ENDMDL
MODEL 4
REMARK VINA RESULT:      -1.0      3.144      5.484
REMARK  Name = 40777363
REMARK  6 active torsions:
REMARK  status: ('A' for Active; 'I' for Inactive)
REMARK    1  A    between atoms: N_4  and  C_13
REMARK    2  A    between atoms: C_6  and  C_10
REMARK    3  A    between atoms: C_7  and  C_12
REMARK    4  A    between atoms: C_10  and  C_16
REMARK    5  A    between atoms: C_12  and  C_20
REMARK    6  A    between atoms: C_22  and  C_23
REMARK                            x       y       z     vdW  Elec       q    Type
REMARK                         _______ _______ _______ _____ _____    ______ ____
ROOT
ATOM      3  N   UNL     1      -1.683  -2.502  24.576  0.00  0.00    -0.316 NA
ATOM      6  C   UNL     1      -3.972  -0.727  24.012  0.00  0.00    +0.004 C 
ATOM      7  C   UNL     1      -2.513  -0.344  23.668  0.00  0.00    +0.012 C 
ATOM      8  C   UNL     1      -4.089  -2.259  24.070  0.00  0.00    +0.019 C 
ATOM      9  C   UNL     1      -1.508  -1.049  24.594  0.00  0.00    +0.085 C 
ATOM     11  C   UNL     1      -3.034  -2.891  24.976  0.00  0.00    +0.081 C 
ATOM     29  H   UNL     1      -1.007  -2.932  25.206  0.00  0.00    +0.122 HD
ENDROOT
BRANCH   6  10
ATOM     10  C   UNL     1      -4.495  -0.090  25.305  0.00  0.00    +0.099 C 
BRANCH  10  16
ATOM      1  O   UNL     1      -6.220   1.433  24.558  0.00  0.00    -0.276 OA
ATOM      4  N   UNL     1      -4.269   2.286  25.488  0.00  0.00    -0.312 N 
ATOM     16  C   UNL     1      -5.113   1.271  25.065  0.00  0.00    +0.214 C 
ATOM     30  H   UNL     1      -3.402   2.045  25.957  0.00  0.00    +0.149 HD
BRANCH   4  13
ATOM     13  C   UNL     1      -4.603   3.690  25.377  0.00  0.00    +0.073 C 
ATOM     14  C   UNL     1      -4.055   4.481  26.569  0.00  0.00    +0.022 C 
ATOM     15  C   UNL     1      -4.107   4.270  24.049  0.00  0.00    +0.022 C 
ATOM     17  C   UNL     1      -2.535   4.630  26.524  0.00  0.00    +0.002 C 
ATOM     18  C   UNL     1      -2.586   4.420  24.008  0.00  0.00    +0.002 C 
ATOM     19  C   UNL     1      -2.067   5.222  25.197  0.00  0.00    +0.000 C 
ENDBRANCH   4  13
ENDBRANCH  10  16
ENDBRANCH   6  10
BRANCH   7  12
ATOM     12  C   UNL     1      -2.275   1.166  23.666  0.00  0.00    +0.064 C 
BRANCH  12  20
ATOM      2  O   UNL     1       0.865   2.091  25.167  0.00  0.00    -0.354 OA
ATOM      5  N   UNL     1       0.072   1.775  24.070  0.00  0.00    -0.083 NA
ATOM     20  C   UNL     1      -1.142   1.542  24.577  0.00  0.00    +0.085 A 
ATOM     21  C   UNL     1      -1.175   1.695  25.974  0.00  0.00    +0.076 A 
ATOM     22  C   UNL     1       0.111   2.040  26.295  0.00  0.00    +0.167 A 
BRANCH  22  23
ATOM     23  C   UNL     1       0.798   2.345  27.515  0.00  0.00    +0.020 A 
ATOM     24  C   UNL     1       2.104   2.834  27.478  0.00  0.00    +0.011 A 
ATOM     25  C   UNL     1       0.161   2.152  28.741  0.00  0.00    +0.011 A 
ATOM     26  C   UNL     1       2.773   3.129  28.665  0.00  0.00    +0.001 A 
ATOM     27  C   UNL     1       0.830   2.448  29.929  0.00  0.00    +0.001 A 
ATOM     28  C   UNL     1       2.135   2.938  29.891  0.00  0.00    +0.000 A 
ENDBRANCH  22  23
ENDBRANCH  12  20
ENDBRANCH   7  12
TORSDOF 6
ENDMDL
MODEL 5
REMARK VINA RESULT:      -0.7      1.829      2.602
REMARK  Name = 40777363
REMARK  6 active torsions:
REMARK  status: ('A' for Active; 'I' for Inactive)
REMARK    1  A    between atoms: N_4  and  C_13
REMARK    2  A    between atoms: C_6  and  C_10
REMARK    3  A    between atoms: C_7  and  C_12
REMARK    4  A    between atoms: C_10  and  C_16
REMARK    5  A    between atoms: C_12  and  C_20
REMARK    6  A    between atoms: C_22  and  C_23
REMARK                            x       y       z     vdW  Elec       q    Type
REMARK                         _______ _______ _______ _____ _____    ______ ____
ROOT
ATOM      3  N   UNL     1      -2.504   5.904  24.215  0.00  0.00    -0.316 NA
ATOM      6  C   UNL     1      -4.349   3.809  25.171  0.00  0.00    +0.004 C 
ATOM      7  C   UNL     1      -2.984   4.091  25.843  0.00  0.00    +0.012 C 
ATOM      8  C   UNL     1      -4.821   5.077  24.440  0.00  0.00    +0.019 C 
ATOM      9  C   UNL     1      -1.977   4.697  24.851  0.00  0.00    +0.085 C 
ATOM     11  C   UNL     1      -3.754   5.643  23.504  0.00  0.00    +0.081 C 
ATOM     29  H   UNL     1      -1.814   6.270  23.560  0.00  0.00    +0.122 HD
ENDROOT
BRANCH   6  10
ATOM     10  C   UNL     1      -4.338   2.604  24.222  0.00  0.00    +0.099 C 
BRANCH  10  16
ATOM      1  O   UNL     1      -5.666   1.237  25.713  0.00  0.00    -0.276 OA
ATOM      4  N   UNL     1      -3.898   0.274  24.552  0.00  0.00    -0.312 N 
ATOM     16  C   UNL     1      -4.730   1.320  24.921  0.00  0.00    +0.214 C 
ATOM     30  H   UNL     1      -3.194   0.431  23.838  0.00  0.00    +0.149 HD
BRANCH   4  13
ATOM     13  C   UNL     1      -4.040  -1.070  25.070  0.00  0.00    +0.073 C 
ATOM     14  C   UNL     1      -3.606  -2.108  24.030  0.00  0.00    +0.022 C 
ATOM     15  C   UNL     1      -3.266  -1.240  26.381  0.00  0.00    +0.022 C 
ATOM     17  C   UNL     1      -2.092  -2.130  23.820  0.00  0.00    +0.002 C 
ATOM     18  C   UNL     1      -1.752  -1.263  26.167  0.00  0.00    +0.002 C 
ATOM     19  C   UNL     1      -1.345  -2.313  25.138  0.00  0.00    +0.000 C 
ENDBRANCH   4  13
ENDBRANCH  10  16
ENDBRANCH   6  10
BRANCH   7  12
ATOM     12  C   UNL     1      -2.389   2.862  26.531  0.00  0.00    +0.064 C 
BRANCH  12  20
ATOM      2  O   UNL     1       1.008   2.163  25.562  0.00  0.00    -0.354 OA
ATOM      5  N   UNL     1       0.061   2.702  26.426  0.00  0.00    -0.083 NA
ATOM     20  C   UNL     1      -1.119   2.423  25.863  0.00  0.00    +0.085 A 
ATOM     21  C   UNL     1      -0.980   1.718  24.655  0.00  0.00    +0.076 A 
ATOM     22  C   UNL     1       0.376   1.579  24.512  0.00  0.00    +0.167 A 
BRANCH  22  23
ATOM     23  C   UNL     1       1.229   0.976  23.531  0.00  0.00    +0.020 A 
ATOM     24  C   UNL     1       0.716   0.021  22.652  0.00  0.00    +0.011 A 
ATOM     25  C   UNL     1       2.573   1.343  23.455  0.00  0.00    +0.011 A 
ATOM     26  C   UNL     1       1.546  -0.566  21.698  0.00  0.00    +0.001 A 
ATOM     27  C   UNL     1       3.403   0.755  22.500  0.00  0.00    +0.001 A 
ATOM     28  C   UNL     1       2.890  -0.198  21.621  0.00  0.00    +0.000 A 
ENDBRANCH  22  23
ENDBRANCH  12  20
ENDBRANCH   7  12
TORSDOF 6
ENDMDL
