MODEL 1
REMARK VINA RESULT:      -5.4      0.000      0.000
REMARK  Name = 40778249
REMARK  9 active torsions:
REMARK  status: ('A' for Active; 'I' for Inactive)
REMARK    1  A    between atoms: O_2  and  C_10
REMARK    2  A    between atoms: O_3  and  C_11
REMARK    3  A    between atoms: N_6  and  C_15
REMARK    4  A    between atoms: N_7  and  C_18
REMARK    5  A    between atoms: N_8  and  C_20
REMARK    6  A    between atoms: C_12  and  C_14
REMARK    7  A    between atoms: C_13  and  C_15
REMARK    8  A    between atoms: C_14  and  C_16
REMARK    9  A    between atoms: C_18  and  C_19
REMARK                            x       y       z     vdW  Elec       q    Type
REMARK                         _______ _______ _______ _____ _____    ______ ____
ROOT
ATOM      1  O   UNL     1      -3.107   3.461  23.351  0.00  0.00    -0.366 OA
ATOM     10  C   UNL     1      -2.773   3.420  25.684  0.00  0.00    +0.175 C 
ATOM     11  C   UNL     1      -1.414   3.341  25.018  0.00  0.00    +0.176 C 
ATOM     12  C   UNL     1      -3.622   4.015  24.574  0.00  0.00    +0.158 C 
ATOM     13  C   UNL     1      -1.783   2.936  23.595  0.00  0.00    +0.167 C 
ENDROOT
BRANCH  10   2
ATOM      2  O   UNL     1      -2.780   4.222  26.845  0.00  0.00    -0.387 OA
ATOM     30  H   UNL     1      -3.606   4.737  26.839  0.00  0.00    +0.210 HD
ENDBRANCH  10   2
BRANCH  11   3
ATOM      3  O   UNL     1      -0.812   4.634  24.968  0.00  0.00    -0.387 OA
ATOM     31  H   UNL     1       0.094   4.519  24.633  0.00  0.00    +0.210 HD
ENDBRANCH  11   3
BRANCH  12  14
ATOM     14  C   UNL     1      -5.098   3.685  24.703  0.00  0.00    +0.130 C 
BRANCH  14  16
ATOM      4  O   UNL     1      -5.847   2.323  26.557  0.00  0.00    -0.276 OA
ATOM      7  N   UNL     1      -4.924   1.289  24.691  0.00  0.00    -0.311 N 
ATOM     16  C   UNL     1      -5.342   2.380  25.439  0.00  0.00    +0.216 C 
ATOM     33  H   UNL     1      -4.492   1.453  23.786  0.00  0.00    +0.149 HD
BRANCH   7  18
ATOM     18  C   UNL     1      -5.037  -0.076  25.154  0.00  0.00    +0.141 C 
BRANCH  18  19
ATOM      9  N   UNL     1      -1.434  -0.951  25.896  0.00  0.00    -0.263 NA
ATOM     19  C   UNL     1      -3.718  -0.792  25.120  0.00  0.00    -0.012 A 
ATOM     21  C   UNL     1      -3.534  -1.914  24.321  0.00  0.00    +0.008 A 
ATOM     22  C   UNL     1      -2.647  -0.354  25.882  0.00  0.00    +0.115 A 
ATOM     25  C   UNL     1      -2.300  -2.557  24.309  0.00  0.00    +0.020 A 
ATOM     28  C   UNL     1      -1.292  -2.040  25.107  0.00  0.00    +0.111 A 
ENDBRANCH  18  19
ENDBRANCH   7  18
ENDBRANCH  14  16
ENDBRANCH  12  14
BRANCH  13  15
ATOM     15  C   UNL     1      -1.837   1.426  23.401  0.00  0.00    +0.140 C 
BRANCH  15   6
ATOM      5  O   UNL     1       0.689   1.138  24.719  0.00  0.00    -0.253 OA
ATOM      6  N   UNL     1      -0.621   0.933  22.823  0.00  0.00    -0.297 N 
ATOM      8  N   UNL     1       1.595   0.311  22.718  0.00  0.00    -0.269 N 
ATOM     17  C   UNL     1       0.583   0.820  23.536  0.00  0.00    +0.304 C 
ATOM     32  H   UNL     1      -0.637   0.640  21.852  0.00  0.00    +0.150 HD
ATOM     34  H   UNL     1       1.340   0.098  21.756  0.00  0.00    +0.156 HD
BRANCH   8  20
ATOM     20  C   UNL     1       2.943   0.052  23.060  0.00  0.00    +0.035 A 
ATOM     23  C   UNL     1       3.309  -1.202  23.549  0.00  0.00    +0.023 A 
ATOM     24  C   UNL     1       3.906   1.051  22.910  0.00  0.00    +0.023 A 
ATOM     26  C   UNL     1       4.639  -1.457  23.886  0.00  0.00    +0.002 A 
ATOM     27  C   UNL     1       5.234   0.795  23.248  0.00  0.00    +0.002 A 
ATOM     29  C   UNL     1       5.601  -0.458  23.736  0.00  0.00    +0.000 A 
ENDBRANCH   8  20
ENDBRANCH  15   6
ENDBRANCH  13  15
TORSDOF 9
ENDMDL
MODEL 2
REMARK VINA RESULT:      -4.2      1.587      6.256
REMARK  Name = 40778249
REMARK  9 active torsions:
REMARK  status: ('A' for Active; 'I' for Inactive)
REMARK    1  A    between atoms: O_2  and  C_10
REMARK    2  A    between atoms: O_3  and  C_11
REMARK    3  A    between atoms: N_6  and  C_15
REMARK    4  A    between atoms: N_7  and  C_18
REMARK    5  A    between atoms: N_8  and  C_20
REMARK    6  A    between atoms: C_12  and  C_14
REMARK    7  A    between atoms: C_13  and  C_15
REMARK    8  A    between atoms: C_14  and  C_16
REMARK    9  A    between atoms: C_18  and  C_19
REMARK                            x       y       z     vdW  Elec       q    Type
REMARK                         _______ _______ _______ _____ _____    ______ ____
ROOT
ATOM      1  O   UNL     1      -1.864   3.561  26.412  0.00  0.00    -0.366 OA
ATOM     10  C   UNL     1      -0.993   3.608  24.221  0.00  0.00    +0.175 C 
ATOM     11  C   UNL     1      -1.695   4.927  24.472  0.00  0.00    +0.176 C 
ATOM     12  C   UNL     1      -0.730   3.129  25.639  0.00  0.00    +0.158 C 
ATOM     13  C   UNL     1      -2.557   4.602  25.686  0.00  0.00    +0.167 C 
ENDROOT
BRANCH  10   2
ATOM      2  O   UNL     1       0.199   3.741  23.478  0.00  0.00    -0.387 OA
ATOM     30  H   UNL     1       0.622   2.866  23.446  0.00  0.00    +0.210 HD
ENDBRANCH  10   2
BRANCH  11   3
ATOM      3  O   UNL     1      -0.750   5.926  24.855  0.00  0.00    -0.387 OA
ATOM     31  H   UNL     1       0.089   5.717  24.410  0.00  0.00    +0.210 HD
ENDBRANCH  11   3
BRANCH  12  14
ATOM     14  C   UNL     1      -0.582   1.622  25.747  0.00  0.00    +0.130 C 
BRANCH  14  16
ATOM      4  O   UNL     1      -0.971   0.340  23.733  0.00  0.00    -0.276 OA
ATOM      7  N   UNL     1       1.148   1.208  24.133  0.00  0.00    -0.311 N 
ATOM     16  C   UNL     1      -0.187   0.979  24.430  0.00  0.00    +0.216 C 
ATOM     33  H   UNL     1       1.715   1.727  24.798  0.00  0.00    +0.149 HD
BRANCH   7  18
ATOM     18  C   UNL     1       1.789   0.706  22.939  0.00  0.00    +0.141 C 
BRANCH  18  19
ATOM      9  N   UNL     1       4.582  -1.659  23.889  0.00  0.00    -0.263 NA
ATOM     19  C   UNL     1       3.168   0.184  23.216  0.00  0.00    -0.012 A 
ATOM     21  C   UNL     1       4.285   1.000  23.077  0.00  0.00    +0.008 A 
ATOM     22  C   UNL     1       3.368  -1.126  23.621  0.00  0.00    +0.115 A 
ATOM     25  C   UNL     1       5.550   0.488  23.342  0.00  0.00    +0.020 A 
ATOM     28  C   UNL     1       5.644  -0.835  23.742  0.00  0.00    +0.111 A 
ENDBRANCH  18  19
ENDBRANCH   7  18
ENDBRANCH  14  16
ENDBRANCH  12  14
BRANCH  13  15
ATOM     15  C   UNL     1      -3.936   4.071  25.314  0.00  0.00    +0.140 C 
BRANCH  15   6
ATOM      5  O   UNL     1      -3.507   1.742  23.703  0.00  0.00    -0.253 OA
ATOM      6  N   UNL     1      -4.094   2.707  25.722  0.00  0.00    -0.297 N 
ATOM      8  N   UNL     1      -4.096   0.409  25.543  0.00  0.00    -0.269 N 
ATOM     17  C   UNL     1      -3.863   1.612  24.872  0.00  0.00    +0.304 C 
ATOM     32  H   UNL     1      -4.374   2.523  26.680  0.00  0.00    +0.150 HD
ATOM     34  H   UNL     1      -4.388   0.477  26.515  0.00  0.00    +0.156 HD
BRANCH   8  20
ATOM     20  C   UNL     1      -3.976  -0.906  25.036  0.00  0.00    +0.035 A 
ATOM     23  C   UNL     1      -3.226  -1.855  25.731  0.00  0.00    +0.023 A 
ATOM     24  C   UNL     1      -4.607  -1.255  23.841  0.00  0.00    +0.023 A 
ATOM     26  C   UNL     1      -3.108  -3.153  25.231  0.00  0.00    +0.002 A 
ATOM     27  C   UNL     1      -4.489  -2.551  23.342  0.00  0.00    +0.002 A 
ATOM     29  C   UNL     1      -3.739  -3.500  24.036  0.00  0.00    +0.000 A 
ENDBRANCH   8  20
ENDBRANCH  15   6
ENDBRANCH  13  15
TORSDOF 9
ENDMDL
MODEL 3
REMARK VINA RESULT:      -3.9      1.973      4.132
REMARK  Name = 40778249
REMARK  9 active torsions:
REMARK  status: ('A' for Active; 'I' for Inactive)
REMARK    1  A    between atoms: O_2  and  C_10
REMARK    2  A    between atoms: O_3  and  C_11
REMARK    3  A    between atoms: N_6  and  C_15
REMARK    4  A    between atoms: N_7  and  C_18
REMARK    5  A    between atoms: N_8  and  C_20
REMARK    6  A    between atoms: C_12  and  C_14
REMARK    7  A    between atoms: C_13  and  C_15
REMARK    8  A    between atoms: C_14  and  C_16
REMARK    9  A    between atoms: C_18  and  C_19
REMARK                            x       y       z     vdW  Elec       q    Type
REMARK                         _______ _______ _______ _____ _____    ______ ____
ROOT
ATOM      1  O   UNL     1      -3.134   0.422  25.313  0.00  0.00    -0.366 OA
ATOM     10  C   UNL     1      -4.160  -1.125  23.860  0.00  0.00    +0.175 C 
ATOM     11  C   UNL     1      -2.719  -1.553  24.054  0.00  0.00    +0.176 C 
ATOM     12  C   UNL     1      -4.385  -0.250  25.080  0.00  0.00    +0.158 C 
ATOM     13  C   UNL     1      -2.085  -0.285  24.613  0.00  0.00    +0.167 C 
ENDROOT
BRANCH  10   2
ATOM      2  O   UNL     1      -5.063  -2.209  23.811  0.00  0.00    -0.387 OA
ATOM     30  H   UNL     1      -5.948  -1.860  24.014  0.00  0.00    +0.210 HD
ENDBRANCH  10   2
BRANCH  11   3
ATOM      3  O   UNL     1      -2.635  -2.568  25.055  0.00  0.00    -0.387 OA
ATOM     31  H   UNL     1      -2.216  -2.170  25.837  0.00  0.00    +0.210 HD
ENDBRANCH  11   3
BRANCH  12  14
ATOM     14  C   UNL     1      -5.488   0.775  24.891  0.00  0.00    +0.130 C 
BRANCH  14  16
ATOM      4  O   UNL     1      -4.760   2.732  23.668  0.00  0.00    -0.276 OA
ATOM      7  N   UNL     1      -4.718   2.766  25.992  0.00  0.00    -0.311 N 
ATOM     16  C   UNL     1      -4.953   2.189  24.753  0.00  0.00    +0.216 C 
ATOM     33  H   UNL     1      -4.886   2.214  26.829  0.00  0.00    +0.149 HD
BRANCH   7  18
ATOM     18  C   UNL     1      -4.204   4.108  26.153  0.00  0.00    +0.141 C 
BRANCH  18  19
ATOM      9  N   UNL     1      -0.543   3.236  25.788  0.00  0.00    -0.263 NA
ATOM     19  C   UNL     1      -2.758   4.207  25.767  0.00  0.00    -0.012 A 
ATOM     21  C   UNL     1      -2.279   5.304  25.059  0.00  0.00    +0.008 A 
ATOM     22  C   UNL     1      -1.858   3.209  26.104  0.00  0.00    +0.115 A 
ATOM     25  C   UNL     1      -0.933   5.368  24.716  0.00  0.00    +0.020 A 
ATOM     28  C   UNL     1      -0.114   4.318  25.100  0.00  0.00    +0.111 A 
ENDBRANCH  18  19
ENDBRANCH   7  18
ENDBRANCH  14  16
ENDBRANCH  12  14
BRANCH  13  15
ATOM     15  C   UNL     1      -1.543   0.638  23.529  0.00  0.00    +0.140 C 
BRANCH  15   6
ATOM      5  O   UNL     1       1.058   1.010  24.669  0.00  0.00    -0.253 OA
ATOM      6  N   UNL     1      -0.301   0.150  23.006  0.00  0.00    -0.297 N 
ATOM      8  N   UNL     1       1.971  -0.218  22.890  0.00  0.00    -0.269 N 
ATOM     17  C   UNL     1       0.940   0.374  23.624  0.00  0.00    +0.304 C 
ATOM     32  H   UNL     1      -0.324  -0.395  22.151  0.00  0.00    +0.150 HD
ATOM     34  H   UNL     1       1.701  -0.713  22.042  0.00  0.00    +0.156 HD
BRANCH   8  20
ATOM     20  C   UNL     1       3.355  -0.218  23.179  0.00  0.00    +0.035 A 
ATOM     23  C   UNL     1       4.121   0.919  22.924  0.00  0.00    +0.023 A 
ATOM     24  C   UNL     1       3.956  -1.356  23.719  0.00  0.00    +0.023 A 
ATOM     26  C   UNL     1       5.487   0.920  23.210  0.00  0.00    +0.002 A 
ATOM     27  C   UNL     1       5.321  -1.356  24.004  0.00  0.00    +0.002 A 
ATOM     29  C   UNL     1       6.086  -0.218  23.749  0.00  0.00    +0.000 A 
ENDBRANCH   8  20
ENDBRANCH  15   6
ENDBRANCH  13  15
TORSDOF 9
ENDMDL
MODEL 4
REMARK VINA RESULT:      -1.6      2.367      6.663
REMARK  Name = 40778249
REMARK  9 active torsions:
REMARK  status: ('A' for Active; 'I' for Inactive)
REMARK    1  A    between atoms: O_2  and  C_10
REMARK    2  A    between atoms: O_3  and  C_11
REMARK    3  A    between atoms: N_6  and  C_15
REMARK    4  A    between atoms: N_7  and  C_18
REMARK    5  A    between atoms: N_8  and  C_20
REMARK    6  A    between atoms: C_12  and  C_14
REMARK    7  A    between atoms: C_13  and  C_15
REMARK    8  A    between atoms: C_14  and  C_16
REMARK    9  A    between atoms: C_18  and  C_19
REMARK                            x       y       z     vdW  Elec       q    Type
REMARK                         _______ _______ _______ _____ _____    ______ ____
ROOT
ATOM      1  O   UNL     1      -2.720  -0.905  23.724  0.00  0.00    -0.366 OA
ATOM     10  C   UNL     1      -3.015  -2.484  25.450  0.00  0.00    +0.175 C 
ATOM     11  C   UNL     1      -4.120  -2.693  24.434  0.00  0.00    +0.176 C 
ATOM     12  C   UNL     1      -1.976  -1.747  24.623  0.00  0.00    +0.158 C 
ATOM     13  C   UNL     1      -4.082  -1.385  23.652  0.00  0.00    +0.167 C 
ENDROOT
BRANCH  10   2
ATOM      2  O   UNL     1      -2.510  -3.690  25.982  0.00  0.00    -0.387 OA
ATOM     30  H   UNL     1      -2.123  -3.486  26.851  0.00  0.00    +0.210 HD
ENDBRANCH  10   2
BRANCH  11   3
ATOM      3  O   UNL     1      -3.778  -3.752  23.541  0.00  0.00    -0.387 OA
ATOM     31  H   UNL     1      -3.777  -4.577  24.056  0.00  0.00    +0.210 HD
ENDBRANCH  11   3
BRANCH  12  14
ATOM     14  C   UNL     1      -1.034  -0.898  25.457  0.00  0.00    +0.130 C 
BRANCH  14  16
ATOM      4  O   UNL     1      -0.017   1.211  24.851  0.00  0.00    -0.276 OA
ATOM      7  N   UNL     1       0.411  -0.668  23.552  0.00  0.00    -0.311 N 
ATOM     16  C   UNL     1      -0.168   0.016  24.610  0.00  0.00    +0.216 C 
ATOM     33  H   UNL     1       0.194  -1.653  23.429  0.00  0.00    +0.149 HD
BRANCH   7  18
ATOM     18  C   UNL     1       1.282  -0.038  22.586  0.00  0.00    +0.141 C 
BRANCH  18  19
ATOM      9  N   UNL     1       4.533  -1.462  23.890  0.00  0.00    -0.263 NA
ATOM     19  C   UNL     1       2.727  -0.136  22.982  0.00  0.00    -0.012 A 
ATOM     21  C   UNL     1       3.587   0.946  22.830  0.00  0.00    +0.008 A 
ATOM     22  C   UNL     1       3.244  -1.307  23.512  0.00  0.00    +0.115 A 
ATOM     25  C   UNL     1       4.920   0.825  23.207  0.00  0.00    +0.020 A 
ATOM     28  C   UNL     1       5.340  -0.389  23.727  0.00  0.00    +0.111 A 
ENDBRANCH  18  19
ENDBRANCH   7  18
ENDBRANCH  14  16
ENDBRANCH  12  14
BRANCH  13  15
ATOM     15  C   UNL     1      -4.985  -0.310  24.243  0.00  0.00    +0.140 C 
BRANCH  15   6
ATOM      5  O   UNL     1      -3.648   1.987  23.178  0.00  0.00    -0.253 OA
ATOM      6  N   UNL     1      -4.227   0.657  24.980  0.00  0.00    -0.297 N 
ATOM      8  N   UNL     1      -2.934   2.529  25.347  0.00  0.00    -0.269 N 
ATOM     17  C   UNL     1      -3.597   1.763  24.385  0.00  0.00    +0.304 C 
ATOM     32  H   UNL     1      -4.152   0.542  25.985  0.00  0.00    +0.150 HD
ATOM     34  H   UNL     1      -2.991   2.203  26.309  0.00  0.00    +0.156 HD
BRANCH   8  20
ATOM     20  C   UNL     1      -2.186   3.714  25.150  0.00  0.00    +0.035 A 
ATOM     23  C   UNL     1      -2.752   4.953  25.449  0.00  0.00    +0.023 A 
ATOM     24  C   UNL     1      -0.883   3.643  24.657  0.00  0.00    +0.023 A 
ATOM     26  C   UNL     1      -2.014   6.122  25.256  0.00  0.00    +0.002 A 
ATOM     27  C   UNL     1      -0.146   4.811  24.463  0.00  0.00    +0.002 A 
ATOM     29  C   UNL     1      -0.711   6.050  24.762  0.00  0.00    +0.000 A 
ENDBRANCH   8  20
ENDBRANCH  15   6
ENDBRANCH  13  15
TORSDOF 9
ENDMDL
MODEL 5
REMARK VINA RESULT:      -1.5      1.398      2.030
REMARK  Name = 40778249
REMARK  9 active torsions:
REMARK  status: ('A' for Active; 'I' for Inactive)
REMARK    1  A    between atoms: O_2  and  C_10
REMARK    2  A    between atoms: O_3  and  C_11
REMARK    3  A    between atoms: N_6  and  C_15
REMARK    4  A    between atoms: N_7  and  C_18
REMARK    5  A    between atoms: N_8  and  C_20
REMARK    6  A    between atoms: C_12  and  C_14
REMARK    7  A    between atoms: C_13  and  C_15
REMARK    8  A    between atoms: C_14  and  C_16
REMARK    9  A    between atoms: C_18  and  C_19
REMARK                            x       y       z     vdW  Elec       q    Type
REMARK                         _______ _______ _______ _____ _____    ______ ____
ROOT
ATOM      1  O   UNL     1      -3.874   2.128  23.603  0.00  0.00    -0.366 OA
ATOM     10  C   UNL     1      -4.632   3.506  25.360  0.00  0.00    +0.175 C 
ATOM     11  C   UNL     1      -3.380   4.134  24.782  0.00  0.00    +0.176 C 
ATOM     12  C   UNL     1      -5.082   2.615  24.216  0.00  0.00    +0.158 C 
ATOM     13  C   UNL     1      -2.771   2.972  24.006  0.00  0.00    +0.167 C 
ENDROOT
BRANCH  10   2
ATOM      2  O   UNL     1      -5.618   4.450  25.716  0.00  0.00    -0.387 OA
ATOM     30  H   UNL     1      -5.202   5.096  26.313  0.00  0.00    +0.210 HD
ENDBRANCH  10   2
BRANCH  11   3
ATOM      3  O   UNL     1      -3.726   5.157  23.848  0.00  0.00    -0.387 OA
ATOM     31  H   UNL     1      -3.491   4.833  22.962  0.00  0.00    +0.210 HD
ENDBRANCH  11   3
BRANCH  12  14
ATOM     14  C   UNL     1      -5.935   1.443  24.665  0.00  0.00    +0.130 C 
BRANCH  14  16
ATOM      4  O   UNL     1      -4.575   0.100  26.148  0.00  0.00    -0.276 OA
ATOM      7  N   UNL     1      -5.034  -0.685  24.009  0.00  0.00    -0.311 N 
ATOM     16  C   UNL     1      -5.106   0.230  25.048  0.00  0.00    +0.216 C 
ATOM     33  H   UNL     1      -5.489  -0.462  23.128  0.00  0.00    +0.149 HD
BRANCH   7  18
ATOM     18  C   UNL     1      -4.305  -1.930  24.103  0.00  0.00    +0.141 C 
BRANCH  18  19
ATOM      9  N   UNL     1      -0.533  -1.790  24.325  0.00  0.00    -0.263 NA
ATOM     19  C   UNL     1      -2.926  -1.734  24.662  0.00  0.00    -0.012 A 
ATOM     21  C   UNL     1      -2.739  -1.334  25.981  0.00  0.00    +0.008 A 
ATOM     22  C   UNL     1      -1.801  -1.947  23.883  0.00  0.00    +0.115 A 
ATOM     25  C   UNL     1      -1.449  -1.161  26.472  0.00  0.00    +0.020 A 
ATOM     28  C   UNL     1      -0.390  -1.400  25.611  0.00  0.00    +0.111 A 
ENDBRANCH  18  19
ENDBRANCH   7  18
ENDBRANCH  14  16
ENDBRANCH  12  14
BRANCH  13  15
ATOM     15  C   UNL     1      -1.821   2.128  24.844  0.00  0.00    +0.140 C 
BRANCH  15   6
ATOM      5  O   UNL     1       0.990   1.872  25.330  0.00  0.00    -0.253 OA
ATOM      6  N   UNL     1      -0.867   1.446  24.019  0.00  0.00    -0.297 N 
ATOM      8  N   UNL     1       1.183   0.640  23.342  0.00  0.00    -0.269 N 
ATOM     17  C   UNL     1       0.501   1.363  24.324  0.00  0.00    +0.304 C 
ATOM     32  H   UNL     1      -1.203   0.990  23.177  0.00  0.00    +0.150 HD
ATOM     34  H   UNL     1       0.626   0.283  22.569  0.00  0.00    +0.156 HD
BRANCH   8  20
ATOM     20  C   UNL     1       2.563   0.337  23.286  0.00  0.00    +0.035 A 
ATOM     23  C   UNL     1       3.473   1.306  22.862  0.00  0.00    +0.023 A 
ATOM     24  C   UNL     1       3.016  -0.930  23.654  0.00  0.00    +0.023 A 
ATOM     26  C   UNL     1       4.835   1.008  22.808  0.00  0.00    +0.002 A 
ATOM     27  C   UNL     1       4.377  -1.228  23.599  0.00  0.00    +0.002 A 
ATOM     29  C   UNL     1       5.286  -0.259  23.176  0.00  0.00    +0.000 A 
ENDBRANCH   8  20
ENDBRANCH  15   6
ENDBRANCH  13  15
TORSDOF 9
ENDMDL
