MODEL 1
REMARK VINA RESULT:      -4.1      0.000      0.000
REMARK  Name = 51137192
REMARK  6 active torsions:
REMARK  status: ('A' for Active; 'I' for Inactive)
REMARK    1  A    between atoms: O_5  and  C_22
REMARK    2  A    between atoms: O_5  and  C_28
REMARK    3  A    between atoms: N_6  and  C_13
REMARK    4  A    between atoms: C_9  and  C_14
REMARK    5  A    between atoms: C_13  and  C_15
REMARK    6  A    between atoms: C_18  and  C_21
REMARK                            x       y       z     vdW  Elec       q    Type
REMARK                         _______ _______ _______ _____ _____    ______ ____
ROOT
ATOM      6  N   UNL     1      -8.509  -9.838  10.064  0.00  0.00    -0.297 NA
ATOM      9  C   UNL     1      -9.354 -10.172  12.226  0.00  0.00    +0.092 C 
ATOM     10  C   UNL     1     -10.349  -9.328  11.410  0.00  0.00    +0.029 C 
ATOM     11  C   UNL     1      -8.045 -10.113  11.426  0.00  0.00    +0.097 C 
ATOM     12  C   UNL     1      -9.547  -8.819  10.217  0.00  0.00    +0.085 C 
ENDROOT
BRANCH   9  14
ATOM      4  O   UNL     1      -8.104 -10.228  14.331  0.00  0.00    -0.420 OA
ATOM      7  N   UNL     1      -9.935  -8.944  14.391  0.00  0.00    -0.112 NA
ATOM      8  N   UNL     1      -9.331  -8.885  15.634  0.00  0.00    -0.107 NA
ATOM     14  C   UNL     1      -9.185  -9.739  13.664  0.00  0.00    +0.222 A 
ATOM     18  C   UNL     1      -8.267  -9.649  15.552  0.00  0.00    +0.248 A 
BRANCH  18  21
ATOM     21  C   UNL     1      -7.268  -9.962  16.533  0.00  0.00    +0.038 A 
ATOM     23  C   UNL     1      -5.934 -10.096  16.151  0.00  0.00    +0.013 A 
ATOM     24  C   UNL     1      -7.631 -10.130  17.869  0.00  0.00    +0.013 A 
ATOM     25  C   UNL     1      -4.961 -10.399  17.105  0.00  0.00    +0.001 A 
ATOM     26  C   UNL     1      -6.661 -10.434  18.823  0.00  0.00    +0.001 A 
ATOM     27  C   UNL     1      -5.326 -10.568  18.441  0.00  0.00    +0.000 A 
ENDBRANCH  18  21
ENDBRANCH   9  14
BRANCH   6  13
ATOM     13  C   UNL     1      -7.431  -9.403   9.188  0.00  0.00    +0.119 C 
BRANCH  13  15
ATOM     15  C   UNL     1      -6.077  -9.730   9.759  0.00  0.00    -0.033 A 
ATOM     16  C   UNL     1      -5.736  -9.294  11.039  0.00  0.00    +0.008 A 
ATOM     17  C   UNL     1      -5.165 -10.472   9.009  0.00  0.00    +0.008 A 
ATOM     19  C   UNL     1      -4.482  -9.600  11.569  0.00  0.00    +0.046 A 
ATOM     20  C   UNL     1      -3.912 -10.778   9.539  0.00  0.00    +0.046 A 
ATOM     22  C   UNL     1      -3.570 -10.342  10.819  0.00  0.00    +0.130 A 
BRANCH  22   5
ATOM      5  O   UNL     1      -2.347 -10.641  11.337  0.00  0.00    -0.406 OA
BRANCH   5  28
ATOM      1  F   UNL     1      -1.865  -8.496  10.827  0.00  0.00    -0.133 F 
ATOM      2  F   UNL     1      -1.212  -9.263  12.767  0.00  0.00    -0.133 F 
ATOM      3  F   UNL     1      -0.216  -9.928  10.910  0.00  0.00    -0.133 F 
ATOM     28  C   UNL     1      -1.397  -9.590  11.470  0.00  0.00    +0.575 C 
ENDBRANCH   5  28
ENDBRANCH  22   5
ENDBRANCH  13  15
ENDBRANCH   6  13
TORSDOF 6
ENDMDL
MODEL 2
REMARK VINA RESULT:      -3.1     14.605     17.156
REMARK  Name = 51137192
REMARK  6 active torsions:
REMARK  status: ('A' for Active; 'I' for Inactive)
REMARK    1  A    between atoms: O_5  and  C_22
REMARK    2  A    between atoms: O_5  and  C_28
REMARK    3  A    between atoms: N_6  and  C_13
REMARK    4  A    between atoms: C_9  and  C_14
REMARK    5  A    between atoms: C_13  and  C_15
REMARK    6  A    between atoms: C_18  and  C_21
REMARK                            x       y       z     vdW  Elec       q    Type
REMARK                         _______ _______ _______ _____ _____    ______ ____
ROOT
ATOM      6  N   UNL     1      -3.116   5.159  25.536  0.00  0.00    -0.297 NA
ATOM      9  C   UNL     1      -4.894   3.665  25.214  0.00  0.00    +0.092 C 
ATOM     10  C   UNL     1      -4.793   4.029  26.705  0.00  0.00    +0.029 C 
ATOM     11  C   UNL     1      -3.555   4.110  24.612  0.00  0.00    +0.097 C 
ATOM     12  C   UNL     1      -3.402   4.631  26.870  0.00  0.00    +0.085 C 
ENDROOT
BRANCH   9  14
ATOM      4  O   UNL     1      -4.160   1.346  24.921  0.00  0.00    -0.420 OA
ATOM      7  N   UNL     1      -6.366   1.640  24.700  0.00  0.00    -0.112 NA
ATOM      8  N   UNL     1      -6.093   0.297  24.512  0.00  0.00    -0.107 NA
ATOM     14  C   UNL     1      -5.210   2.213  24.936  0.00  0.00    +0.222 A 
ATOM     18  C   UNL     1      -4.794   0.173  24.650  0.00  0.00    +0.248 A 
BRANCH  18  21
ATOM     21  C   UNL     1      -3.955  -0.987  24.561  0.00  0.00    +0.038 A 
ATOM     23  C   UNL     1      -2.684  -0.973  25.132  0.00  0.00    +0.013 A 
ATOM     24  C   UNL     1      -4.413  -2.129  23.904  0.00  0.00    +0.013 A 
ATOM     25  C   UNL     1      -1.868  -2.103  25.047  0.00  0.00    +0.001 A 
ATOM     26  C   UNL     1      -3.598  -3.258  23.817  0.00  0.00    +0.001 A 
ATOM     27  C   UNL     1      -2.326  -3.244  24.389  0.00  0.00    +0.000 A 
ENDBRANCH  18  21
ENDBRANCH   9  14
BRANCH   6  13
ATOM     13  C   UNL     1      -1.712   5.499  25.365  0.00  0.00    +0.119 C 
BRANCH  13  15
ATOM     15  C   UNL     1      -0.888   4.300  24.974  0.00  0.00    -0.033 A 
ATOM     16  C   UNL     1      -0.760   3.226  25.854  0.00  0.00    +0.008 A 
ATOM     17  C   UNL     1      -0.256   4.263  23.732  0.00  0.00    +0.008 A 
ATOM     19  C   UNL     1       0.001   2.114  25.492  0.00  0.00    +0.046 A 
ATOM     20  C   UNL     1       0.505   3.152  23.369  0.00  0.00    +0.046 A 
ATOM     22  C   UNL     1       0.633   2.077  24.249  0.00  0.00    +0.130 A 
BRANCH  22   5
ATOM      5  O   UNL     1       1.375   0.992  23.894  0.00  0.00    -0.406 OA
BRANCH   5  28
ATOM      1  F   UNL     1       0.759  -1.179  23.934  0.00  0.00    -0.133 F 
ATOM      2  F   UNL     1      -0.560   0.244  22.928  0.00  0.00    -0.133 F 
ATOM      3  F   UNL     1       1.375  -0.320  22.021  0.00  0.00    -0.133 F 
ATOM     28  C   UNL     1       0.733  -0.057  23.179  0.00  0.00    +0.575 C 
ENDBRANCH   5  28
ENDBRANCH  22   5
ENDBRANCH  13  15
ENDBRANCH   6  13
TORSDOF 6
ENDMDL
MODEL 3
REMARK VINA RESULT:      -3.0      1.408      2.148
REMARK  Name = 51137192
REMARK  6 active torsions:
REMARK  status: ('A' for Active; 'I' for Inactive)
REMARK    1  A    between atoms: O_5  and  C_22
REMARK    2  A    between atoms: O_5  and  C_28
REMARK    3  A    between atoms: N_6  and  C_13
REMARK    4  A    between atoms: C_9  and  C_14
REMARK    5  A    between atoms: C_13  and  C_15
REMARK    6  A    between atoms: C_18  and  C_21
REMARK                            x       y       z     vdW  Elec       q    Type
REMARK                         _______ _______ _______ _____ _____    ______ ____
ROOT
ATOM      6  N   UNL     1      -7.901  -9.801  10.364  0.00  0.00    -0.297 NA
ATOM      9  C   UNL     1      -9.074 -10.256  12.343  0.00  0.00    +0.092 C 
ATOM     10  C   UNL     1     -10.069 -10.093  11.182  0.00  0.00    +0.029 C 
ATOM     11  C   UNL     1      -7.760  -9.664  11.816  0.00  0.00    +0.097 C 
ATOM     12  C   UNL     1      -9.278  -9.398  10.080  0.00  0.00    +0.085 C 
ENDROOT
BRANCH   9  14
ATOM      4  O   UNL     1      -9.219 -10.323  14.787  0.00  0.00    -0.420 OA
ATOM      7  N   UNL     1     -10.157  -8.513  13.866  0.00  0.00    -0.112 NA
ATOM      8  N   UNL     1     -10.310  -8.423  15.238  0.00  0.00    -0.107 NA
ATOM     14  C   UNL     1      -9.516  -9.637  13.649  0.00  0.00    +0.222 A 
ATOM     18  C   UNL     1      -9.748  -9.500  15.733  0.00  0.00    +0.248 A 
BRANCH  18  21
ATOM     21  C   UNL     1      -9.607  -9.935  17.093  0.00  0.00    +0.038 A 
ATOM     23  C   UNL     1     -10.720  -9.969  17.932  0.00  0.00    +0.013 A 
ATOM     24  C   UNL     1      -8.358 -10.324  17.574  0.00  0.00    +0.013 A 
ATOM     25  C   UNL     1     -10.583 -10.393  19.256  0.00  0.00    +0.001 A 
ATOM     26  C   UNL     1      -8.219 -10.747  18.896  0.00  0.00    +0.001 A 
ATOM     27  C   UNL     1      -9.332 -10.781  19.736  0.00  0.00    +0.000 A 
ENDBRANCH  18  21
ENDBRANCH   9  14
BRANCH   6  13
ATOM     13  C   UNL     1      -6.928  -9.002   9.634  0.00  0.00    +0.119 C 
BRANCH  13  15
ATOM     15  C   UNL     1      -5.515  -9.336  10.033  0.00  0.00    -0.033 A 
ATOM     16  C   UNL     1      -5.262 -10.445  10.840  0.00  0.00    +0.008 A 
ATOM     17  C   UNL     1      -4.459  -8.539   9.592  0.00  0.00    +0.008 A 
ATOM     19  C   UNL     1      -3.952 -10.756  11.206  0.00  0.00    +0.046 A 
ATOM     20  C   UNL     1      -3.150  -8.850   9.958  0.00  0.00    +0.046 A 
ATOM     22  C   UNL     1      -2.896  -9.959  10.766  0.00  0.00    +0.130 A 
BRANCH  22   5
ATOM      5  O   UNL     1      -1.618 -10.263  11.122  0.00  0.00    -0.406 OA
BRANCH   5  28
ATOM      1  F   UNL     1      -0.722  -9.259  12.934  0.00  0.00    -0.133 F 
ATOM      2  F   UNL     1       0.478  -9.347  11.109  0.00  0.00    -0.133 F 
ATOM      3  F   UNL     1      -1.273  -8.004  11.231  0.00  0.00    -0.133 F 
ATOM     28  C   UNL     1      -0.779  -9.210  11.583  0.00  0.00    +0.575 C 
ENDBRANCH   5  28
ENDBRANCH  22   5
ENDBRANCH  13  15
ENDBRANCH   6  13
TORSDOF 6
ENDMDL
MODEL 4
REMARK VINA RESULT:      -2.1     15.044     17.857
REMARK  Name = 51137192
REMARK  6 active torsions:
REMARK  status: ('A' for Active; 'I' for Inactive)
REMARK    1  A    between atoms: O_5  and  C_22
REMARK    2  A    between atoms: O_5  and  C_28
REMARK    3  A    between atoms: N_6  and  C_13
REMARK    4  A    between atoms: C_9  and  C_14
REMARK    5  A    between atoms: C_13  and  C_15
REMARK    6  A    between atoms: C_18  and  C_21
REMARK                            x       y       z     vdW  Elec       q    Type
REMARK                         _______ _______ _______ _____ _____    ______ ____
ROOT
ATOM      6  N   UNL     1      -1.664  -2.755  24.367  0.00  0.00    -0.297 NA
ATOM      9  C   UNL     1       0.081  -1.272  23.861  0.00  0.00    +0.092 C 
ATOM     10  C   UNL     1       0.429  -2.058  25.137  0.00  0.00    +0.029 C 
ATOM     11  C   UNL     1      -1.426  -1.490  23.668  0.00  0.00    +0.097 C 
ATOM     12  C   UNL     1      -0.895  -2.651  25.607  0.00  0.00    +0.085 C 
ENDROOT
BRANCH   9  14
ATOM      4  O   UNL     1      -0.476   1.064  24.347  0.00  0.00    -0.420 OA
ATOM      7  N   UNL     1       1.591   0.766  23.543  0.00  0.00    -0.112 NA
ATOM      8  N   UNL     1       1.412   2.118  23.771  0.00  0.00    -0.107 NA
ATOM     14  C   UNL     1       0.465   0.190  23.893  0.00  0.00    +0.222 A 
ATOM     18  C   UNL     1       0.193   2.244  24.239  0.00  0.00    +0.248 A 
BRANCH  18  21
ATOM     21  C   UNL     1      -0.531   3.414  24.648  0.00  0.00    +0.038 A 
ATOM     23  C   UNL     1      -1.476   3.327  25.669  0.00  0.00    +0.013 A 
ATOM     24  C   UNL     1      -0.288   4.637  24.025  0.00  0.00    +0.013 A 
ATOM     25  C   UNL     1      -2.179   4.465  26.068  0.00  0.00    +0.001 A 
ATOM     26  C   UNL     1      -0.991   5.775  24.422  0.00  0.00    +0.001 A 
ATOM     27  C   UNL     1      -1.936   5.688  25.444  0.00  0.00    +0.000 A 
ENDBRANCH  18  21
ENDBRANCH   9  14
BRANCH   6  13
ATOM     13  C   UNL     1      -3.078  -2.997  24.612  0.00  0.00    +0.119 C 
BRANCH  13  15
ATOM     15  C   UNL     1      -3.843  -1.713  24.798  0.00  0.00    -0.033 A 
ATOM     16  C   UNL     1      -4.719  -1.274  23.806  0.00  0.00    +0.008 A 
ATOM     17  C   UNL     1      -3.678  -0.965  25.963  0.00  0.00    +0.008 A 
ATOM     19  C   UNL     1      -5.431  -0.086  23.980  0.00  0.00    +0.046 A 
ATOM     20  C   UNL     1      -4.388   0.222  26.137  0.00  0.00    +0.046 A 
ATOM     22  C   UNL     1      -5.265   0.662  25.145  0.00  0.00    +0.130 A 
BRANCH  22   5
ATOM      5  O   UNL     1      -5.960   1.819  25.316  0.00  0.00    -0.406 OA
BRANCH   5  28
ATOM      1  F   UNL     1      -6.108   4.071  25.369  0.00  0.00    -0.133 F 
ATOM      2  F   UNL     1      -4.495   3.120  26.498  0.00  0.00    -0.133 F 
ATOM      3  F   UNL     1      -4.431   3.176  24.289  0.00  0.00    -0.133 F 
ATOM     28  C   UNL     1      -5.231   3.041  25.368  0.00  0.00    +0.575 C 
ENDBRANCH   5  28
ENDBRANCH  22   5
ENDBRANCH  13  15
ENDBRANCH   6  13
TORSDOF 6
ENDMDL
MODEL 5
REMARK VINA RESULT:      -1.6     14.426     16.893
REMARK  Name = 51137192
REMARK  6 active torsions:
REMARK  status: ('A' for Active; 'I' for Inactive)
REMARK    1  A    between atoms: O_5  and  C_22
REMARK    2  A    between atoms: O_5  and  C_28
REMARK    3  A    between atoms: N_6  and  C_13
REMARK    4  A    between atoms: C_9  and  C_14
REMARK    5  A    between atoms: C_13  and  C_15
REMARK    6  A    between atoms: C_18  and  C_21
REMARK                            x       y       z     vdW  Elec       q    Type
REMARK                         _______ _______ _______ _____ _____    ______ ____
ROOT
ATOM      6  N   UNL     1      -3.407  -2.214  24.932  0.00  0.00    -0.297 NA
ATOM      9  C   UNL     1      -4.712  -0.327  25.416  0.00  0.00    +0.092 C 
ATOM     10  C   UNL     1      -5.176  -0.945  24.086  0.00  0.00    +0.029 C 
ATOM     11  C   UNL     1      -3.337  -0.956  25.679  0.00  0.00    +0.097 C 
ATOM     12  C   UNL     1      -4.036  -1.863  23.660  0.00  0.00    +0.085 C 
ENDROOT
BRANCH   9  14
ATOM      4  O   UNL     1      -3.474   1.778  25.221  0.00  0.00    -0.420 OA
ATOM      7  N   UNL     1      -5.657   2.038  25.632  0.00  0.00    -0.112 NA
ATOM      8  N   UNL     1      -5.086   3.295  25.547  0.00  0.00    -0.107 NA
ATOM     14  C   UNL     1      -4.680   1.184  25.435  0.00  0.00    +0.222 A 
ATOM     18  C   UNL     1      -3.812   3.093  25.306  0.00  0.00    +0.248 A 
BRANCH  18  21
ATOM     21  C   UNL     1      -2.740   4.030  25.122  0.00  0.00    +0.038 A 
ATOM     23  C   UNL     1      -1.450   3.569  24.863  0.00  0.00    +0.013 A 
ATOM     24  C   UNL     1      -2.990   5.399  25.201  0.00  0.00    +0.013 A 
ATOM     25  C   UNL     1      -0.407   4.480  24.683  0.00  0.00    +0.001 A 
ATOM     26  C   UNL     1      -1.949   6.310  25.022  0.00  0.00    +0.001 A 
ATOM     27  C   UNL     1      -0.658   5.850  24.763  0.00  0.00    +0.000 A 
ENDBRANCH  18  21
ENDBRANCH   9  14
BRANCH   6  13
ATOM     13  C   UNL     1      -2.099  -2.827  24.754  0.00  0.00    +0.119 C 
BRANCH  13  15
ATOM     15  C   UNL     1      -1.065  -1.825  24.314  0.00  0.00    -0.033 A 
ATOM     16  C   UNL     1      -0.489  -1.927  23.048  0.00  0.00    +0.008 A 
ATOM     17  C   UNL     1      -0.685  -0.793  25.172  0.00  0.00    +0.008 A 
ATOM     19  C   UNL     1       0.468  -0.997  22.640  0.00  0.00    +0.046 A 
ATOM     20  C   UNL     1       0.271   0.136  24.765  0.00  0.00    +0.046 A 
ATOM     22  C   UNL     1       0.848   0.035  23.498  0.00  0.00    +0.130 A 
BRANCH  22   5
ATOM      5  O   UNL     1       1.780   0.943  23.100  0.00  0.00    -0.406 OA
BRANCH   5  28
ATOM      1  F   UNL     1       3.999   1.347  23.035  0.00  0.00    -0.133 F 
ATOM      2  F   UNL     1       3.338  -0.727  23.237  0.00  0.00    -0.133 F 
ATOM      3  F   UNL     1       3.086   0.345  21.320  0.00  0.00    -0.133 F 
ATOM     28  C   UNL     1       3.046   0.461  22.665  0.00  0.00    +0.575 C 
ENDBRANCH   5  28
ENDBRANCH  22   5
ENDBRANCH  13  15
ENDBRANCH   6  13
TORSDOF 6
ENDMDL
MODEL 6
REMARK VINA RESULT:      -1.4     14.900     17.611
REMARK  Name = 51137192
REMARK  6 active torsions:
REMARK  status: ('A' for Active; 'I' for Inactive)
REMARK    1  A    between atoms: O_5  and  C_22
REMARK    2  A    between atoms: O_5  and  C_28
REMARK    3  A    between atoms: N_6  and  C_13
REMARK    4  A    between atoms: C_9  and  C_14
REMARK    5  A    between atoms: C_13  and  C_15
REMARK    6  A    between atoms: C_18  and  C_21
REMARK                            x       y       z     vdW  Elec       q    Type
REMARK                         _______ _______ _______ _____ _____    ______ ____
ROOT
ATOM      6  N   UNL     1      -4.120   4.165  25.517  0.00  0.00    -0.297 NA
ATOM      9  C   UNL     1      -1.841   4.087  26.061  0.00  0.00    +0.092 C 
ATOM     10  C   UNL     1      -2.070   5.139  24.963  0.00  0.00    +0.029 C 
ATOM     11  C   UNL     1      -3.123   3.245  26.069  0.00  0.00    +0.097 C 
ATOM     12  C   UNL     1      -3.448   4.819  24.394  0.00  0.00    +0.085 C 
ENDROOT
BRANCH   9  14
ATOM      4  O   UNL     1      -0.453   2.585  24.713  0.00  0.00    -0.420 OA
ATOM      7  N   UNL     1       0.409   3.068  26.720  0.00  0.00    -0.112 NA
ATOM      8  N   UNL     1       1.287   2.219  26.071  0.00  0.00    -0.107 NA
ATOM     14  C   UNL     1      -0.591   3.254  25.891  0.00  0.00    +0.222 A 
ATOM     18  C   UNL     1       0.743   1.965  24.904  0.00  0.00    +0.248 A 
BRANCH  18  21
ATOM     21  C   UNL     1       1.207   1.148  23.819  0.00  0.00    +0.038 A 
ATOM     23  C   UNL     1       2.532   1.239  23.396  0.00  0.00    +0.013 A 
ATOM     24  C   UNL     1       0.332   0.263  23.190  0.00  0.00    +0.013 A 
ATOM     25  C   UNL     1       2.983   0.444  22.341  0.00  0.00    +0.001 A 
ATOM     26  C   UNL     1       0.781  -0.531  22.135  0.00  0.00    +0.001 A 
ATOM     27  C   UNL     1       2.108  -0.440  21.711  0.00  0.00    +0.000 A 
ENDBRANCH  18  21
ENDBRANCH   9  14
BRANCH   6  13
ATOM     13  C   UNL     1      -5.340   3.484  25.111  0.00  0.00    +0.119 C 
BRANCH  13  15
ATOM     15  C   UNL     1      -5.082   2.052  24.723  0.00  0.00    -0.033 A 
ATOM     16  C   UNL     1      -3.928   1.720  24.013  0.00  0.00    +0.008 A 
ATOM     17  C   UNL     1      -5.994   1.058  25.076  0.00  0.00    +0.008 A 
ATOM     19  C   UNL     1      -3.688   0.393  23.656  0.00  0.00    +0.046 A 
ATOM     20  C   UNL     1      -5.754  -0.268  24.719  0.00  0.00    +0.046 A 
ATOM     22  C   UNL     1      -4.600  -0.601  24.009  0.00  0.00    +0.130 A 
BRANCH  22   5
ATOM      5  O   UNL     1      -4.365  -1.896  23.662  0.00  0.00    -0.406 OA
BRANCH   5  28
ATOM      1  F   UNL     1      -3.880  -3.959  24.439  0.00  0.00    -0.133 F 
ATOM      2  F   UNL     1      -2.219  -2.598  24.029  0.00  0.00    -0.133 F 
ATOM      3  F   UNL     1      -3.542  -2.255  25.766  0.00  0.00    -0.133 F 
ATOM     28  C   UNL     1      -3.490  -2.664  24.480  0.00  0.00    +0.575 C 
ENDBRANCH   5  28
ENDBRANCH  22   5
ENDBRANCH  13  15
ENDBRANCH   6  13
TORSDOF 6
ENDMDL
MODEL 7
REMARK VINA RESULT:      -1.2     15.145     18.018
REMARK  Name = 51137192
REMARK  6 active torsions:
REMARK  status: ('A' for Active; 'I' for Inactive)
REMARK    1  A    between atoms: O_5  and  C_22
REMARK    2  A    between atoms: O_5  and  C_28
REMARK    3  A    between atoms: N_6  and  C_13
REMARK    4  A    between atoms: C_9  and  C_14
REMARK    5  A    between atoms: C_13  and  C_15
REMARK    6  A    between atoms: C_18  and  C_21
REMARK                            x       y       z     vdW  Elec       q    Type
REMARK                         _______ _______ _______ _____ _____    ______ ____
ROOT
ATOM      6  N   UNL     1      -0.291   4.748  24.860  0.00  0.00    -0.297 NA
ATOM      9  C   UNL     1       0.685   2.653  24.466  0.00  0.00    +0.092 C 
ATOM     10  C   UNL     1       0.864   3.544  23.226  0.00  0.00    +0.029 C 
ATOM     11  C   UNL     1      -0.399   3.354  25.297  0.00  0.00    +0.097 C 
ATOM     12  C   UNL     1      -0.139   4.678  23.407  0.00  0.00    +0.085 C 
ENDROOT
BRANCH   9  14
ATOM      4  O   UNL     1      -0.937   0.821  24.356  0.00  0.00    -0.420 OA
ATOM      7  N   UNL     1       1.135   0.243  23.743  0.00  0.00    -0.112 NA
ATOM      8  N   UNL     1       0.329  -0.876  23.634  0.00  0.00    -0.107 NA
ATOM     14  C   UNL     1       0.354   1.209  24.167  0.00  0.00    +0.222 A 
ATOM     18  C   UNL     1      -0.870  -0.491  24.001  0.00  0.00    +0.248 A 
BRANCH  18  21
ATOM     21  C   UNL     1      -2.099  -1.228  24.085  0.00  0.00    +0.038 A 
ATOM     23  C   UNL     1      -2.101  -2.522  24.603  0.00  0.00    +0.013 A 
ATOM     24  C   UNL     1      -3.289  -0.648  23.649  0.00  0.00    +0.013 A 
ATOM     25  C   UNL     1      -3.297  -3.238  24.685  0.00  0.00    +0.001 A 
ATOM     26  C   UNL     1      -4.484  -1.363  23.730  0.00  0.00    +0.001 A 
ATOM     27  C   UNL     1      -4.487  -2.658  24.248  0.00  0.00    +0.000 A 
ENDBRANCH  18  21
ENDBRANCH   9  14
BRANCH   6  13
ATOM     13  C   UNL     1      -1.442   5.545  25.258  0.00  0.00    +0.119 C 
BRANCH  13  15
ATOM     15  C   UNL     1      -2.716   4.741  25.236  0.00  0.00    -0.033 A 
ATOM     16  C   UNL     1      -3.410   4.502  26.421  0.00  0.00    +0.008 A 
ATOM     17  C   UNL     1      -3.203   4.239  24.029  0.00  0.00    +0.008 A 
ATOM     19  C   UNL     1      -4.591   3.760  26.400  0.00  0.00    +0.046 A 
ATOM     20  C   UNL     1      -4.383   3.498  24.008  0.00  0.00    +0.046 A 
ATOM     22  C   UNL     1      -5.078   3.258  25.194  0.00  0.00    +0.130 A 
BRANCH  22   5
ATOM      5  O   UNL     1      -6.231   2.536  25.173  0.00  0.00    -0.406 OA
BRANCH   5  28
ATOM      1  F   UNL     1      -6.756   0.388  24.718  0.00  0.00    -0.133 F 
ATOM      2  F   UNL     1      -4.924   0.782  25.844  0.00  0.00    -0.133 F 
ATOM      3  F   UNL     1      -6.900   1.065  26.792  0.00  0.00    -0.133 F 
ATOM     28  C   UNL     1      -6.194   1.195  25.648  0.00  0.00    +0.575 C 
ENDBRANCH   5  28
ENDBRANCH  22   5
ENDBRANCH  13  15
ENDBRANCH   6  13
TORSDOF 6
ENDMDL
MODEL 8
REMARK VINA RESULT:      -1.2     15.527     17.870
REMARK  Name = 51137192
REMARK  6 active torsions:
REMARK  status: ('A' for Active; 'I' for Inactive)
REMARK    1  A    between atoms: O_5  and  C_22
REMARK    2  A    between atoms: O_5  and  C_28
REMARK    3  A    between atoms: N_6  and  C_13
REMARK    4  A    between atoms: C_9  and  C_14
REMARK    5  A    between atoms: C_13  and  C_15
REMARK    6  A    between atoms: C_18  and  C_21
REMARK                            x       y       z     vdW  Elec       q    Type
REMARK                         _______ _______ _______ _____ _____    ______ ____
ROOT
ATOM      6  N   UNL     1      -3.310  -1.266  24.873  0.00  0.00    -0.297 NA
ATOM      9  C   UNL     1      -1.198  -1.736  23.969  0.00  0.00    +0.092 C 
ATOM     10  C   UNL     1      -1.101  -1.691  25.503  0.00  0.00    +0.029 C 
ATOM     11  C   UNL     1      -2.540  -1.066  23.643  0.00  0.00    +0.097 C 
ATOM     12  C   UNL     1      -2.370  -0.979  25.957  0.00  0.00    +0.085 C 
ENDROOT
BRANCH   9  14
ATOM      4  O   UNL     1       1.183  -1.174  23.849  0.00  0.00    -0.420 OA
ATOM      7  N   UNL     1      -0.008  -0.483  22.086  0.00  0.00    -0.112 NA
ATOM      8  N   UNL     1       1.307  -0.103  21.889  0.00  0.00    -0.107 NA
ATOM     14  C   UNL     1      -0.033  -1.104  23.241  0.00  0.00    +0.222 A 
ATOM     18  C   UNL     1       1.965  -0.527  22.942  0.00  0.00    +0.248 A 
BRANCH  18  21
ATOM     21  C   UNL     1       3.355  -0.416  23.278  0.00  0.00    +0.038 A 
ATOM     23  C   UNL     1       4.024  -1.501  23.843  0.00  0.00    +0.013 A 
ATOM     24  C   UNL     1       4.037   0.777  23.038  0.00  0.00    +0.013 A 
ATOM     25  C   UNL     1       5.377  -1.393  24.169  0.00  0.00    +0.001 A 
ATOM     26  C   UNL     1       5.389   0.886  23.365  0.00  0.00    +0.001 A 
ATOM     27  C   UNL     1       6.058  -0.200  23.930  0.00  0.00    +0.000 A 
ENDBRANCH  18  21
ENDBRANCH   9  14
BRANCH   6  13
ATOM     13  C   UNL     1      -4.494  -0.423  24.930  0.00  0.00    +0.119 C 
BRANCH  13  15
ATOM     15  C   UNL     1      -4.149   1.039  24.820  0.00  0.00    -0.033 A 
ATOM     16  C   UNL     1      -4.859   1.980  25.565  0.00  0.00    +0.008 A 
ATOM     17  C   UNL     1      -3.118   1.451  23.977  0.00  0.00    +0.008 A 
ATOM     19  C   UNL     1      -4.538   3.334  25.465  0.00  0.00    +0.046 A 
ATOM     20  C   UNL     1      -2.796   2.804  23.877  0.00  0.00    +0.046 A 
ATOM     22  C   UNL     1      -3.506   3.746  24.622  0.00  0.00    +0.130 A 
BRANCH  22   5
ATOM      5  O   UNL     1      -3.191   5.067  24.526  0.00  0.00    -0.406 OA
BRANCH   5  28
ATOM      1  F   UNL     1      -1.636   4.788  26.137  0.00  0.00    -0.133 F 
ATOM      2  F   UNL     1      -0.949   5.273  24.119  0.00  0.00    -0.133 F 
ATOM      3  F   UNL     1      -1.956   6.804  25.355  0.00  0.00    -0.133 F 
ATOM     28  C   UNL     1      -1.929   5.496  25.022  0.00  0.00    +0.575 C 
ENDBRANCH   5  28
ENDBRANCH  22   5
ENDBRANCH  13  15
ENDBRANCH   6  13
TORSDOF 6
ENDMDL
MODEL 9
REMARK VINA RESULT:      -1.2     14.574     17.123
REMARK  Name = 51137192
REMARK  6 active torsions:
REMARK  status: ('A' for Active; 'I' for Inactive)
REMARK    1  A    between atoms: O_5  and  C_22
REMARK    2  A    between atoms: O_5  and  C_28
REMARK    3  A    between atoms: N_6  and  C_13
REMARK    4  A    between atoms: C_9  and  C_14
REMARK    5  A    between atoms: C_13  and  C_15
REMARK    6  A    between atoms: C_18  and  C_21
REMARK                            x       y       z     vdW  Elec       q    Type
REMARK                         _______ _______ _______ _____ _____    ______ ____
ROOT
ATOM      6  N   UNL     1      -5.016   2.837  25.057  0.00  0.00    -0.297 NA
ATOM      9  C   UNL     1      -2.901   3.842  25.174  0.00  0.00    +0.092 C 
ATOM     10  C   UNL     1      -3.559   4.184  23.826  0.00  0.00    +0.029 C 
ATOM     11  C   UNL     1      -3.722   2.665  25.720  0.00  0.00    +0.097 C 
ATOM     12  C   UNL     1      -4.689   3.174  23.672  0.00  0.00    +0.085 C 
ENDROOT
BRANCH   9  14
ATOM      4  O   UNL     1      -1.038   2.536  24.268  0.00  0.00    -0.420 OA
ATOM      7  N   UNL     1      -0.421   4.115  25.727  0.00  0.00    -0.112 NA
ATOM      8  N   UNL     1       0.720   3.460  25.299  0.00  0.00    -0.107 NA
ATOM     14  C   UNL     1      -1.421   3.543  25.100  0.00  0.00    +0.222 A 
ATOM     18  C   UNL     1       0.311   2.547  24.450  0.00  0.00    +0.248 A 
BRANCH  18  21
ATOM     21  C   UNL     1       1.054   1.578  23.696  0.00  0.00    +0.038 A 
ATOM     23  C   UNL     1       2.421   1.757  23.487  0.00  0.00    +0.013 A 
ATOM     24  C   UNL     1       0.409   0.458  23.174  0.00  0.00    +0.013 A 
ATOM     25  C   UNL     1       3.144   0.814  22.754  0.00  0.00    +0.001 A 
ATOM     26  C   UNL     1       1.130  -0.484  22.440  0.00  0.00    +0.001 A 
ATOM     27  C   UNL     1       2.497  -0.306  22.231  0.00  0.00    +0.000 A 
ENDBRANCH  18  21
ENDBRANCH   9  14
BRANCH   6  13
ATOM     13  C   UNL     1      -5.852   1.650  25.155  0.00  0.00    +0.119 C 
BRANCH  13  15
ATOM     15  C   UNL     1      -5.042   0.383  25.065  0.00  0.00    -0.033 A 
ATOM     16  C   UNL     1      -5.047  -0.365  23.888  0.00  0.00    +0.008 A 
ATOM     17  C   UNL     1      -4.284  -0.039  26.157  0.00  0.00    +0.008 A 
ATOM     19  C   UNL     1      -4.293  -1.536  23.803  0.00  0.00    +0.046 A 
ATOM     20  C   UNL     1      -3.532  -1.210  26.073  0.00  0.00    +0.046 A 
ATOM     22  C   UNL     1      -3.536  -1.959  24.896  0.00  0.00    +0.130 A 
BRANCH  22   5
ATOM      5  O   UNL     1      -2.800  -3.101  24.813  0.00  0.00    -0.406 OA
BRANCH   5  28
ATOM      1  F   UNL     1      -1.150  -1.696  24.183  0.00  0.00    -0.133 F 
ATOM      2  F   UNL     1      -0.602  -3.480  25.322  0.00  0.00    -0.133 F 
ATOM      3  F   UNL     1      -1.256  -3.655  23.218  0.00  0.00    -0.133 F 
ATOM     28  C   UNL     1      -1.447  -3.000  24.384  0.00  0.00    +0.575 C 
ENDBRANCH   5  28
ENDBRANCH  22   5
ENDBRANCH  13  15
ENDBRANCH   6  13
TORSDOF 6
ENDMDL
