MODEL 1
REMARK VINA RESULT:      -4.5      0.000      0.000
REMARK  Name = 7049332
REMARK  9 active torsions:
REMARK  status: ('A' for Active; 'I' for Inactive)
REMARK    1  A    between atoms: O_1  and  C_13
REMARK    2  A    between atoms: O_2  and  C_15
REMARK    3  A    between atoms: O_3  and  C_16
REMARK    4  A    between atoms: N_8  and  C_12
REMARK    5  A    between atoms: N_9  and  C_23
REMARK    6  A    between atoms: C_11  and  C_19
REMARK    7  A    between atoms: C_21  and  C_22
REMARK    8  A    between atoms: C_23  and  C_24
REMARK    9  A    between atoms: C_23  and  C_25
REMARK                            x       y       z     vdW  Elec       q    Type
REMARK                         _______ _______ _______ _____ _____    ______ ____
ROOT
ATOM     12  C   UNL     1      -1.306   0.644  25.482  0.00  0.00    +0.127 C 
ATOM     13  C   UNL     1      -2.019  -0.719  25.386  0.00  0.00    +0.167 C 
ATOM     15  C   UNL     1      -1.015  -1.871  25.244  0.00  0.00    +0.149 C 
ATOM     18  C   UNL     1      -0.077  -1.675  24.040  0.00  0.00    +0.074 C 
ATOM     20  C   UNL     1      -0.186   0.799  24.488  0.00  0.00    +0.006 C 
ATOM     21  C   UNL     1       0.350  -0.248  23.844  0.00  0.00    +0.015 C 
ENDROOT
BRANCH  12   8
ATOM      4  O   UNL     1      -2.163   1.871  22.995  0.00  0.00    -0.274 OA
ATOM      8  N   UNL     1      -2.229   1.739  25.319  0.00  0.00    -0.305 N 
ATOM     19  C   UNL     1      -2.580   2.261  24.083  0.00  0.00    +0.231 C 
ATOM     27  H   UNL     1      -2.599   2.180  26.157  0.00  0.00    +0.149 HD
BRANCH  19  11
ATOM      7  N   UNL     1      -4.833   2.881  23.625  0.00  0.00    -0.303 NA
ATOM     11  C   UNL     1      -3.573   3.374  24.196  0.00  0.00    +0.143 C 
ATOM     14  C   UNL     1      -3.858   3.748  25.648  0.00  0.00    +0.060 C 
ATOM     16  C   UNL     1      -5.305   3.333  25.885  0.00  0.00    +0.130 C 
ATOM     17  C   UNL     1      -5.612   2.363  24.760  0.00  0.00    +0.113 C 
ATOM     26  H   UNL     1      -4.690   2.169  22.912  0.00  0.00    +0.123 HD
BRANCH  16   3
ATOM      3  O   UNL     1      -6.168   4.460  25.777  0.00  0.00    -0.390 OA
ATOM     30  H   UNL     1      -5.736   5.202  26.233  0.00  0.00    +0.210 HD
ENDBRANCH  16   3
ENDBRANCH  19  11
ENDBRANCH  12   8
BRANCH  21  22
ATOM      5  O   UNL     1       1.281  -0.130  21.690  0.00  0.00    -0.271 OA
ATOM      9  N   UNL     1       2.600   0.445  23.523  0.00  0.00    -0.301 N 
ATOM     22  C   UNL     1       1.439   0.023  22.900  0.00  0.00    +0.240 C 
ATOM     31  H   UNL     1       2.619   0.532  24.536  0.00  0.00    +0.150 HD
BRANCH   9  23
ATOM     23  C   UNL     1       3.810   0.771  22.803  0.00  0.00    +0.156 C 
ATOM     24  C   UNL     1       3.698   0.377  21.338  0.00  0.00    +0.038 C 
BRANCH  23  25
ATOM      6  O   UNL     1       6.096   0.535  23.587  0.00  0.00    -0.274 OA
ATOM     10  N   UNL     1       4.619  -1.180  23.979  0.00  0.00    -0.328 N 
ATOM     25  C   UNL     1       4.971   0.053  23.472  0.00  0.00    +0.231 C 
ATOM     32  H   UNL     1       5.298  -1.759  24.461  0.00  0.00    +0.145 HD
ATOM     33  H   UNL     1       3.679  -1.556  23.894  0.00  0.00    +0.145 HD
ENDBRANCH  23  25
ENDBRANCH   9  23
ENDBRANCH  21  22
BRANCH  13   1
ATOM      1  O   UNL     1      -2.890  -0.727  24.253  0.00  0.00    -0.387 OA
ATOM     28  H   UNL     1      -3.588  -0.070  24.415  0.00  0.00    +0.210 HD
ENDBRANCH  13   1
BRANCH  15   2
ATOM      2  O   UNL     1      -0.253  -2.008  26.442  0.00  0.00    -0.389 OA
ATOM     29  H   UNL     1       0.352  -2.759  26.321  0.00  0.00    +0.210 HD
ENDBRANCH  15   2
TORSDOF 8
ENDMDL
MODEL 2
REMARK VINA RESULT:      -4.2      1.330      7.497
REMARK  Name = 7049332
REMARK  9 active torsions:
REMARK  status: ('A' for Active; 'I' for Inactive)
REMARK    1  A    between atoms: O_1  and  C_13
REMARK    2  A    between atoms: O_2  and  C_15
REMARK    3  A    between atoms: O_3  and  C_16
REMARK    4  A    between atoms: N_8  and  C_12
REMARK    5  A    between atoms: N_9  and  C_23
REMARK    6  A    between atoms: C_11  and  C_19
REMARK    7  A    between atoms: C_21  and  C_22
REMARK    8  A    between atoms: C_23  and  C_24
REMARK    9  A    between atoms: C_23  and  C_25
REMARK                            x       y       z     vdW  Elec       q    Type
REMARK                         _______ _______ _______ _____ _____    ______ ____
ROOT
ATOM     12  C   UNL     1      -0.276  -0.737  23.539  0.00  0.00    +0.127 C 
ATOM     13  C   UNL     1      -0.656  -1.762  24.626  0.00  0.00    +0.167 C 
ATOM     15  C   UNL     1      -2.094  -1.551  25.120  0.00  0.00    +0.149 C 
ATOM     18  C   UNL     1      -2.325  -0.119  25.633  0.00  0.00    +0.074 C 
ATOM     20  C   UNL     1      -0.714   0.665  23.866  0.00  0.00    +0.006 C 
ATOM     21  C   UNL     1      -1.627   0.928  24.812  0.00  0.00    +0.015 C 
ENDROOT
BRANCH  12   8
ATOM      4  O   UNL     1       1.055  -0.423  20.979  0.00  0.00    -0.274 OA
ATOM      8  N   UNL     1       1.143  -0.735  23.285  0.00  0.00    -0.305 N 
ATOM     19  C   UNL     1       1.688  -0.577  22.020  0.00  0.00    +0.231 C 
ATOM     27  H   UNL     1       1.769  -0.908  24.067  0.00  0.00    +0.149 HD
BRANCH  19  11
ATOM      7  N   UNL     1       3.626   0.749  21.622  0.00  0.00    -0.303 NA
ATOM     11  C   UNL     1       3.185  -0.587  22.040  0.00  0.00    +0.143 C 
ATOM     14  C   UNL     1       3.742  -0.823  23.441  0.00  0.00    +0.060 C 
ATOM     16  C   UNL     1       4.415   0.489  23.823  0.00  0.00    +0.130 C 
ATOM     17  C   UNL     1       3.832   1.509  22.865  0.00  0.00    +0.113 C 
ATOM     26  H   UNL     1       2.959   1.210  21.007  0.00  0.00    +0.123 HD
BRANCH  16   3
ATOM      3  O   UNL     1       5.821   0.403  23.615  0.00  0.00    -0.390 OA
ATOM     30  H   UNL     1       6.103   1.231  23.190  0.00  0.00    +0.210 HD
ENDBRANCH  16   3
ENDBRANCH  19  11
ENDBRANCH  12   8
BRANCH  21  22
ATOM      5  O   UNL     1      -1.110   3.198  25.125  0.00  0.00    -0.271 OA
ATOM      9  N   UNL     1      -3.344   2.536  25.149  0.00  0.00    -0.301 N 
ATOM     22  C   UNL     1      -1.979   2.333  25.041  0.00  0.00    +0.240 C 
ATOM     31  H   UNL     1      -3.974   1.743  25.068  0.00  0.00    +0.150 HD
BRANCH   9  23
ATOM     23  C   UNL     1      -3.933   3.836  25.378  0.00  0.00    +0.156 C 
ATOM     24  C   UNL     1      -3.306   4.517  26.584  0.00  0.00    +0.038 C 
BRANCH  23  25
ATOM      6  O   UNL     1      -6.219   4.585  25.713  0.00  0.00    -0.274 OA
ATOM     10  N   UNL     1      -5.818   2.331  25.531  0.00  0.00    -0.328 N 
ATOM     25  C   UNL     1      -5.430   3.653  25.573  0.00  0.00    +0.231 C 
ATOM     32  H   UNL     1      -6.793   2.070  25.637  0.00  0.00    +0.145 HD
ATOM     33  H   UNL     1      -5.157   1.572  25.395  0.00  0.00    +0.145 HD
ENDBRANCH  23  25
ENDBRANCH   9  23
ENDBRANCH  21  22
BRANCH  13   1
ATOM      1  O   UNL     1       0.234  -1.636  25.737  0.00  0.00    -0.387 OA
ATOM     28  H   UNL     1      -0.279  -1.286  26.485  0.00  0.00    +0.210 HD
ENDBRANCH  13   1
BRANCH  15   2
ATOM      2  O   UNL     1      -3.020  -1.853  24.078  0.00  0.00    -0.389 OA
ATOM     29  H   UNL     1      -2.894  -2.785  23.834  0.00  0.00    +0.210 HD
ENDBRANCH  15   2
TORSDOF 8
ENDMDL
MODEL 3
REMARK VINA RESULT:      -3.6      1.511      7.379
REMARK  Name = 7049332
REMARK  9 active torsions:
REMARK  status: ('A' for Active; 'I' for Inactive)
REMARK    1  A    between atoms: O_1  and  C_13
REMARK    2  A    between atoms: O_2  and  C_15
REMARK    3  A    between atoms: O_3  and  C_16
REMARK    4  A    between atoms: N_8  and  C_12
REMARK    5  A    between atoms: N_9  and  C_23
REMARK    6  A    between atoms: C_11  and  C_19
REMARK    7  A    between atoms: C_21  and  C_22
REMARK    8  A    between atoms: C_23  and  C_24
REMARK    9  A    between atoms: C_23  and  C_25
REMARK                            x       y       z     vdW  Elec       q    Type
REMARK                         _______ _______ _______ _____ _____    ______ ____
ROOT
ATOM     12  C   UNL     1      -0.517  -0.818  23.715  0.00  0.00    +0.127 C 
ATOM     13  C   UNL     1      -0.606  -1.962  24.744  0.00  0.00    +0.167 C 
ATOM     15  C   UNL     1      -2.044  -2.476  24.891  0.00  0.00    +0.149 C 
ATOM     18  C   UNL     1      -3.025  -1.349  25.262  0.00  0.00    +0.074 C 
ATOM     20  C   UNL     1      -1.619   0.196  23.858  0.00  0.00    +0.006 C 
ATOM     21  C   UNL     1      -2.734  -0.052  24.561  0.00  0.00    +0.015 C 
ENDROOT
BRANCH  12   8
ATOM      4  O   UNL     1       1.396  -0.435  21.565  0.00  0.00    -0.274 OA
ATOM      8  N   UNL     1       0.753  -0.139  23.784  0.00  0.00    -0.305 N 
ATOM     19  C   UNL     1       1.604  -0.006  22.697  0.00  0.00    +0.231 C 
ATOM     27  H   UNL     1       1.058   0.213  24.688  0.00  0.00    +0.149 HD
BRANCH  19  11
ATOM      7  N   UNL     1       3.353   0.216  24.297  0.00  0.00    -0.303 NA
ATOM     11  C   UNL     1       2.842   0.763  23.035  0.00  0.00    +0.143 C 
ATOM     14  C   UNL     1       3.940   0.577  21.991  0.00  0.00    +0.060 C 
ATOM     16  C   UNL     1       5.036  -0.201  22.707  0.00  0.00    +0.130 C 
ATOM     17  C   UNL     1       4.350  -0.799  23.920  0.00  0.00    +0.113 C 
ATOM     26  H   UNL     1       2.620  -0.178  24.882  0.00  0.00    +0.123 HD
BRANCH  16   3
ATOM      3  O   UNL     1       6.066   0.681  23.142  0.00  0.00    -0.390 OA
ATOM     30  H   UNL     1       5.646   1.525  23.378  0.00  0.00    +0.210 HD
ENDBRANCH  16   3
ENDBRANCH  19  11
ENDBRANCH  12   8
BRANCH  21  22
ATOM      5  O   UNL     1      -4.895   0.768  24.985  0.00  0.00    -0.271 OA
ATOM      9  N   UNL     1      -3.249   2.247  24.256  0.00  0.00    -0.301 N 
ATOM     22  C   UNL     1      -3.743   1.010  24.629  0.00  0.00    +0.240 C 
ATOM     31  H   UNL     1      -2.275   2.331  23.974  0.00  0.00    +0.150 HD
BRANCH   9  23
ATOM     23  C   UNL     1      -4.054   3.448  24.240  0.00  0.00    +0.156 C 
ATOM     24  C   UNL     1      -3.280   4.618  23.655  0.00  0.00    +0.038 C 
BRANCH  23  25
ATOM      6  O   UNL     1      -3.727   4.090  26.559  0.00  0.00    -0.274 OA
ATOM     10  N   UNL     1      -5.858   3.628  25.839  0.00  0.00    -0.328 N 
ATOM     25  C   UNL     1      -4.495   3.744  25.665  0.00  0.00    +0.231 C 
ATOM     32  H   UNL     1      -6.286   3.809  26.741  0.00  0.00    +0.145 HD
ATOM     33  H   UNL     1      -6.483   3.360  25.084  0.00  0.00    +0.145 HD
ENDBRANCH  23  25
ENDBRANCH   9  23
ENDBRANCH  21  22
BRANCH  13   1
ATOM      1  O   UNL     1      -0.150  -1.500  26.017  0.00  0.00    -0.387 OA
ATOM     28  H   UNL     1       0.718  -1.085  25.884  0.00  0.00    +0.210 HD
ENDBRANCH  13   1
BRANCH  15   2
ATOM      2  O   UNL     1      -2.464  -3.114  23.687  0.00  0.00    -0.389 OA
ATOM     29  H   UNL     1      -1.673  -3.267  23.144  0.00  0.00    +0.210 HD
ENDBRANCH  15   2
TORSDOF 8
ENDMDL
MODEL 4
REMARK VINA RESULT:      -3.0      1.843      2.588
REMARK  Name = 7049332
REMARK  9 active torsions:
REMARK  status: ('A' for Active; 'I' for Inactive)
REMARK    1  A    between atoms: O_1  and  C_13
REMARK    2  A    between atoms: O_2  and  C_15
REMARK    3  A    between atoms: O_3  and  C_16
REMARK    4  A    between atoms: N_8  and  C_12
REMARK    5  A    between atoms: N_9  and  C_23
REMARK    6  A    between atoms: C_11  and  C_19
REMARK    7  A    between atoms: C_21  and  C_22
REMARK    8  A    between atoms: C_23  and  C_24
REMARK    9  A    between atoms: C_23  and  C_25
REMARK                            x       y       z     vdW  Elec       q    Type
REMARK                         _______ _______ _______ _____ _____    ______ ____
ROOT
ATOM     12  C   UNL     1      -3.782  -0.842  25.406  0.00  0.00    +0.127 C 
ATOM     13  C   UNL     1      -4.275  -1.996  24.513  0.00  0.00    +0.167 C 
ATOM     15  C   UNL     1      -3.304  -3.185  24.543  0.00  0.00    +0.149 C 
ATOM     18  C   UNL     1      -1.875  -2.775  24.145  0.00  0.00    +0.074 C 
ATOM     20  C   UNL     1      -2.312  -0.558  25.254  0.00  0.00    +0.006 C 
ATOM     21  C   UNL     1      -1.470  -1.430  24.680  0.00  0.00    +0.015 C 
ENDROOT
BRANCH  12   8
ATOM      4  O   UNL     1      -3.099   1.288  23.556  0.00  0.00    -0.274 OA
ATOM      8  N   UNL     1      -4.519   0.373  25.159  0.00  0.00    -0.305 N 
ATOM     19  C   UNL     1      -4.112   1.337  24.250  0.00  0.00    +0.231 C 
ATOM     27  H   UNL     1      -5.350   0.549  25.717  0.00  0.00    +0.149 HD
BRANCH  19  11
ATOM      7  N   UNL     1      -6.274   2.087  24.909  0.00  0.00    -0.303 NA
ATOM     11  C   UNL     1      -5.070   2.484  24.169  0.00  0.00    +0.143 C 
ATOM     14  C   UNL     1      -4.525   3.740  24.843  0.00  0.00    +0.060 C 
ATOM     16  C   UNL     1      -5.418   3.954  26.058  0.00  0.00    +0.130 C 
ATOM     17  C   UNL     1      -6.098   2.615  26.272  0.00  0.00    +0.113 C 
ATOM     26  H   UNL     1      -6.420   1.080  24.914  0.00  0.00    +0.123 HD
BRANCH  16   3
ATOM      3  O   UNL     1      -6.407   4.939  25.779  0.00  0.00    -0.390 OA
ATOM     30  H   UNL     1      -5.959   5.802  25.754  0.00  0.00    +0.210 HD
ENDBRANCH  16   3
ENDBRANCH  19  11
ENDBRANCH  12   8
BRANCH  21  22
ATOM      5  O   UNL     1       0.829  -1.802  24.989  0.00  0.00    -0.271 OA
ATOM      9  N   UNL     1       0.129   0.203  24.029  0.00  0.00    -0.301 N 
ATOM     22  C   UNL     1      -0.057  -1.049  24.589  0.00  0.00    +0.240 C 
ATOM     31  H   UNL     1      -0.681   0.743  23.737  0.00  0.00    +0.150 HD
BRANCH   9  23
ATOM     23  C   UNL     1       1.432   0.797  23.838  0.00  0.00    +0.156 C 
ATOM     24  C   UNL     1       1.323   2.297  23.616  0.00  0.00    +0.038 C 
BRANCH  23  25
ATOM      6  O   UNL     1       1.479  -0.308  21.676  0.00  0.00    -0.274 OA
ATOM     10  N   UNL     1       3.469   0.069  22.759  0.00  0.00    -0.328 N 
ATOM     25  C   UNL     1       2.095   0.118  22.650  0.00  0.00    +0.231 C 
ATOM     32  H   UNL     1       4.035  -0.349  22.028  0.00  0.00    +0.145 HD
ATOM     33  H   UNL     1       3.966   0.444  23.561  0.00  0.00    +0.145 HD
ENDBRANCH  23  25
ENDBRANCH   9  23
ENDBRANCH  21  22
BRANCH  13   1
ATOM      1  O   UNL     1      -4.400  -1.541  23.164  0.00  0.00    -0.387 OA
ATOM     28  H   UNL     1      -4.162  -2.281  22.582  0.00  0.00    +0.210 HD
ENDBRANCH  13   1
BRANCH  15   2
ATOM      2  O   UNL     1      -3.298  -3.781  25.839  0.00  0.00    -0.389 OA
ATOM     29  H   UNL     1      -2.483  -4.304  25.919  0.00  0.00    +0.210 HD
ENDBRANCH  15   2
TORSDOF 8
ENDMDL
MODEL 5
REMARK VINA RESULT:      -2.3      1.855      6.854
REMARK  Name = 7049332
REMARK  9 active torsions:
REMARK  status: ('A' for Active; 'I' for Inactive)
REMARK    1  A    between atoms: O_1  and  C_13
REMARK    2  A    between atoms: O_2  and  C_15
REMARK    3  A    between atoms: O_3  and  C_16
REMARK    4  A    between atoms: N_8  and  C_12
REMARK    5  A    between atoms: N_9  and  C_23
REMARK    6  A    between atoms: C_11  and  C_19
REMARK    7  A    between atoms: C_21  and  C_22
REMARK    8  A    between atoms: C_23  and  C_24
REMARK    9  A    between atoms: C_23  and  C_25
REMARK                            x       y       z     vdW  Elec       q    Type
REMARK                         _______ _______ _______ _____ _____    ______ ____
ROOT
ATOM     12  C   UNL     1      -0.724  -1.011  23.320  0.00  0.00    +0.127 C 
ATOM     13  C   UNL     1      -0.787  -1.926  24.558  0.00  0.00    +0.167 C 
ATOM     15  C   UNL     1      -2.127  -1.786  25.293  0.00  0.00    +0.149 C 
ATOM     18  C   UNL     1      -2.417  -0.329  25.693  0.00  0.00    +0.074 C 
ATOM     20  C   UNL     1      -1.247   0.376  23.580  0.00  0.00    +0.006 C 
ATOM     21  C   UNL     1      -1.998   0.669  24.652  0.00  0.00    +0.015 C 
ENDROOT
BRANCH  12   8
ATOM      4  O   UNL     1       1.201   1.110  23.793  0.00  0.00    -0.274 OA
ATOM      8  N   UNL     1       0.618  -0.913  22.800  0.00  0.00    -0.305 N 
ATOM     19  C   UNL     1       1.468   0.144  23.083  0.00  0.00    +0.231 C 
ATOM     27  H   UNL     1       0.932  -1.633  22.153  0.00  0.00    +0.149 HD
BRANCH  19  11
ATOM      7  N   UNL     1       3.472   1.292  22.504  0.00  0.00    -0.303 NA
ATOM     11  C   UNL     1       2.809  -0.016  22.437  0.00  0.00    +0.143 C 
ATOM     14  C   UNL     1       3.696  -1.005  23.187  0.00  0.00    +0.060 C 
ATOM     16  C   UNL     1       4.824  -0.161  23.768  0.00  0.00    +0.130 C 
ATOM     17  C   UNL     1       4.298   1.261  23.721  0.00  0.00    +0.113 C 
ATOM     26  H   UNL     1       2.814   2.068  22.517  0.00  0.00    +0.123 HD
BRANCH  16   3
ATOM      3  O   UNL     1       5.985  -0.255  22.950  0.00  0.00    -0.390 OA
ATOM     30  H   UNL     1       6.467  -1.055  23.220  0.00  0.00    +0.210 HD
ENDBRANCH  16   3
ENDBRANCH  19  11
ENDBRANCH  12   8
BRANCH  21  22
ATOM      5  O   UNL     1      -3.344   2.509  24.083  0.00  0.00    -0.271 OA
ATOM      9  N   UNL     1      -1.782   2.741  25.797  0.00  0.00    -0.301 N 
ATOM     22  C   UNL     1      -2.454   2.055  24.800  0.00  0.00    +0.240 C 
ATOM     31  H   UNL     1      -1.057   2.265  26.327  0.00  0.00    +0.150 HD
BRANCH   9  23
ATOM     23  C   UNL     1      -2.055   4.121  26.128  0.00  0.00    +0.156 C 
ATOM     24  C   UNL     1      -3.550   4.397  26.133  0.00  0.00    +0.038 C 
BRANCH  23  25
ATOM      6  O   UNL     1      -1.636   6.179  24.910  0.00  0.00    -0.274 OA
ATOM     10  N   UNL     1      -0.294   4.362  24.490  0.00  0.00    -0.328 N 
ATOM     25  C   UNL     1      -1.340   5.004  25.118  0.00  0.00    +0.231 C 
ATOM     32  H   UNL     1       0.274   4.843  23.800  0.00  0.00    +0.145 HD
ATOM     33  H   UNL     1      -0.049   3.397  24.688  0.00  0.00    +0.145 HD
ENDBRANCH  23  25
ENDBRANCH   9  23
ENDBRANCH  21  22
BRANCH  13   1
ATOM      1  O   UNL     1       0.269  -1.589  25.460  0.00  0.00    -0.387 OA
ATOM     28  H   UNL     1       0.515  -2.399  25.938  0.00  0.00    +0.210 HD
ENDBRANCH  13   1
BRANCH  15   2
ATOM      2  O   UNL     1      -3.187  -2.292  24.484  0.00  0.00    -0.389 OA
ATOM     29  H   UNL     1      -3.014  -2.019  23.568  0.00  0.00    +0.210 HD
ENDBRANCH  15   2
TORSDOF 8
ENDMDL
MODEL 6
REMARK VINA RESULT:      -1.9      2.301      7.290
REMARK  Name = 7049332
REMARK  9 active torsions:
REMARK  status: ('A' for Active; 'I' for Inactive)
REMARK    1  A    between atoms: O_1  and  C_13
REMARK    2  A    between atoms: O_2  and  C_15
REMARK    3  A    between atoms: O_3  and  C_16
REMARK    4  A    between atoms: N_8  and  C_12
REMARK    5  A    between atoms: N_9  and  C_23
REMARK    6  A    between atoms: C_11  and  C_19
REMARK    7  A    between atoms: C_21  and  C_22
REMARK    8  A    between atoms: C_23  and  C_24
REMARK    9  A    between atoms: C_23  and  C_25
REMARK                            x       y       z     vdW  Elec       q    Type
REMARK                         _______ _______ _______ _____ _____    ______ ____
ROOT
ATOM     12  C   UNL     1       0.369   2.218  24.611  0.00  0.00    +0.127 C 
ATOM     13  C   UNL     1       0.000   3.612  24.069  0.00  0.00    +0.167 C 
ATOM     15  C   UNL     1      -1.314   4.122  24.676  0.00  0.00    +0.149 C 
ATOM     18  C   UNL     1      -2.475   3.139  24.451  0.00  0.00    +0.074 C 
ATOM     20  C   UNL     1      -0.801   1.272  24.663  0.00  0.00    +0.006 C 
ATOM     21  C   UNL     1      -2.070   1.699  24.582  0.00  0.00    +0.015 C 
ENDROOT
BRANCH  12   8
ATOM      4  O   UNL     1       0.514  -0.526  23.674  0.00  0.00    -0.274 OA
ATOM      8  N   UNL     1       1.425   1.610  23.839  0.00  0.00    -0.305 N 
ATOM     19  C   UNL     1       1.406   0.284  23.436  0.00  0.00    +0.231 C 
ATOM     27  H   UNL     1       2.245   2.173  23.627  0.00  0.00    +0.149 HD
BRANCH  19  11
ATOM      7  N   UNL     1       3.338   1.164  22.356  0.00  0.00    -0.303 NA
ATOM     11  C   UNL     1       2.610  -0.082  22.627  0.00  0.00    +0.143 C 
ATOM     14  C   UNL     1       3.563  -0.997  23.393  0.00  0.00    +0.060 C 
ATOM     16  C   UNL     1       4.810  -0.155  23.631  0.00  0.00    +0.130 C 
ATOM     17  C   UNL     1       4.353   1.274  23.415  0.00  0.00    +0.113 C 
ATOM     26  H   UNL     1       2.728   1.979  22.334  0.00  0.00    +0.123 HD
BRANCH  16   3
ATOM      3  O   UNL     1       5.813  -0.474  22.671  0.00  0.00    -0.390 OA
ATOM     30  H   UNL     1       5.834  -1.441  22.582  0.00  0.00    +0.210 HD
ENDBRANCH  16   3
ENDBRANCH  19  11
ENDBRANCH  12   8
BRANCH  21  22
ATOM      5  O   UNL     1      -4.240   0.900  24.162  0.00  0.00    -0.271 OA
ATOM      9  N   UNL     1      -2.732  -0.470  25.294  0.00  0.00    -0.301 N 
ATOM     22  C   UNL     1      -3.130   0.687  24.647  0.00  0.00    +0.240 C 
ATOM     31  H   UNL     1      -1.786  -0.536  25.661  0.00  0.00    +0.150 HD
BRANCH   9  23
ATOM     23  C   UNL     1      -3.602  -1.608  25.484  0.00  0.00    +0.156 C 
ATOM     24  C   UNL     1      -3.269  -2.343  26.772  0.00  0.00    +0.038 C 
BRANCH  23  25
ATOM      6  O   UNL     1      -4.390  -2.835  23.542  0.00  0.00    -0.274 OA
ATOM     10  N   UNL     1      -2.158  -2.939  24.075  0.00  0.00    -0.328 N 
ATOM     25  C   UNL     1      -3.457  -2.525  24.280  0.00  0.00    +0.231 C 
ATOM     32  H   UNL     1      -1.921  -3.546  23.298  0.00  0.00    +0.145 HD
ATOM     33  H   UNL     1      -1.394  -2.658  24.682  0.00  0.00    +0.145 HD
ENDBRANCH  23  25
ENDBRANCH   9  23
ENDBRANCH  21  22
BRANCH  13   1
ATOM      1  O   UNL     1      -0.143   3.554  22.648  0.00  0.00    -0.387 OA
ATOM     28  H   UNL     1      -0.438   4.430  22.347  0.00  0.00    +0.210 HD
ENDBRANCH  13   1
BRANCH  15   2
ATOM      2  O   UNL     1      -1.146   4.371  26.071  0.00  0.00    -0.389 OA
ATOM     29  H   UNL     1      -1.715   5.123  26.306  0.00  0.00    +0.210 HD
ENDBRANCH  15   2
TORSDOF 8
ENDMDL
MODEL 7
REMARK VINA RESULT:      -1.0      1.691      2.228
REMARK  Name = 7049332
REMARK  9 active torsions:
REMARK  status: ('A' for Active; 'I' for Inactive)
REMARK    1  A    between atoms: O_1  and  C_13
REMARK    2  A    between atoms: O_2  and  C_15
REMARK    3  A    between atoms: O_3  and  C_16
REMARK    4  A    between atoms: N_8  and  C_12
REMARK    5  A    between atoms: N_9  and  C_23
REMARK    6  A    between atoms: C_11  and  C_19
REMARK    7  A    between atoms: C_21  and  C_22
REMARK    8  A    between atoms: C_23  and  C_24
REMARK    9  A    between atoms: C_23  and  C_25
REMARK                            x       y       z     vdW  Elec       q    Type
REMARK                         _______ _______ _______ _____ _____    ______ ____
ROOT
ATOM     12  C   UNL     1      -1.599   0.453  25.040  0.00  0.00    +0.127 C 
ATOM     13  C   UNL     1      -2.649  -0.565  24.555  0.00  0.00    +0.167 C 
ATOM     15  C   UNL     1      -2.020  -1.940  24.290  0.00  0.00    +0.149 C 
ATOM     18  C   UNL     1      -0.855  -1.859  23.288  0.00  0.00    +0.074 C 
ATOM     20  C   UNL     1      -0.315   0.401  24.256  0.00  0.00    +0.006 C 
ATOM     21  C   UNL     1       0.001  -0.638  23.468  0.00  0.00    +0.015 C 
ENDROOT
BRANCH  12   8
ATOM      4  O   UNL     1      -4.349   1.303  25.410  0.00  0.00    -0.274 OA
ATOM      8  N   UNL     1      -2.110   1.800  25.008  0.00  0.00    -0.305 N 
ATOM     19  C   UNL     1      -3.448   2.110  25.197  0.00  0.00    +0.231 C 
ATOM     27  H   UNL     1      -1.462   2.552  24.786  0.00  0.00    +0.149 HD
BRANCH  19  11
ATOM      7  N   UNL     1      -3.281   4.140  26.431  0.00  0.00    -0.303 NA
ATOM     11  C   UNL     1      -3.704   3.584  25.140  0.00  0.00    +0.143 C 
ATOM     14  C   UNL     1      -2.873   4.273  24.062  0.00  0.00    +0.060 C 
ATOM     16  C   UNL     1      -1.891   5.153  24.825  0.00  0.00    +0.130 C 
ATOM     17  C   UNL     1      -1.895   4.595  26.235  0.00  0.00    +0.113 C 
ATOM     26  H   UNL     1      -3.351   3.469  27.192  0.00  0.00    +0.123 HD
BRANCH  16   3
ATOM      3  O   UNL     1      -2.353   6.500  24.855  0.00  0.00    -0.390 OA
ATOM     30  H   UNL     1      -1.951   6.928  25.630  0.00  0.00    +0.210 HD
ENDBRANCH  16   3
ENDBRANCH  19  11
ENDBRANCH  12   8
BRANCH  21  22
ATOM      5  O   UNL     1       1.319  -0.414  21.536  0.00  0.00    -0.271 OA
ATOM      9  N   UNL     1       2.372  -0.736  23.589  0.00  0.00    -0.301 N 
ATOM     22  C   UNL     1       1.280  -0.581  22.754  0.00  0.00    +0.240 C 
ATOM     31  H   UNL     1       2.222  -0.873  24.585  0.00  0.00    +0.150 HD
BRANCH   9  23
ATOM     23  C   UNL     1       3.738  -0.718  23.116  0.00  0.00    +0.156 C 
ATOM     24  C   UNL     1       4.589  -1.734  23.861  0.00  0.00    +0.038 C 
BRANCH  23  25
ATOM      6  O   UNL     1       5.360   0.938  23.840  0.00  0.00    -0.274 OA
ATOM     10  N   UNL     1       3.473   1.656  22.746  0.00  0.00    -0.328 N 
ATOM     25  C   UNL     1       4.286   0.689  23.297  0.00  0.00    +0.231 C 
ATOM     32  H   UNL     1       3.728   2.637  22.787  0.00  0.00    +0.145 HD
ATOM     33  H   UNL     1       2.598   1.433  22.282  0.00  0.00    +0.145 HD
ENDBRANCH  23  25
ENDBRANCH   9  23
ENDBRANCH  21  22
BRANCH  13   1
ATOM      1  O   UNL     1      -3.252  -0.095  23.348  0.00  0.00    -0.387 OA
ATOM     28  H   UNL     1      -2.572  -0.119  22.653  0.00  0.00    +0.210 HD
ENDBRANCH  13   1
BRANCH  15   2
ATOM      2  O   UNL     1      -1.575  -2.520  25.514  0.00  0.00    -0.389 OA
ATOM     29  H   UNL     1      -0.672  -2.850  25.372  0.00  0.00    +0.210 HD
ENDBRANCH  15   2
TORSDOF 8
ENDMDL
