MODEL 1
REMARK VINA RESULT:      -6.6      0.000      0.000
REMARK  Name = 75536913
REMARK  4 active torsions:
REMARK  status: ('A' for Active; 'I' for Inactive)
REMARK    1  A    between atoms: O_2  and  C_6
REMARK    2  A    between atoms: O_2  and  C_12
REMARK    3  A    between atoms: N_3  and  C_10
REMARK    4  A    between atoms: C_10  and  C_11
REMARK                            x       y       z     vdW  Elec       q    Type
REMARK                         _______ _______ _______ _____ _____    ______ ____
ROOT
ATOM      1  O   UNL     1      -0.895  -2.099  23.783  0.00  0.00    -0.375 OA
ATOM      3  N   UNL     1      -3.340  -0.693  24.355  0.00  0.00    -0.291 NA
ATOM      5  C   UNL     1      -2.439   0.011  25.266  0.00  0.00    +0.131 C 
ATOM      6  C   UNL     1      -1.059   0.213  24.627  0.00  0.00    +0.213 C 
ATOM      7  C   UNL     1      -3.252  -2.155  24.421  0.00  0.00    +0.113 C 
ATOM      8  C   UNL     1      -0.218  -1.051  24.466  0.00  0.00    +0.205 C 
ATOM      9  C   UNL     1      -1.857  -2.748  24.606  0.00  0.00    +0.175 C 
ENDROOT
BRANCH   6   2
ATOM      2  O   UNL     1      -0.331   1.140  25.434  0.00  0.00    -0.485 OA
BRANCH   2  12
ATOM     12  C   UNL     1      -0.657   2.461  25.290  0.00  0.00    +0.121 A 
ATOM     14  C   UNL     1      -1.514   3.072  26.206  0.00  0.00    +0.045 A 
ATOM     15  C   UNL     1      -0.130   3.197  24.229  0.00  0.00    +0.045 A 
ATOM     19  C   UNL     1      -1.845   4.419  26.059  0.00  0.00    +0.004 A 
ATOM     20  C   UNL     1      -0.462   4.543  24.082  0.00  0.00    +0.004 A 
ATOM     21  C   UNL     1      -1.320   5.154  24.997  0.00  0.00    +0.000 A 
ENDBRANCH   2  12
ENDBRANCH   6   2
BRANCH   3  10
ATOM     10  C   UNL     1      -4.729  -0.266  24.539  0.00  0.00    +0.140 C 
BRANCH  10  11
ATOM      4  N   UNL     1      -5.572   1.660  25.762  0.00  0.00    -0.259 NA
ATOM     11  C   UNL     1      -4.839   1.225  24.714  0.00  0.00    +0.055 A 
ATOM     13  C   UNL     1      -4.198   2.063  23.815  0.00  0.00    +0.024 A 
ATOM     16  C   UNL     1      -4.318   3.435  24.004  0.00  0.00    +0.003 A 
ATOM     17  C   UNL     1      -5.666   3.000  25.914  0.00  0.00    +0.111 A 
ATOM     18  C   UNL     1      -5.065   3.920  25.072  0.00  0.00    +0.020 A 
ENDBRANCH  10  11
ENDBRANCH   3  10
TORSDOF 4
ENDMDL
MODEL 2
REMARK VINA RESULT:      -6.2      1.765      4.024
REMARK  Name = 75536913
REMARK  4 active torsions:
REMARK  status: ('A' for Active; 'I' for Inactive)
REMARK    1  A    between atoms: O_2  and  C_6
REMARK    2  A    between atoms: O_2  and  C_12
REMARK    3  A    between atoms: N_3  and  C_10
REMARK    4  A    between atoms: C_10  and  C_11
REMARK                            x       y       z     vdW  Elec       q    Type
REMARK                         _______ _______ _______ _____ _____    ______ ____
ROOT
ATOM      1  O   UNL     1      -2.348  -2.533  25.236  0.00  0.00    -0.375 OA
ATOM      3  N   UNL     1      -0.877  -0.100  24.788  0.00  0.00    -0.291 NA
ATOM      5  C   UNL     1      -2.106   0.226  24.067  0.00  0.00    +0.131 C 
ATOM      6  C   UNL     1      -3.337  -0.315  24.806  0.00  0.00    +0.213 C 
ATOM      7  C   UNL     1      -0.315  -1.417  24.470  0.00  0.00    +0.113 C 
ATOM      8  C   UNL     1      -3.501  -1.832  24.787  0.00  0.00    +0.205 C 
ATOM      9  C   UNL     1      -1.313  -2.553  24.259  0.00  0.00    +0.175 C 
ENDROOT
BRANCH   6   2
ATOM      2  O   UNL     1      -4.498   0.273  24.217  0.00  0.00    -0.485 OA
BRANCH   2  12
ATOM     12  C   UNL     1      -4.774   1.565  24.570  0.00  0.00    +0.121 A 
ATOM     14  C   UNL     1      -4.257   2.620  23.817  0.00  0.00    +0.045 A 
ATOM     15  C   UNL     1      -5.573   1.828  25.682  0.00  0.00    +0.045 A 
ATOM     19  C   UNL     1      -4.539   3.938  24.177  0.00  0.00    +0.004 A 
ATOM     20  C   UNL     1      -5.854   3.146  26.042  0.00  0.00    +0.004 A 
ATOM     21  C   UNL     1      -5.337   4.201  25.289  0.00  0.00    +0.000 A 
ENDBRANCH   2  12
ENDBRANCH   6   2
BRANCH   3  10
ATOM     10  C   UNL     1       0.141   0.936  24.607  0.00  0.00    +0.140 C 
BRANCH  10  11
ATOM      4  N   UNL     1      -0.088   3.269  23.954  0.00  0.00    -0.259 NA
ATOM     11  C   UNL     1      -0.411   2.314  24.855  0.00  0.00    +0.055 A 
ATOM     13  C   UNL     1      -1.206   2.536  25.968  0.00  0.00    +0.024 A 
ATOM     16  C   UNL     1      -1.701   3.820  26.169  0.00  0.00    +0.003 A 
ATOM     17  C   UNL     1      -0.587   4.504  24.183  0.00  0.00    +0.111 A 
ATOM     18  C   UNL     1      -1.390   4.828  25.264  0.00  0.00    +0.020 A 
ENDBRANCH  10  11
ENDBRANCH   3  10
TORSDOF 4
ENDMDL
MODEL 3
REMARK VINA RESULT:      -6.0      2.442      6.239
REMARK  Name = 75536913
REMARK  4 active torsions:
REMARK  status: ('A' for Active; 'I' for Inactive)
REMARK    1  A    between atoms: O_2  and  C_6
REMARK    2  A    between atoms: O_2  and  C_12
REMARK    3  A    between atoms: N_3  and  C_10
REMARK    4  A    between atoms: C_10  and  C_11
REMARK                            x       y       z     vdW  Elec       q    Type
REMARK                         _______ _______ _______ _____ _____    ______ ____
ROOT
ATOM      1  O   UNL     1      -3.842   4.353  24.371  0.00  0.00    -0.375 OA
ATOM      3  N   UNL     1      -1.429   2.939  25.050  0.00  0.00    -0.291 NA
ATOM      5  C   UNL     1      -2.404   2.094  25.736  0.00  0.00    +0.131 C 
ATOM      6  C   UNL     1      -3.688   1.951  24.907  0.00  0.00    +0.213 C 
ATOM      7  C   UNL     1      -1.584   4.376  25.302  0.00  0.00    +0.113 C 
ATOM      8  C   UNL     1      -4.553   3.205  24.815  0.00  0.00    +0.205 C 
ATOM      9  C   UNL     1      -3.014   4.904  25.389  0.00  0.00    +0.175 C 
ENDROOT
BRANCH   6   2
ATOM      2  O   UNL     1      -4.469   0.903  25.482  0.00  0.00    -0.485 OA
BRANCH   2  12
ATOM     12  C   UNL     1      -4.113  -0.375  25.152  0.00  0.00    +0.121 A 
ATOM     14  C   UNL     1      -4.479  -0.905  23.914  0.00  0.00    +0.045 A 
ATOM     15  C   UNL     1      -3.383  -1.150  26.054  0.00  0.00    +0.045 A 
ATOM     19  C   UNL     1      -4.115  -2.209  23.578  0.00  0.00    +0.004 A 
ATOM     20  C   UNL     1      -3.019  -2.453  25.717  0.00  0.00    +0.004 A 
ATOM     21  C   UNL     1      -3.386  -2.983  24.480  0.00  0.00    +0.000 A 
ENDBRANCH   2  12
ENDBRANCH   6   2
BRANCH   3  10
ATOM     10  C   UNL     1      -0.057   2.524  25.348  0.00  0.00    +0.140 C 
BRANCH  10  11
ATOM      4  N   UNL     1       1.599   1.649  23.794  0.00  0.00    -0.259 NA
ATOM     11  C   UNL     1       0.416   1.441  24.415  0.00  0.00    +0.055 A 
ATOM     13  C   UNL     1      -0.363   0.308  24.241  0.00  0.00    +0.024 A 
ATOM     16  C   UNL     1       0.102  -0.674  23.374  0.00  0.00    +0.003 A 
ATOM     17  C   UNL     1       2.018   0.673  22.959  0.00  0.00    +0.111 A 
ATOM     18  C   UNL     1       1.314  -0.495  22.716  0.00  0.00    +0.020 A 
ENDBRANCH  10  11
ENDBRANCH   3  10
TORSDOF 4
ENDMDL
MODEL 4
REMARK VINA RESULT:      -5.3      3.210      6.055
REMARK  Name = 75536913
REMARK  4 active torsions:
REMARK  status: ('A' for Active; 'I' for Inactive)
REMARK    1  A    between atoms: O_2  and  C_6
REMARK    2  A    between atoms: O_2  and  C_12
REMARK    3  A    between atoms: N_3  and  C_10
REMARK    4  A    between atoms: C_10  and  C_11
REMARK                            x       y       z     vdW  Elec       q    Type
REMARK                         _______ _______ _______ _____ _____    ______ ____
ROOT
ATOM      1  O   UNL     1      -1.100  -0.450  25.970  0.00  0.00    -0.375 OA
ATOM      3  N   UNL     1       0.527  -0.049  23.630  0.00  0.00    -0.291 NA
ATOM      5  C   UNL     1      -0.502   0.960  23.383  0.00  0.00    +0.131 C 
ATOM      6  C   UNL     1      -0.919   1.650  24.688  0.00  0.00    +0.213 C 
ATOM      7  C   UNL     1       0.008  -1.371  23.998  0.00  0.00    +0.113 C 
ATOM      8  C   UNL     1      -1.725   0.789  25.658  0.00  0.00    +0.205 C 
ATOM      9  C   UNL     1      -1.215  -1.394  24.912  0.00  0.00    +0.175 C 
ENDROOT
BRANCH   6   2
ATOM      2  O   UNL     1      -1.697   2.799  24.350  0.00  0.00    -0.485 OA
BRANCH   2  12
ATOM     12  C   UNL     1      -3.015   2.773  24.714  0.00  0.00    +0.121 A 
ATOM     14  C   UNL     1      -3.515   3.736  25.591  0.00  0.00    +0.045 A 
ATOM     15  C   UNL     1      -3.858   1.783  24.209  0.00  0.00    +0.045 A 
ATOM     19  C   UNL     1      -4.860   3.709  25.962  0.00  0.00    +0.004 A 
ATOM     20  C   UNL     1      -5.202   1.757  24.580  0.00  0.00    +0.004 A 
ATOM     21  C   UNL     1      -5.703   2.720  25.457  0.00  0.00    +0.000 A 
ENDBRANCH   2  12
ENDBRANCH   6   2
BRANCH   3  10
ATOM     10  C   UNL     1       1.443  -0.170  22.494  0.00  0.00    +0.140 C 
BRANCH  10  11
ATOM      4  N   UNL     1       3.337  -1.326  23.491  0.00  0.00    -0.259 NA
ATOM     11  C   UNL     1       2.883  -0.182  22.934  0.00  0.00    +0.055 A 
ATOM     13  C   UNL     1       3.658   0.952  22.751  0.00  0.00    +0.024 A 
ATOM     16  C   UNL     1       4.984   0.909  23.166  0.00  0.00    +0.003 A 
ATOM     17  C   UNL     1       4.631  -1.331  23.883  0.00  0.00    +0.111 A 
ATOM     18  C   UNL     1       5.487  -0.251  23.745  0.00  0.00    +0.020 A 
ENDBRANCH  10  11
ENDBRANCH   3  10
TORSDOF 4
ENDMDL
MODEL 5
REMARK VINA RESULT:      -5.1      2.132      5.008
REMARK  Name = 75536913
REMARK  4 active torsions:
REMARK  status: ('A' for Active; 'I' for Inactive)
REMARK    1  A    between atoms: O_2  and  C_6
REMARK    2  A    between atoms: O_2  and  C_12
REMARK    3  A    between atoms: N_3  and  C_10
REMARK    4  A    between atoms: C_10  and  C_11
REMARK                            x       y       z     vdW  Elec       q    Type
REMARK                         _______ _______ _______ _____ _____    ______ ____
ROOT
ATOM      1  O   UNL     1      -0.292   3.935  24.724  0.00  0.00    -0.375 OA
ATOM      3  N   UNL     1      -0.325   1.073  24.427  0.00  0.00    -0.291 NA
ATOM      5  C   UNL     1      -1.749   1.350  24.246  0.00  0.00    +0.131 C 
ATOM      6  C   UNL     1      -1.960   2.643  23.447  0.00  0.00    +0.213 C 
ATOM      7  C   UNL     1       0.279   1.726  25.594  0.00  0.00    +0.113 C 
ATOM      8  C   UNL     1      -1.606   3.934  24.181  0.00  0.00    +0.205 C 
ATOM      9  C   UNL     1      -0.193   3.145  25.902  0.00  0.00    +0.175 C 
ENDROOT
BRANCH   6   2
ATOM      2  O   UNL     1      -3.334   2.703  23.062  0.00  0.00    -0.485 OA
BRANCH   2  12
ATOM     12  C   UNL     1      -4.255   2.568  24.063  0.00  0.00    +0.121 A 
ATOM     14  C   UNL     1      -4.698   3.692  24.761  0.00  0.00    +0.045 A 
ATOM     15  C   UNL     1      -4.753   1.305  24.386  0.00  0.00    +0.045 A 
ATOM     19  C   UNL     1      -5.638   3.553  25.782  0.00  0.00    +0.004 A 
ATOM     20  C   UNL     1      -5.692   1.167  25.407  0.00  0.00    +0.004 A 
ATOM     21  C   UNL     1      -6.134   2.291  26.106  0.00  0.00    +0.000 A 
ENDBRANCH   2  12
ENDBRANCH   6   2
BRANCH   3  10
ATOM     10  C   UNL     1      -0.059  -0.366  24.467  0.00  0.00    +0.140 C 
BRANCH  10  11
ATOM      4  N   UNL     1      -1.585  -2.183  23.927  0.00  0.00    -0.259 NA
ATOM     11  C   UNL     1      -1.305  -1.158  24.763  0.00  0.00    +0.055 A 
ATOM     13  C   UNL     1      -2.088  -0.809  25.852  0.00  0.00    +0.024 A 
ATOM     16  C   UNL     1      -3.231  -1.561  26.099  0.00  0.00    +0.003 A 
ATOM     17  C   UNL     1      -2.704  -2.891  24.199  0.00  0.00    +0.111 A 
ATOM     18  C   UNL     1      -3.552  -2.623  25.261  0.00  0.00    +0.020 A 
ENDBRANCH  10  11
ENDBRANCH   3  10
TORSDOF 4
ENDMDL
MODEL 6
REMARK VINA RESULT:      -4.8      1.833      4.541
REMARK  Name = 75536913
REMARK  4 active torsions:
REMARK  status: ('A' for Active; 'I' for Inactive)
REMARK    1  A    between atoms: O_2  and  C_6
REMARK    2  A    between atoms: O_2  and  C_12
REMARK    3  A    between atoms: N_3  and  C_10
REMARK    4  A    between atoms: C_10  and  C_11
REMARK                            x       y       z     vdW  Elec       q    Type
REMARK                         _______ _______ _______ _____ _____    ______ ____
ROOT
ATOM      1  O   UNL     1       1.027  -0.753  24.184  0.00  0.00    -0.375 OA
ATOM      3  N   UNL     1      -0.087   1.807  24.881  0.00  0.00    -0.291 NA
ATOM      5  C   UNL     1      -1.235   0.955  25.187  0.00  0.00    +0.131 C 
ATOM      6  C   UNL     1      -0.783  -0.370  25.815  0.00  0.00    +0.213 C 
ATOM      7  C   UNL     1       0.525   1.558  23.572  0.00  0.00    +0.113 C 
ATOM      8  C   UNL     1      -0.073  -1.337  24.871  0.00  0.00    +0.205 C 
ATOM      9  C   UNL     1       0.610   0.100  23.124  0.00  0.00    +0.175 C 
ENDROOT
BRANCH   6   2
ATOM      2  O   UNL     1      -1.938  -1.022  26.346  0.00  0.00    -0.485 OA
BRANCH   2  12
ATOM     12  C   UNL     1      -2.874  -1.439  25.440  0.00  0.00    +0.121 A 
ATOM     14  C   UNL     1      -2.922  -2.778  25.051  0.00  0.00    +0.045 A 
ATOM     15  C   UNL     1      -3.781  -0.524  24.906  0.00  0.00    +0.045 A 
ATOM     19  C   UNL     1      -3.877  -3.202  24.127  0.00  0.00    +0.004 A 
ATOM     20  C   UNL     1      -4.736  -0.948  23.982  0.00  0.00    +0.004 A 
ATOM     21  C   UNL     1      -4.784  -2.287  23.592  0.00  0.00    +0.000 A 
ENDBRANCH   2  12
ENDBRANCH   6   2
BRANCH   3  10
ATOM     10  C   UNL     1      -0.424   3.226  25.014  0.00  0.00    +0.140 C 
BRANCH  10  11
ATOM      4  N   UNL     1      -2.615   3.107  23.965  0.00  0.00    -0.259 NA
ATOM     11  C   UNL     1      -1.912   3.447  25.068  0.00  0.00    +0.055 A 
ATOM     13  C   UNL     1      -2.479   3.974  26.217  0.00  0.00    +0.024 A 
ATOM     16  C   UNL     1      -3.856   4.165  26.235  0.00  0.00    +0.003 A 
ATOM     17  C   UNL     1      -3.951   3.306  24.020  0.00  0.00    +0.111 A 
ATOM     18  C   UNL     1      -4.613   3.827  25.119  0.00  0.00    +0.020 A 
ENDBRANCH  10  11
ENDBRANCH   3  10
TORSDOF 4
ENDMDL
MODEL 7
REMARK VINA RESULT:      -4.1     16.207     18.443
REMARK  Name = 75536913
REMARK  4 active torsions:
REMARK  status: ('A' for Active; 'I' for Inactive)
REMARK    1  A    between atoms: O_2  and  C_6
REMARK    2  A    between atoms: O_2  and  C_12
REMARK    3  A    between atoms: N_3  and  C_10
REMARK    4  A    between atoms: C_10  and  C_11
REMARK                            x       y       z     vdW  Elec       q    Type
REMARK                         _______ _______ _______ _____ _____    ______ ____
ROOT
ATOM      1  O   UNL     1      12.540   9.094  15.216  0.00  0.00    -0.375 OA
ATOM      3  N   UNL     1      11.408   8.776  17.843  0.00  0.00    -0.291 NA
ATOM      5  C   UNL     1      12.464   7.767  17.913  0.00  0.00    +0.131 C 
ATOM      6  C   UNL     1      13.735   8.253  17.203  0.00  0.00    +0.213 C 
ATOM      7  C   UNL     1      10.585   8.713  16.630  0.00  0.00    +0.113 C 
ATOM      8  C   UNL     1      13.648   8.333  15.681  0.00  0.00    +0.205 C 
ATOM      9  C   UNL     1      11.312   8.384  15.328  0.00  0.00    +0.175 C 
ENDROOT
BRANCH   6   2
ATOM      2  O   UNL     1      14.799   7.365  17.549  0.00  0.00    -0.485 OA
BRANCH   2  12
ATOM     12  C   UNL     1      15.342   7.520  18.794  0.00  0.00    +0.121 A 
ATOM     14  C   UNL     1      15.794   6.406  19.502  0.00  0.00    +0.045 A 
ATOM     15  C   UNL     1      15.446   8.793  19.356  0.00  0.00    +0.045 A 
ATOM     19  C   UNL     1      16.348   6.564  20.772  0.00  0.00    +0.004 A 
ATOM     20  C   UNL     1      16.000   8.950  20.626  0.00  0.00    +0.004 A 
ATOM     21  C   UNL     1      16.451   7.836  21.334  0.00  0.00    +0.000 A 
ENDBRANCH   2  12
ENDBRANCH   6   2
BRANCH   3  10
ATOM     10  C   UNL     1      10.553   8.738  19.031  0.00  0.00    +0.140 C 
BRANCH  10  11
ATOM      4  N   UNL     1      11.102   6.931  20.563  0.00  0.00    -0.259 NA
ATOM     11  C   UNL     1      11.292   8.229  20.238  0.00  0.00    +0.055 A 
ATOM     13  C   UNL     1      12.115   9.092  20.945  0.00  0.00    +0.024 A 
ATOM     16  C   UNL     1      12.785   8.591  22.055  0.00  0.00    +0.003 A 
ATOM     17  C   UNL     1      11.770   6.479  21.648  0.00  0.00    +0.111 A 
ATOM     18  C   UNL     1      12.614   7.260  22.420  0.00  0.00    +0.020 A 
ENDBRANCH  10  11
ENDBRANCH   3  10
TORSDOF 4
ENDMDL
MODEL 8
REMARK VINA RESULT:      -3.6      3.169      6.816
REMARK  Name = 75536913
REMARK  4 active torsions:
REMARK  status: ('A' for Active; 'I' for Inactive)
REMARK    1  A    between atoms: O_2  and  C_6
REMARK    2  A    between atoms: O_2  and  C_12
REMARK    3  A    between atoms: N_3  and  C_10
REMARK    4  A    between atoms: C_10  and  C_11
REMARK                            x       y       z     vdW  Elec       q    Type
REMARK                         _______ _______ _______ _____ _____    ______ ____
ROOT
ATOM      1  O   UNL     1      -0.627   3.389  24.410  0.00  0.00    -0.375 OA
ATOM      3  N   UNL     1       0.218   0.861  23.325  0.00  0.00    -0.291 NA
ATOM      5  C   UNL     1      -1.101   0.479  23.825  0.00  0.00    +0.131 C 
ATOM      6  C   UNL     1      -2.121   1.602  23.599  0.00  0.00    +0.213 C 
ATOM      7  C   UNL     1       1.040   1.608  24.283  0.00  0.00    +0.113 C 
ATOM      8  C   UNL     1      -1.938   2.842  24.471  0.00  0.00    +0.205 C 
ATOM      9  C   UNL     1       0.313   2.627  25.158  0.00  0.00    +0.175 C 
ENDROOT
BRANCH   6   2
ATOM      2  O   UNL     1      -3.424   1.069  23.839  0.00  0.00    -0.485 OA
BRANCH   2  12
ATOM     12  C   UNL     1      -3.481  -0.212  24.313  0.00  0.00    +0.121 A 
ATOM     14  C   UNL     1      -3.916  -1.245  23.482  0.00  0.00    +0.045 A 
ATOM     15  C   UNL     1      -3.104  -0.486  25.628  0.00  0.00    +0.045 A 
ATOM     19  C   UNL     1      -3.973  -2.552  23.966  0.00  0.00    +0.004 A 
ATOM     20  C   UNL     1      -3.162  -1.793  26.111  0.00  0.00    +0.004 A 
ATOM     21  C   UNL     1      -3.597  -2.826  25.280  0.00  0.00    +0.000 A 
ENDBRANCH   2  12
ENDBRANCH   6   2
BRANCH   3  10
ATOM     10  C   UNL     1       0.960  -0.300  22.828  0.00  0.00    +0.140 C 
BRANCH  10  11
ATOM      4  N   UNL     1       2.961   1.064  22.596  0.00  0.00    -0.259 NA
ATOM     11  C   UNL     1       2.446  -0.124  22.985  0.00  0.00    +0.055 A 
ATOM     13  C   UNL     1       3.201  -1.162  23.508  0.00  0.00    +0.024 A 
ATOM     16  C   UNL     1       4.571  -0.967  23.641  0.00  0.00    +0.003 A 
ATOM     17  C   UNL     1       4.296   1.216  22.739  0.00  0.00    +0.111 A 
ATOM     18  C   UNL     1       5.137   0.241  23.251  0.00  0.00    +0.020 A 
ENDBRANCH  10  11
ENDBRANCH   3  10
TORSDOF 4
ENDMDL
MODEL 9
REMARK VINA RESULT:      -3.6      3.126      6.411
REMARK  Name = 75536913
REMARK  4 active torsions:
REMARK  status: ('A' for Active; 'I' for Inactive)
REMARK    1  A    between atoms: O_2  and  C_6
REMARK    2  A    between atoms: O_2  and  C_12
REMARK    3  A    between atoms: N_3  and  C_10
REMARK    4  A    between atoms: C_10  and  C_11
REMARK                            x       y       z     vdW  Elec       q    Type
REMARK                         _______ _______ _______ _____ _____    ______ ____
ROOT
ATOM      1  O   UNL     1      -0.383   3.499  25.137  0.00  0.00    -0.375 OA
ATOM      3  N   UNL     1       0.268   1.147  23.613  0.00  0.00    -0.291 NA
ATOM      5  C   UNL     1      -1.189   1.110  23.500  0.00  0.00    +0.131 C 
ATOM      6  C   UNL     1      -1.763   2.525  23.340  0.00  0.00    +0.213 C 
ATOM      7  C   UNL     1       0.768   1.352  24.977  0.00  0.00    +0.113 C 
ATOM      8  C   UNL     1      -1.690   3.408  24.583  0.00  0.00    +0.205 C 
ATOM      9  C   UNL     1      -0.016   2.326  25.853  0.00  0.00    +0.175 C 
ENDROOT
BRANCH   6   2
ATOM      2  O   UNL     1      -3.132   2.403  22.952  0.00  0.00    -0.485 OA
BRANCH   2  12
ATOM     12  C   UNL     1      -4.045   2.286  23.963  0.00  0.00    +0.121 A 
ATOM     14  C   UNL     1      -4.612   3.429  24.527  0.00  0.00    +0.045 A 
ATOM     15  C   UNL     1      -4.410   1.023  24.429  0.00  0.00    +0.045 A 
ATOM     19  C   UNL     1      -5.544   3.308  25.558  0.00  0.00    +0.004 A 
ATOM     20  C   UNL     1      -5.342   0.903  25.460  0.00  0.00    +0.004 A 
ATOM     21  C   UNL     1      -5.908   2.046  26.025  0.00  0.00    +0.000 A 
ENDBRANCH   2  12
ENDBRANCH   6   2
BRANCH   3  10
ATOM     10  C   UNL     1       0.881  -0.049  23.030  0.00  0.00    +0.140 C 
BRANCH  10  11
ATOM      4  N   UNL     1       2.978   1.130  22.673  0.00  0.00    -0.259 NA
ATOM     11  C   UNL     1       2.383  -0.003  23.107  0.00  0.00    +0.055 A 
ATOM     13  C   UNL     1       3.070  -1.097  23.609  0.00  0.00    +0.024 A 
ATOM     16  C   UNL     1       4.457  -1.023  23.669  0.00  0.00    +0.003 A 
ATOM     17  C   UNL     1       4.328   1.165  22.746  0.00  0.00    +0.111 A 
ATOM     18  C   UNL     1       5.105   0.126  23.230  0.00  0.00    +0.020 A 
ENDBRANCH  10  11
ENDBRANCH   3  10
TORSDOF 4
ENDMDL
MODEL 10
REMARK VINA RESULT:      -3.3      3.079      4.601
REMARK  Name = 75536913
REMARK  4 active torsions:
REMARK  status: ('A' for Active; 'I' for Inactive)
REMARK    1  A    between atoms: O_2  and  C_6
REMARK    2  A    between atoms: O_2  and  C_12
REMARK    3  A    between atoms: N_3  and  C_10
REMARK    4  A    between atoms: C_10  and  C_11
REMARK                            x       y       z     vdW  Elec       q    Type
REMARK                         _______ _______ _______ _____ _____    ______ ____
ROOT
ATOM      1  O   UNL     1      -0.697  -1.449  24.111  0.00  0.00    -0.375 OA
ATOM      3  N   UNL     1      -0.558   1.415  24.346  0.00  0.00    -0.291 NA
ATOM      5  C   UNL     1       0.746   1.161  23.736  0.00  0.00    +0.131 C 
ATOM      6  C   UNL     1       0.653   0.044  22.687  0.00  0.00    +0.213 C 
ATOM      7  C   UNL     1      -0.872   0.557  25.493  0.00  0.00    +0.113 C 
ATOM      8  C   UNL     1       0.424  -1.360  23.241  0.00  0.00    +0.205 C 
ATOM      9  C   UNL     1      -0.429  -0.901  25.396  0.00  0.00    +0.175 C 
ENDROOT
BRANCH   6   2
ATOM      2  O   UNL     1       1.869   0.042  21.938  0.00  0.00    -0.485 OA
BRANCH   2  12
ATOM     12  C   UNL     1       3.027  -0.089  22.654  0.00  0.00    +0.121 A 
ATOM     14  C   UNL     1       3.323  -1.296  23.288  0.00  0.00    +0.045 A 
ATOM     15  C   UNL     1       3.912   0.985  22.748  0.00  0.00    +0.045 A 
ATOM     19  C   UNL     1       4.505  -1.428  24.018  0.00  0.00    +0.004 A 
ATOM     20  C   UNL     1       5.093   0.852  23.478  0.00  0.00    +0.004 A 
ATOM     21  C   UNL     1       5.389  -0.354  24.113  0.00  0.00    +0.000 A 
ENDBRANCH   2  12
ENDBRANCH   6   2
BRANCH   3  10
ATOM     10  C   UNL     1      -0.709   2.823  24.718  0.00  0.00    +0.140 C 
BRANCH  10  11
ATOM      4  N   UNL     1      -3.043   2.753  24.036  0.00  0.00    -0.259 NA
ATOM     11  C   UNL     1      -2.150   3.190  24.952  0.00  0.00    +0.055 A 
ATOM     13  C   UNL     1      -2.488   3.939  26.068  0.00  0.00    +0.024 A 
ATOM     16  C   UNL     1      -3.827   4.259  26.256  0.00  0.00    +0.003 A 
ATOM     17  C   UNL     1      -4.336   3.084  24.252  0.00  0.00    +0.111 A 
ATOM     18  C   UNL     1      -4.775   3.828  25.335  0.00  0.00    +0.020 A 
ENDBRANCH  10  11
ENDBRANCH   3  10
TORSDOF 4
ENDMDL
