MODEL 1
REMARK VINA RESULT:      -1.8      0.000      0.000
REMARK  Name = 11884000
REMARK  8 active torsions:
REMARK  status: ('A' for Active; 'I' for Inactive)
REMARK    1  A    between atoms: O_3  and  C_12
REMARK    2  A    between atoms: O_3  and  C_16
REMARK    3  A    between atoms: N_6  and  C_11
REMARK    4  A    between atoms: N_7  and  C_17
REMARK    5  A    between atoms: N_8  and  C_18
REMARK    6  A    between atoms: C_22  and  C_23
REMARK    7  A    between atoms: C_23  and  C_30
REMARK    8  A    between atoms: C_23  and  C_31
REMARK                            x       y       z     vdW  Elec       q    Type
REMARK                         _______ _______ _______ _____ _____    ______ ____
ROOT
ATOM      1  O   UNL     1      -5.012  -8.618  10.640  0.00  0.00    -0.368 OA
ATOM      2  O   UNL     1      -5.200 -10.363   8.126  0.00  0.00    -0.368 OA
ATOM      9  C   UNL     1      -6.042 -10.276   9.294  0.00  0.00    +0.173 C 
ATOM     10  C   UNL     1      -5.126 -10.041  10.479  0.00  0.00    +0.192 C 
ATOM     11  C   UNL     1      -6.886  -9.025   9.235  0.00  0.00    +0.131 C 
ATOM     12  C   UNL     1      -3.828 -10.658  10.016  0.00  0.00    +0.235 C 
ATOM     13  C   UNL     1      -5.925  -7.964   9.746  0.00  0.00    +0.185 C 
ATOM     14  C   UNL     1      -3.826 -10.327   8.540  0.00  0.00    +0.207 C 
ENDROOT
BRANCH  11   6
ATOM      4  O   UNL     1      -6.903  -9.211  12.093  0.00  0.00    -0.252 OA
ATOM      6  N   UNL     1      -8.046  -9.135  10.084  0.00  0.00    -0.292 N 
ATOM      7  N   UNL     1      -9.248  -9.319  12.034  0.00  0.00    -0.269 N 
ATOM     15  C   UNL     1      -7.968  -9.222  11.480  0.00  0.00    +0.304 C 
ATOM     36  H   UNL     1      -8.965  -9.083   9.656  0.00  0.00    +0.151 HD
ATOM     37  H   UNL     1     -10.029  -9.314  11.382  0.00  0.00    +0.156 HD
BRANCH   7  17
ATOM     17  C   UNL     1      -9.596  -9.424  13.400  0.00  0.00    +0.035 A 
ATOM     19  C   UNL     1      -9.196  -8.437  14.301  0.00  0.00    +0.023 A 
ATOM     20  C   UNL     1     -10.341 -10.516  13.848  0.00  0.00    +0.023 A 
ATOM     22  C   UNL     1     -10.285  -9.632  16.096  0.00  0.00    -0.045 A 
ATOM     24  C   UNL     1      -9.540  -8.541  15.648  0.00  0.00    +0.006 A 
ATOM     25  C   UNL     1     -10.686 -10.619  15.195  0.00  0.00    +0.006 A 
BRANCH  22  23
ATOM     23  C   UNL     1     -10.653  -9.744  17.536  0.00  0.00    +0.013 C 
ATOM     30  C   UNL     1     -10.639  -8.382  18.256  0.00  0.00    +0.012 C 
ATOM     31  C   UNL     1      -9.760 -10.745  18.296  0.00  0.00    +0.012 C 
ENDBRANCH  22  23
ENDBRANCH   7  17
ENDBRANCH  11   6
BRANCH  12   3
ATOM      3  O   UNL     1      -2.694 -10.145  10.676  0.00  0.00    -0.442 OA
BRANCH   3  16
ATOM      5  O   UNL     1      -3.442  -8.762  12.336  0.00  0.00    -0.226 OA
ATOM      8  N   UNL     1      -2.257 -10.723  12.813  0.00  0.00    -0.251 N 
ATOM     16  C   UNL     1      -2.852  -9.781  11.997  0.00  0.00    +0.405 C 
ATOM     38  H   UNL     1      -1.822 -11.491  12.314  0.00  0.00    +0.158 HD
BRANCH   8  18
ATOM     18  C   UNL     1      -2.187 -10.735  14.224  0.00  0.00    +0.044 A 
ATOM     21  C   UNL     1      -3.344 -10.747  15.021  0.00  0.00    +0.003 A 
ATOM     26  C   UNL     1      -0.920 -10.732  14.806  0.00  0.00    +0.024 A 
ATOM     27  C   UNL     1      -3.211 -10.757  16.430  0.00  0.00    -0.016 A 
ATOM     28  C   UNL     1      -4.627 -10.750  14.452  0.00  0.00    +0.010 A 
ATOM     29  C   UNL     1      -0.790 -10.742  16.193  0.00  0.00    +0.002 A 
ATOM     32  C   UNL     1      -1.928 -10.755  17.001  0.00  0.00    +0.008 A 
ATOM     33  C   UNL     1      -4.367 -10.770  17.229  0.00  0.00    +0.008 A 
ATOM     34  C   UNL     1      -5.764 -10.761  15.260  0.00  0.00    +0.001 A 
ATOM     35  C   UNL     1      -5.634 -10.773  16.646  0.00  0.00    +0.001 A 
ENDBRANCH   8  18
ENDBRANCH   3  16
ENDBRANCH  12   3
TORSDOF 6
ENDMDL
