MODEL 1
REMARK VINA RESULT:      -4.2      0.000      0.000
REMARK  Name = 28962187
REMARK  13 active torsions:
REMARK  status: ('A' for Active; 'I' for Inactive)
REMARK    1  A    between atoms: S_1  and  N_8
REMARK    2  A    between atoms: S_1  and  C_19
REMARK    3  A    between atoms: O_3  and  C_11
REMARK    4  A    between atoms: O_4  and  C_14
REMARK    5  A    between atoms: N_7  and  C_9
REMARK    6  A    between atoms: N_7  and  C_15
REMARK    7  A    between atoms: N_7  and  C_16
REMARK    8  A    between atoms: N_8  and  C_13
REMARK    9  A    between atoms: C_10  and  C_13
REMARK   10  A    between atoms: C_12  and  C_14
REMARK   11  A    between atoms: C_15  and  C_17
REMARK   12  A    between atoms: C_17  and  C_18
REMARK   13  A    between atoms: C_29  and  C_30
REMARK                            x       y       z     vdW  Elec       q    Type
REMARK                         _______ _______ _______ _____ _____    ______ ____
ROOT
ATOM      2  O   UNL     1      -0.206   1.465  25.536  0.00  0.00    -0.366 OA
ATOM      9  C   UNL     1      -2.386   2.399  25.346  0.00  0.00    +0.118 C 
ATOM     10  C   UNL     1      -1.401   1.401  24.725  0.00  0.00    +0.154 C 
ATOM     11  C   UNL     1      -1.472   3.401  26.035  0.00  0.00    +0.165 C 
ATOM     12  C   UNL     1      -0.377   2.474  26.549  0.00  0.00    +0.174 C 
ENDROOT
BRANCH  11   3
ATOM      3  O   UNL     1      -0.935   4.338  25.111  0.00  0.00    -0.388 OA
ATOM     31  H   UNL     1      -0.030   4.056  24.898  0.00  0.00    +0.210 HD
ENDBRANCH  11   3
BRANCH   9   7
ATOM      7  N   UNL     1      -3.369   2.976  24.445  0.00  0.00    -0.297 NA
ATOM     16  C   UNL     1      -4.132   4.035  25.112  0.00  0.00    +0.105 C 
BRANCH   7  15
ATOM     15  C   UNL     1      -4.279   1.945  23.937  0.00  0.00    +0.089 C 
BRANCH  15  17
ATOM     17  C   UNL     1      -4.794   1.060  25.073  0.00  0.00    +0.050 C 
BRANCH  17  18
ATOM     18  C   UNL     1      -4.294  -0.357  24.941  0.00  0.00    -0.046 A 
ATOM     20  C   UNL     1      -4.541  -1.077  23.773  0.00  0.00    +0.003 A 
ATOM     21  C   UNL     1      -3.586  -0.947  25.988  0.00  0.00    +0.003 A 
ATOM     24  C   UNL     1      -4.080  -2.388  23.651  0.00  0.00    +0.000 A 
ATOM     25  C   UNL     1      -3.124  -2.258  25.866  0.00  0.00    +0.000 A 
ATOM     28  C   UNL     1      -3.372  -2.979  24.697  0.00  0.00    +0.000 A 
ENDBRANCH  17  18
ENDBRANCH  15  17
ENDBRANCH   7  15
ENDBRANCH   9   7
BRANCH  10  13
ATOM     13  C   UNL     1      -0.982   1.660  23.282  0.00  0.00    +0.139 C 
BRANCH  13   8
ATOM      8  N   UNL     1       0.443   1.323  23.118  0.00  0.00    -0.187 NA
ATOM     32  H   UNL     1       1.053   2.092  22.812  0.00  0.00    +0.148 HD
BRANCH   8   1
ATOM      1  S   UNL     1       0.907  -0.273  22.755  0.00  0.00    +0.058 S 
ATOM      5  O   UNL     1       0.700  -0.522  21.340  0.00  0.00    -0.153 OA
ATOM      6  O   UNL     1       0.339  -1.169  23.744  0.00  0.00    -0.153 OA
BRANCH   1  19
ATOM     19  C   UNL     1       2.649  -0.219  23.049  0.00  0.00    +0.105 A 
ATOM     22  C   UNL     1       3.373   0.931  22.736  0.00  0.00    +0.029 A 
ATOM     23  C   UNL     1       3.300  -1.327  23.591  0.00  0.00    +0.029 A 
ATOM     26  C   UNL     1       4.748   0.974  22.966  0.00  0.00    +0.005 A 
ATOM     27  C   UNL     1       4.676  -1.284  23.821  0.00  0.00    +0.005 A 
ATOM     29  C   UNL     1       5.399  -0.135  23.508  0.00  0.00    -0.050 A 
ATOM     30  C   UNL     1       6.870  -0.089  23.753  0.00  0.00    +0.044 C 
ENDBRANCH   1  19
ENDBRANCH   8   1
ENDBRANCH  13   8
ENDBRANCH  10  13
BRANCH  12  14
ATOM     14  C   UNL     1       0.961   3.136  26.828  0.00  0.00    +0.190 C 
BRANCH  14   4
ATOM      4  O   UNL     1       1.505   2.584  28.017  0.00  0.00    -0.392 OA
ATOM     33  H   UNL     1       1.279   3.191  28.742  0.00  0.00    +0.210 HD
ENDBRANCH  14   4
ENDBRANCH  12  14
TORSDOF 11
ENDMDL
MODEL 2
REMARK VINA RESULT:      -4.1      2.210      6.650
REMARK  Name = 28962187
REMARK  13 active torsions:
REMARK  status: ('A' for Active; 'I' for Inactive)
REMARK    1  A    between atoms: S_1  and  N_8
REMARK    2  A    between atoms: S_1  and  C_19
REMARK    3  A    between atoms: O_3  and  C_11
REMARK    4  A    between atoms: O_4  and  C_14
REMARK    5  A    between atoms: N_7  and  C_9
REMARK    6  A    between atoms: N_7  and  C_15
REMARK    7  A    between atoms: N_7  and  C_16
REMARK    8  A    between atoms: N_8  and  C_13
REMARK    9  A    between atoms: C_10  and  C_13
REMARK   10  A    between atoms: C_12  and  C_14
REMARK   11  A    between atoms: C_15  and  C_17
REMARK   12  A    between atoms: C_17  and  C_18
REMARK   13  A    between atoms: C_29  and  C_30
REMARK                            x       y       z     vdW  Elec       q    Type
REMARK                         _______ _______ _______ _____ _____    ______ ____
ROOT
ATOM      2  O   UNL     1      -1.324   3.675  23.312  0.00  0.00    -0.366 OA
ATOM      9  C   UNL     1      -0.350   1.578  23.872  0.00  0.00    +0.118 C 
ATOM     10  C   UNL     1      -1.321   2.285  22.918  0.00  0.00    +0.154 C 
ATOM     11  C   UNL     1      -0.384   2.459  25.111  0.00  0.00    +0.165 C 
ATOM     12  C   UNL     1      -0.486   3.839  24.472  0.00  0.00    +0.174 C 
ENDROOT
BRANCH  11   3
ATOM      3  O   UNL     1      -1.531   2.196  25.908  0.00  0.00    -0.388 OA
ATOM     31  H   UNL     1      -1.268   2.280  26.839  0.00  0.00    +0.210 HD
ENDBRANCH  11   3
BRANCH   9   7
ATOM      7  N   UNL     1      -0.599   0.166  24.110  0.00  0.00    -0.297 NA
ATOM     16  C   UNL     1      -0.572  -0.134  25.545  0.00  0.00    +0.105 C 
BRANCH   7  15
ATOM     15  C   UNL     1       0.383  -0.663  23.405  0.00  0.00    +0.089 C 
BRANCH  15  17
ATOM     17  C   UNL     1       1.336   0.202  22.578  0.00  0.00    +0.050 C 
BRANCH  17  18
ATOM     18  C   UNL     1       2.773  -0.016  22.985  0.00  0.00    -0.046 A 
ATOM     20  C   UNL     1       3.167  -1.241  23.524  0.00  0.00    +0.003 A 
ATOM     21  C   UNL     1       3.706   1.008  22.824  0.00  0.00    +0.003 A 
ATOM     24  C   UNL     1       4.495  -1.442  23.900  0.00  0.00    +0.000 A 
ATOM     25  C   UNL     1       5.034   0.807  23.201  0.00  0.00    +0.000 A 
ATOM     28  C   UNL     1       5.429  -0.418  23.739  0.00  0.00    +0.000 A 
ENDBRANCH  17  18
ENDBRANCH  15  17
ENDBRANCH   7  15
ENDBRANCH   9   7
BRANCH  10  13
ATOM     13  C   UNL     1      -2.768   1.807  22.936  0.00  0.00    +0.139 C 
BRANCH  13   8
ATOM      8  N   UNL     1      -3.578   2.728  23.754  0.00  0.00    -0.187 NA
ATOM     32  H   UNL     1      -3.170   3.657  23.917  0.00  0.00    +0.148 HD
BRANCH   8   1
ATOM      1  S   UNL     1      -4.680   2.113  24.895  0.00  0.00    +0.058 S 
ATOM      5  O   UNL     1      -6.030   2.256  24.383  0.00  0.00    -0.153 OA
ATOM      6  O   UNL     1      -4.339   2.627  26.208  0.00  0.00    -0.153 OA
BRANCH   1  19
ATOM     19  C   UNL     1      -4.276   0.392  24.895  0.00  0.00    +0.105 A 
ATOM     22  C   UNL     1      -3.854  -0.225  26.072  0.00  0.00    +0.029 A 
ATOM     23  C   UNL     1      -4.378  -0.349  23.717  0.00  0.00    +0.029 A 
ATOM     26  C   UNL     1      -3.533  -1.583  26.072  0.00  0.00    +0.005 A 
ATOM     27  C   UNL     1      -4.057  -1.706  23.717  0.00  0.00    +0.005 A 
ATOM     29  C   UNL     1      -3.634  -2.323  24.894  0.00  0.00    -0.050 A 
ATOM     30  C   UNL     1      -3.291  -3.775  24.894  0.00  0.00    +0.044 C 
ENDBRANCH   1  19
ENDBRANCH   8   1
ENDBRANCH  13   8
ENDBRANCH  10  13
BRANCH  12  14
ATOM     14  C   UNL     1      -1.061   4.929  25.358  0.00  0.00    +0.190 C 
BRANCH  14   4
ATOM      4  O   UNL     1      -2.454   4.706  25.512  0.00  0.00    -0.392 OA
ATOM     33  H   UNL     1      -2.901   5.194  24.800  0.00  0.00    +0.210 HD
ENDBRANCH  14   4
ENDBRANCH  12  14
TORSDOF 11
ENDMDL
MODEL 3
REMARK VINA RESULT:      -2.4      2.144      6.262
REMARK  Name = 28962187
REMARK  13 active torsions:
REMARK  status: ('A' for Active; 'I' for Inactive)
REMARK    1  A    between atoms: S_1  and  N_8
REMARK    2  A    between atoms: S_1  and  C_19
REMARK    3  A    between atoms: O_3  and  C_11
REMARK    4  A    between atoms: O_4  and  C_14
REMARK    5  A    between atoms: N_7  and  C_9
REMARK    6  A    between atoms: N_7  and  C_15
REMARK    7  A    between atoms: N_7  and  C_16
REMARK    8  A    between atoms: N_8  and  C_13
REMARK    9  A    between atoms: C_10  and  C_13
REMARK   10  A    between atoms: C_12  and  C_14
REMARK   11  A    between atoms: C_15  and  C_17
REMARK   12  A    between atoms: C_17  and  C_18
REMARK   13  A    between atoms: C_29  and  C_30
REMARK                            x       y       z     vdW  Elec       q    Type
REMARK                         _______ _______ _______ _____ _____    ______ ____
ROOT
ATOM      2  O   UNL     1       3.782   1.640  23.164  0.00  0.00    -0.366 OA
ATOM      9  C   UNL     1       2.404   0.010  22.112  0.00  0.00    +0.118 C 
ATOM     10  C   UNL     1       2.405   1.373  22.815  0.00  0.00    +0.154 C 
ATOM     11  C   UNL     1       3.636  -0.673  22.684  0.00  0.00    +0.165 C 
ATOM     12  C   UNL     1       4.591   0.511  22.786  0.00  0.00    +0.174 C 
ENDROOT
BRANCH  11   3
ATOM      3  O   UNL     1       3.380  -1.215  23.973  0.00  0.00    -0.388 OA
ATOM     31  H   UNL     1       3.120  -2.143  23.855  0.00  0.00    +0.210 HD
ENDBRANCH  11   3
BRANCH   9   7
ATOM      7  N   UNL     1       1.173  -0.757  22.202  0.00  0.00    -0.297 NA
ATOM     16  C   UNL     1       0.408  -0.666  20.954  0.00  0.00    +0.105 C 
BRANCH   7  15
ATOM     15  C   UNL     1       0.353  -0.297  23.327  0.00  0.00    +0.089 C 
BRANCH  15  17
ATOM     17  C   UNL     1       0.177  -1.407  24.365  0.00  0.00    +0.050 C 
BRANCH  17  18
ATOM     18  C   UNL     1      -1.269  -1.564  24.766  0.00  0.00    -0.046 A 
ATOM     20  C   UNL     1      -1.773  -0.848  25.852  0.00  0.00    +0.003 A 
ATOM     21  C   UNL     1      -2.101  -2.426  24.052  0.00  0.00    +0.003 A 
ATOM     24  C   UNL     1      -3.110  -0.994  26.223  0.00  0.00    +0.000 A 
ATOM     25  C   UNL     1      -3.438  -2.571  24.423  0.00  0.00    +0.000 A 
ATOM     28  C   UNL     1      -3.943  -1.856  25.509  0.00  0.00    +0.000 A 
ENDBRANCH  17  18
ENDBRANCH  15  17
ENDBRANCH   7  15
ENDBRANCH   9   7
BRANCH  10  13
ATOM     13  C   UNL     1       1.585   1.483  24.096  0.00  0.00    +0.139 C 
BRANCH  13   8
ATOM      8  N   UNL     1       0.364   2.265  23.830  0.00  0.00    -0.187 NA
ATOM     32  H   UNL     1       0.201   2.519  22.848  0.00  0.00    +0.148 HD
BRANCH   8   1
ATOM      1  S   UNL     1      -0.298   3.254  25.046  0.00  0.00    +0.058 S 
ATOM      5  O   UNL     1      -0.150   4.646  24.664  0.00  0.00    -0.153 OA
ATOM      6  O   UNL     1       0.175   2.798  26.339  0.00  0.00    -0.153 OA
BRANCH   1  19
ATOM     19  C   UNL     1      -2.015   2.843  24.950  0.00  0.00    +0.105 A 
ATOM     22  C   UNL     1      -2.924   3.443  25.820  0.00  0.00    +0.029 A 
ATOM     23  C   UNL     1      -2.458   1.916  24.007  0.00  0.00    +0.029 A 
ATOM     26  C   UNL     1      -4.279   3.117  25.746  0.00  0.00    +0.005 A 
ATOM     27  C   UNL     1      -3.813   1.590  23.933  0.00  0.00    +0.005 A 
ATOM     29  C   UNL     1      -4.723   2.190  24.803  0.00  0.00    -0.050 A 
ATOM     30  C   UNL     1      -6.171   1.841  24.724  0.00  0.00    +0.044 C 
ENDBRANCH   1  19
ENDBRANCH   8   1
ENDBRANCH  13   8
ENDBRANCH  10  13
BRANCH  12  14
ATOM     14  C   UNL     1       5.726   0.351  23.781  0.00  0.00    +0.190 C 
BRANCH  14   4
ATOM      4  O   UNL     1       5.221   0.566  25.089  0.00  0.00    -0.392 OA
ATOM     33  H   UNL     1       5.904   1.052  25.582  0.00  0.00    +0.210 HD
ENDBRANCH  14   4
ENDBRANCH  12  14
TORSDOF 11
ENDMDL
MODEL 4
REMARK VINA RESULT:      -2.0      2.525      5.987
REMARK  Name = 28962187
REMARK  13 active torsions:
REMARK  status: ('A' for Active; 'I' for Inactive)
REMARK    1  A    between atoms: S_1  and  N_8
REMARK    2  A    between atoms: S_1  and  C_19
REMARK    3  A    between atoms: O_3  and  C_11
REMARK    4  A    between atoms: O_4  and  C_14
REMARK    5  A    between atoms: N_7  and  C_9
REMARK    6  A    between atoms: N_7  and  C_15
REMARK    7  A    between atoms: N_7  and  C_16
REMARK    8  A    between atoms: N_8  and  C_13
REMARK    9  A    between atoms: C_10  and  C_13
REMARK   10  A    between atoms: C_12  and  C_14
REMARK   11  A    between atoms: C_15  and  C_17
REMARK   12  A    between atoms: C_17  and  C_18
REMARK   13  A    between atoms: C_29  and  C_30
REMARK                            x       y       z     vdW  Elec       q    Type
REMARK                         _______ _______ _______ _____ _____    ______ ____
ROOT
ATOM      2  O   UNL     1      -3.469   3.423  23.418  0.00  0.00    -0.366 OA
ATOM      9  C   UNL     1      -1.278   3.077  24.280  0.00  0.00    +0.118 C 
ATOM     10  C   UNL     1      -2.262   2.665  23.178  0.00  0.00    +0.154 C 
ATOM     11  C   UNL     1      -2.195   3.522  25.410  0.00  0.00    +0.165 C 
ATOM     12  C   UNL     1      -3.306   4.201  24.619  0.00  0.00    +0.174 C 
ENDROOT
BRANCH  11   3
ATOM      3  O   UNL     1      -2.709   2.410  26.132  0.00  0.00    -0.388 OA
ATOM     31  H   UNL     1      -3.247   1.885  25.518  0.00  0.00    +0.210 HD
ENDBRANCH  11   3
BRANCH   9   7
ATOM      7  N   UNL     1      -0.277   2.091  24.647  0.00  0.00    -0.297 NA
ATOM     16  C   UNL     1       0.293   2.390  25.965  0.00  0.00    +0.105 C 
BRANCH   7  15
ATOM     15  C   UNL     1       0.789   2.030  23.641  0.00  0.00    +0.089 C 
BRANCH  15  17
ATOM     17  C   UNL     1       1.055   0.586  23.213  0.00  0.00    +0.050 C 
BRANCH  17  18
ATOM     18  C   UNL     1       2.524   0.252  23.279  0.00  0.00    -0.046 A 
ATOM     20  C   UNL     1       3.475   1.217  22.945  0.00  0.00    +0.003 A 
ATOM     21  C   UNL     1       2.933  -1.023  23.671  0.00  0.00    +0.003 A 
ATOM     24  C   UNL     1       4.834   0.907  23.005  0.00  0.00    +0.000 A 
ATOM     25  C   UNL     1       4.292  -1.332  23.732  0.00  0.00    +0.000 A 
ATOM     28  C   UNL     1       5.242  -0.367  23.398  0.00  0.00    +0.000 A 
ENDBRANCH  17  18
ENDBRANCH  15  17
ENDBRANCH   7  15
ENDBRANCH   9   7
BRANCH  10  13
ATOM     13  C   UNL     1      -2.655   1.193  23.127  0.00  0.00    +0.139 C 
BRANCH  13   8
ATOM      8  N   UNL     1      -4.060   1.047  23.549  0.00  0.00    -0.187 NA
ATOM     32  H   UNL     1      -4.626   1.904  23.524  0.00  0.00    +0.148 HD
BRANCH   8   1
ATOM      1  S   UNL     1      -4.501  -0.185  24.637  0.00  0.00    +0.058 S 
ATOM      5  O   UNL     1      -5.396  -1.114  23.971  0.00  0.00    -0.153 OA
ATOM      6  O   UNL     1      -4.881   0.413  25.903  0.00  0.00    -0.153 OA
BRANCH   1  19
ATOM     19  C   UNL     1      -2.958  -1.007  24.897  0.00  0.00    +0.105 A 
ATOM     22  C   UNL     1      -2.676  -2.191  24.216  0.00  0.00    +0.029 A 
ATOM     23  C   UNL     1      -2.024  -0.473  25.785  0.00  0.00    +0.029 A 
ATOM     26  C   UNL     1      -1.459  -2.842  24.423  0.00  0.00    +0.005 A 
ATOM     27  C   UNL     1      -0.807  -1.123  25.992  0.00  0.00    +0.005 A 
ATOM     29  C   UNL     1      -0.525  -2.307  25.311  0.00  0.00    -0.050 A 
ATOM     30  C   UNL     1       0.776  -3.003  25.532  0.00  0.00    +0.044 C 
ENDBRANCH   1  19
ENDBRANCH   8   1
ENDBRANCH  13   8
ENDBRANCH  10  13
BRANCH  12  14
ATOM     14  C   UNL     1      -4.642   4.311  25.331  0.00  0.00    +0.190 C 
BRANCH  14   4
ATOM      4  O   UNL     1      -5.379   3.120  25.107  0.00  0.00    -0.392 OA
ATOM     33  H   UNL     1      -6.321   3.358  25.135  0.00  0.00    +0.210 HD
ENDBRANCH  14   4
ENDBRANCH  12  14
TORSDOF 11
ENDMDL
MODEL 5
REMARK VINA RESULT:      -1.6      2.193      7.374
REMARK  Name = 28962187
REMARK  13 active torsions:
REMARK  status: ('A' for Active; 'I' for Inactive)
REMARK    1  A    between atoms: S_1  and  N_8
REMARK    2  A    between atoms: S_1  and  C_19
REMARK    3  A    between atoms: O_3  and  C_11
REMARK    4  A    between atoms: O_4  and  C_14
REMARK    5  A    between atoms: N_7  and  C_9
REMARK    6  A    between atoms: N_7  and  C_15
REMARK    7  A    between atoms: N_7  and  C_16
REMARK    8  A    between atoms: N_8  and  C_13
REMARK    9  A    between atoms: C_10  and  C_13
REMARK   10  A    between atoms: C_12  and  C_14
REMARK   11  A    between atoms: C_15  and  C_17
REMARK   12  A    between atoms: C_17  and  C_18
REMARK   13  A    between atoms: C_29  and  C_30
REMARK                            x       y       z     vdW  Elec       q    Type
REMARK                         _______ _______ _______ _____ _____    ______ ____
ROOT
ATOM      2  O   UNL     1      -1.362  -1.053  26.409  0.00  0.00    -0.366 OA
ATOM      9  C   UNL     1      -0.483  -0.329  24.320  0.00  0.00    +0.118 C 
ATOM     10  C   UNL     1      -0.585   0.009  25.812  0.00  0.00    +0.154 C 
ATOM     11  C   UNL     1      -1.724  -1.173  24.074  0.00  0.00    +0.165 C 
ATOM     12  C   UNL     1      -1.791  -1.960  25.377  0.00  0.00    +0.174 C 
ENDROOT
BRANCH  11   3
ATOM      3  O   UNL     1      -2.884  -0.364  23.924  0.00  0.00    -0.388 OA
ATOM     31  H   UNL     1      -3.073  -0.295  22.974  0.00  0.00    +0.210 HD
ENDBRANCH  11   3
BRANCH   9   7
ATOM      7  N   UNL     1      -0.311   0.797  23.418  0.00  0.00    -0.297 NA
ATOM     16  C   UNL     1      -0.954   0.534  22.126  0.00  0.00    +0.105 C 
BRANCH   7  15
ATOM     15  C   UNL     1       1.111   1.094  23.219  0.00  0.00    +0.089 C 
BRANCH  15  17
ATOM     17  C   UNL     1       1.830  -0.086  22.564  0.00  0.00    +0.050 C 
BRANCH  17  18
ATOM     18  C   UNL     1       3.254  -0.204  23.050  0.00  0.00    -0.046 A 
ATOM     20  C   UNL     1       4.115   0.889  22.956  0.00  0.00    +0.003 A 
ATOM     21  C   UNL     1       3.709  -1.407  23.590  0.00  0.00    +0.003 A 
ATOM     24  C   UNL     1       5.432   0.779  23.405  0.00  0.00    +0.000 A 
ATOM     25  C   UNL     1       5.026  -1.516  24.038  0.00  0.00    +0.000 A 
ATOM     28  C   UNL     1       5.887  -0.423  23.945  0.00  0.00    +0.000 A 
ENDBRANCH  17  18
ENDBRANCH  15  17
ENDBRANCH   7  15
ENDBRANCH   9   7
BRANCH  10  13
ATOM     13  C   UNL     1      -1.267   1.325  26.172  0.00  0.00    +0.139 C 
BRANCH  13   8
ATOM      8  N   UNL     1      -0.441   2.450  25.697  0.00  0.00    -0.187 NA
ATOM     32  H   UNL     1       0.440   2.603  26.204  0.00  0.00    +0.148 HD
BRANCH   8   1
ATOM      1  S   UNL     1      -1.170   3.775  24.917  0.00  0.00    +0.058 S 
ATOM      5  O   UNL     1      -0.684   3.853  23.552  0.00  0.00    -0.153 OA
ATOM      6  O   UNL     1      -1.097   4.935  25.785  0.00  0.00    -0.153 OA
BRANCH   1  19
ATOM     19  C   UNL     1      -2.865   3.275  24.864  0.00  0.00    +0.105 A 
ATOM     22  C   UNL     1      -3.700   3.530  25.951  0.00  0.00    +0.029 A 
ATOM     23  C   UNL     1      -3.365   2.624  23.736  0.00  0.00    +0.029 A 
ATOM     26  C   UNL     1      -5.037   3.134  25.910  0.00  0.00    +0.005 A 
ATOM     27  C   UNL     1      -4.702   2.227  23.696  0.00  0.00    +0.005 A 
ATOM     29  C   UNL     1      -5.538   2.482  24.783  0.00  0.00    -0.050 A 
ATOM     30  C   UNL     1      -6.967   2.059  24.740  0.00  0.00    +0.044 C 
ENDBRANCH   1  19
ENDBRANCH   8   1
ENDBRANCH  13   8
ENDBRANCH  10  13
BRANCH  12  14
ATOM     14  C   UNL     1      -3.157  -2.517  25.734  0.00  0.00    +0.190 C 
BRANCH  14   4
ATOM      4  O   UNL     1      -3.789  -2.975  24.550  0.00  0.00    -0.392 OA
ATOM     33  H   UNL     1      -3.512  -2.381  23.831  0.00  0.00    +0.210 HD
ENDBRANCH  14   4
ENDBRANCH  12  14
TORSDOF 11
ENDMDL
MODEL 6
REMARK VINA RESULT:      -1.6      2.761      7.256
REMARK  Name = 28962187
REMARK  13 active torsions:
REMARK  status: ('A' for Active; 'I' for Inactive)
REMARK    1  A    between atoms: S_1  and  N_8
REMARK    2  A    between atoms: S_1  and  C_19
REMARK    3  A    between atoms: O_3  and  C_11
REMARK    4  A    between atoms: O_4  and  C_14
REMARK    5  A    between atoms: N_7  and  C_9
REMARK    6  A    between atoms: N_7  and  C_15
REMARK    7  A    between atoms: N_7  and  C_16
REMARK    8  A    between atoms: N_8  and  C_13
REMARK    9  A    between atoms: C_10  and  C_13
REMARK   10  A    between atoms: C_12  and  C_14
REMARK   11  A    between atoms: C_15  and  C_17
REMARK   12  A    between atoms: C_17  and  C_18
REMARK   13  A    between atoms: C_29  and  C_30
REMARK                            x       y       z     vdW  Elec       q    Type
REMARK                         _______ _______ _______ _____ _____    ______ ____
ROOT
ATOM      2  O   UNL     1      -3.441  -1.287  25.769  0.00  0.00    -0.366 OA
ATOM      9  C   UNL     1      -1.232  -0.536  25.299  0.00  0.00    +0.118 C 
ATOM     10  C   UNL     1      -2.696  -0.096  25.430  0.00  0.00    +0.154 C 
ATOM     11  C   UNL     1      -1.348  -2.007  24.933  0.00  0.00    +0.165 C 
ATOM     12  C   UNL     1      -2.546  -2.415  25.782  0.00  0.00    +0.174 C 
ENDROOT
BRANCH  11   3
ATOM      3  O   UNL     1      -1.637  -2.180  23.552  0.00  0.00    -0.388 OA
ATOM     31  H   UNL     1      -2.404  -2.773  23.484  0.00  0.00    +0.210 HD
ENDBRANCH  11   3
BRANCH   9   7
ATOM      7  N   UNL     1      -0.401   0.260  24.412  0.00  0.00    -0.297 NA
ATOM     16  C   UNL     1      -1.212   1.215  23.652  0.00  0.00    +0.105 C 
BRANCH   7  15
ATOM     15  C   UNL     1       0.353  -0.601  23.494  0.00  0.00    +0.089 C 
BRANCH  15  17
ATOM     17  C   UNL     1       1.300   0.226  22.622  0.00  0.00    +0.050 C 
BRANCH  17  18
ATOM     18  C   UNL     1       2.741   0.003  23.007  0.00  0.00    -0.046 A 
ATOM     20  C   UNL     1       3.666   1.040  22.877  0.00  0.00    +0.003 A 
ATOM     21  C   UNL     1       3.150  -1.239  23.492  0.00  0.00    +0.003 A 
ATOM     24  C   UNL     1       4.999   0.834  23.232  0.00  0.00    +0.000 A 
ATOM     25  C   UNL     1       4.484  -1.445  23.847  0.00  0.00    +0.000 A 
ATOM     28  C   UNL     1       5.408  -0.408  23.717  0.00  0.00    +0.000 A 
ENDBRANCH  17  18
ENDBRANCH  15  17
ENDBRANCH   7  15
ENDBRANCH   9   7
BRANCH  10  13
ATOM     13  C   UNL     1      -3.344   0.503  24.186  0.00  0.00    +0.139 C 
BRANCH  13   8
ATOM      8  N   UNL     1      -4.806   0.551  24.372  0.00  0.00    -0.187 NA
ATOM     32  H   UNL     1      -5.362   0.023  23.687  0.00  0.00    +0.148 HD
BRANCH   8   1
ATOM      1  S   UNL     1      -5.525   1.886  25.144  0.00  0.00    +0.058 S 
ATOM      5  O   UNL     1      -5.775   1.558  26.535  0.00  0.00    -0.153 OA
ATOM      6  O   UNL     1      -6.598   2.394  24.310  0.00  0.00    -0.153 OA
BRANCH   1  19
ATOM     19  C   UNL     1      -4.222   3.079  25.091  0.00  0.00    +0.105 A 
ATOM     22  C   UNL     1      -3.916   3.724  23.893  0.00  0.00    +0.029 A 
ATOM     23  C   UNL     1      -3.498   3.373  26.247  0.00  0.00    +0.029 A 
ATOM     26  C   UNL     1      -2.886   4.664  23.850  0.00  0.00    +0.005 A 
ATOM     27  C   UNL     1      -2.468   4.313  26.204  0.00  0.00    +0.005 A 
ATOM     29  C   UNL     1      -2.162   4.958  25.006  0.00  0.00    -0.050 A 
ATOM     30  C   UNL     1      -1.060   5.963  24.961  0.00  0.00    +0.044 C 
ENDBRANCH   1  19
ENDBRANCH   8   1
ENDBRANCH  13   8
ENDBRANCH  10  13
BRANCH  12  14
ATOM     14  C   UNL     1      -3.290  -3.651  25.311  0.00  0.00    +0.190 C 
BRANCH  14   4
ATOM      4  O   UNL     1      -4.032  -3.324  24.147  0.00  0.00    -0.392 OA
ATOM     33  H   UNL     1      -3.461  -3.511  23.382  0.00  0.00    +0.210 HD
ENDBRANCH  14   4
ENDBRANCH  12  14
TORSDOF 11
ENDMDL
MODEL 7
REMARK VINA RESULT:      -1.6      2.135      5.954
REMARK  Name = 28962187
REMARK  13 active torsions:
REMARK  status: ('A' for Active; 'I' for Inactive)
REMARK    1  A    between atoms: S_1  and  N_8
REMARK    2  A    between atoms: S_1  and  C_19
REMARK    3  A    between atoms: O_3  and  C_11
REMARK    4  A    between atoms: O_4  and  C_14
REMARK    5  A    between atoms: N_7  and  C_9
REMARK    6  A    between atoms: N_7  and  C_15
REMARK    7  A    between atoms: N_7  and  C_16
REMARK    8  A    between atoms: N_8  and  C_13
REMARK    9  A    between atoms: C_10  and  C_13
REMARK   10  A    between atoms: C_12  and  C_14
REMARK   11  A    between atoms: C_15  and  C_17
REMARK   12  A    between atoms: C_17  and  C_18
REMARK   13  A    between atoms: C_29  and  C_30
REMARK                            x       y       z     vdW  Elec       q    Type
REMARK                         _______ _______ _______ _____ _____    ______ ____
ROOT
ATOM      2  O   UNL     1       2.004   1.645  23.656  0.00  0.00    -0.366 OA
ATOM      9  C   UNL     1      -0.160   0.904  23.000  0.00  0.00    +0.118 C 
ATOM     10  C   UNL     1       0.603   1.975  23.789  0.00  0.00    +0.154 C 
ATOM     11  C   UNL     1       0.787  -0.286  23.033  0.00  0.00    +0.165 C 
ATOM     12  C   UNL     1       2.131   0.421  22.908  0.00  0.00    +0.174 C 
ENDROOT
BRANCH  11   3
ATOM      3  O   UNL     1       0.706  -0.983  24.269  0.00  0.00    -0.388 OA
ATOM     31  H   UNL     1       1.579  -1.372  24.445  0.00  0.00    +0.210 HD
ENDBRANCH  11   3
BRANCH   9   7
ATOM      7  N   UNL     1      -1.516   0.628  23.440  0.00  0.00    -0.297 NA
ATOM     16  C   UNL     1      -2.487   1.403  22.661  0.00  0.00    +0.105 C 
BRANCH   7  15
ATOM     15  C   UNL     1      -1.671   0.921  24.868  0.00  0.00    +0.089 C 
BRANCH  15  17
ATOM     17  C   UNL     1      -3.022   0.425  25.387  0.00  0.00    +0.050 C 
BRANCH  17  18
ATOM     18  C   UNL     1      -3.335  -0.959  24.876  0.00  0.00    -0.046 A 
ATOM     20  C   UNL     1      -2.529  -2.037  25.244  0.00  0.00    +0.003 A 
ATOM     21  C   UNL     1      -4.430  -1.162  24.036  0.00  0.00    +0.003 A 
ATOM     24  C   UNL     1      -2.819  -3.317  24.772  0.00  0.00    +0.000 A 
ATOM     25  C   UNL     1      -4.719  -2.442  23.563  0.00  0.00    +0.000 A 
ATOM     28  C   UNL     1      -3.913  -3.520  23.931  0.00  0.00    +0.000 A 
ENDBRANCH  17  18
ENDBRANCH  15  17
ENDBRANCH   7  15
ENDBRANCH   9   7
BRANCH  10  13
ATOM     13  C   UNL     1       0.302   2.071  25.280  0.00  0.00    +0.139 C 
BRANCH  13   8
ATOM      8  N   UNL     1       0.171   3.489  25.662  0.00  0.00    -0.187 NA
ATOM     32  H   UNL     1       0.216   3.687  26.670  0.00  0.00    +0.148 HD
BRANCH   8   1
ATOM      1  S   UNL     1      -0.679   4.570  24.660  0.00  0.00    +0.058 S 
ATOM      5  O   UNL     1      -0.403   4.253  23.271  0.00  0.00    -0.153 OA
ATOM      6  O   UNL     1      -0.491   5.921  25.152  0.00  0.00    -0.153 OA
BRANCH   1  19
ATOM     19  C   UNL     1      -2.358   4.128  24.996  0.00  0.00    +0.105 A 
ATOM     22  C   UNL     1      -2.798   4.016  26.314  0.00  0.00    +0.029 A 
ATOM     23  C   UNL     1      -3.240   3.889  23.942  0.00  0.00    +0.029 A 
ATOM     26  C   UNL     1      -4.122   3.665  26.580  0.00  0.00    +0.005 A 
ATOM     27  C   UNL     1      -4.564   3.538  24.208  0.00  0.00    +0.005 A 
ATOM     29  C   UNL     1      -5.005   3.426  25.526  0.00  0.00    -0.050 A 
ATOM     30  C   UNL     1      -6.420   3.051  25.810  0.00  0.00    +0.044 C 
ENDBRANCH   1  19
ENDBRANCH   8   1
ENDBRANCH  13   8
ENDBRANCH  10  13
BRANCH  12  14
ATOM     14  C   UNL     1       3.329  -0.358  23.421  0.00  0.00    +0.190 C 
BRANCH  14   4
ATOM      4  O   UNL     1       4.400   0.544  23.647  0.00  0.00    -0.392 OA
ATOM     33  H   UNL     1       4.973   0.144  24.323  0.00  0.00    +0.210 HD
ENDBRANCH  14   4
ENDBRANCH  12  14
TORSDOF 11
ENDMDL
MODEL 8
REMARK VINA RESULT:      -1.4      2.354      7.214
REMARK  Name = 28962187
REMARK  13 active torsions:
REMARK  status: ('A' for Active; 'I' for Inactive)
REMARK    1  A    between atoms: S_1  and  N_8
REMARK    2  A    between atoms: S_1  and  C_19
REMARK    3  A    between atoms: O_3  and  C_11
REMARK    4  A    between atoms: O_4  and  C_14
REMARK    5  A    between atoms: N_7  and  C_9
REMARK    6  A    between atoms: N_7  and  C_15
REMARK    7  A    between atoms: N_7  and  C_16
REMARK    8  A    between atoms: N_8  and  C_13
REMARK    9  A    between atoms: C_10  and  C_13
REMARK   10  A    between atoms: C_12  and  C_14
REMARK   11  A    between atoms: C_15  and  C_17
REMARK   12  A    between atoms: C_17  and  C_18
REMARK   13  A    between atoms: C_29  and  C_30
REMARK                            x       y       z     vdW  Elec       q    Type
REMARK                         _______ _______ _______ _____ _____    ______ ____
ROOT
ATOM      2  O   UNL     1      -1.060   3.045  23.790  0.00  0.00    -0.366 OA
ATOM      9  C   UNL     1       0.067   0.950  23.743  0.00  0.00    +0.118 C 
ATOM     10  C   UNL     1      -0.995   1.808  23.045  0.00  0.00    +0.154 C 
ATOM     11  C   UNL     1       0.049   1.475  25.171  0.00  0.00    +0.165 C 
ATOM     12  C   UNL     1      -0.171   2.962  24.919  0.00  0.00    +0.174 C 
ENDROOT
BRANCH  11   3
ATOM      3  O   UNL     1      -1.036   0.933  25.912  0.00  0.00    -0.388 OA
ATOM     31  H   UNL     1      -1.730   0.684  25.279  0.00  0.00    +0.210 HD
ENDBRANCH  11   3
BRANCH   9   7
ATOM      7  N   UNL     1      -0.083  -0.489  23.612  0.00  0.00    -0.297 NA
ATOM     16  C   UNL     1       0.082  -1.152  24.909  0.00  0.00    +0.105 C 
BRANCH   7  15
ATOM     15  C   UNL     1       0.880  -1.028  22.646  0.00  0.00    +0.089 C 
BRANCH  15  17
ATOM     17  C   UNL     1       1.861   0.053  22.190  0.00  0.00    +0.050 C 
BRANCH  17  18
ATOM     18  C   UNL     1       3.209  -0.112  22.845  0.00  0.00    -0.046 A 
ATOM     20  C   UNL     1       3.555  -1.329  23.432  0.00  0.00    +0.003 A 
ATOM     21  C   UNL     1       4.110   0.953  22.867  0.00  0.00    +0.003 A 
ATOM     24  C   UNL     1       4.802  -1.482  24.038  0.00  0.00    +0.000 A 
ATOM     25  C   UNL     1       5.356   0.801  23.474  0.00  0.00    +0.000 A 
ATOM     28  C   UNL     1       5.702  -0.417  24.060  0.00  0.00    +0.000 A 
ENDBRANCH  17  18
ENDBRANCH  15  17
ENDBRANCH   7  15
ENDBRANCH   9   7
BRANCH  10  13
ATOM     13  C   UNL     1      -2.408   1.238  22.990  0.00  0.00    +0.139 C 
BRANCH  13   8
ATOM      8  N   UNL     1      -2.444  -0.050  23.705  0.00  0.00    -0.187 NA
ATOM     32  H   UNL     1      -1.891  -0.809  23.287  0.00  0.00    +0.148 HD
BRANCH   8   1
ATOM      1  S   UNL     1      -3.791  -0.459  24.661  0.00  0.00    +0.058 S 
ATOM      5  O   UNL     1      -3.333  -0.979  25.936  0.00  0.00    -0.153 OA
ATOM      6  O   UNL     1      -4.730  -1.219  23.858  0.00  0.00    -0.153 OA
BRANCH   1  19
ATOM     19  C   UNL     1      -4.523   1.124  24.950  0.00  0.00    +0.105 A 
ATOM     22  C   UNL     1      -4.158   2.214  24.161  0.00  0.00    +0.029 A 
ATOM     23  C   UNL     1      -5.464   1.282  25.968  0.00  0.00    +0.029 A 
ATOM     26  C   UNL     1      -4.734   3.464  24.390  0.00  0.00    +0.005 A 
ATOM     27  C   UNL     1      -6.039   2.532  26.197  0.00  0.00    +0.005 A 
ATOM     29  C   UNL     1      -5.674   3.623  25.409  0.00  0.00    -0.050 A 
ATOM     30  C   UNL     1      -6.289   4.959  25.653  0.00  0.00    +0.044 C 
ENDBRANCH   1  19
ENDBRANCH   8   1
ENDBRANCH  13   8
ENDBRANCH  10  13
BRANCH  12  14
ATOM     14  C   UNL     1      -0.762   3.741  26.081  0.00  0.00    +0.190 C 
BRANCH  14   4
ATOM      4  O   UNL     1      -2.129   3.389  26.220  0.00  0.00    -0.392 OA
ATOM     33  H   UNL     1      -2.327   3.382  27.172  0.00  0.00    +0.210 HD
ENDBRANCH  14   4
ENDBRANCH  12  14
TORSDOF 11
ENDMDL
MODEL 9
REMARK VINA RESULT:      -1.3      2.583      6.113
REMARK  Name = 28962187
REMARK  13 active torsions:
REMARK  status: ('A' for Active; 'I' for Inactive)
REMARK    1  A    between atoms: S_1  and  N_8
REMARK    2  A    between atoms: S_1  and  C_19
REMARK    3  A    between atoms: O_3  and  C_11
REMARK    4  A    between atoms: O_4  and  C_14
REMARK    5  A    between atoms: N_7  and  C_9
REMARK    6  A    between atoms: N_7  and  C_15
REMARK    7  A    between atoms: N_7  and  C_16
REMARK    8  A    between atoms: N_8  and  C_13
REMARK    9  A    between atoms: C_10  and  C_13
REMARK   10  A    between atoms: C_12  and  C_14
REMARK   11  A    between atoms: C_15  and  C_17
REMARK   12  A    between atoms: C_17  and  C_18
REMARK   13  A    between atoms: C_29  and  C_30
REMARK                            x       y       z     vdW  Elec       q    Type
REMARK                         _______ _______ _______ _____ _____    ______ ____
ROOT
ATOM      2  O   UNL     1       0.289   1.151  22.797  0.00  0.00    -0.366 OA
ATOM      9  C   UNL     1      -0.496  -0.362  24.458  0.00  0.00    +0.118 C 
ATOM     10  C   UNL     1      -0.303   1.120  24.115  0.00  0.00    +0.154 C 
ATOM     11  C   UNL     1       0.572  -1.049  23.621  0.00  0.00    +0.165 C 
ATOM     12  C   UNL     1       0.529  -0.199  22.357  0.00  0.00    +0.174 C 
ENDROOT
BRANCH  11   3
ATOM      3  O   UNL     1       1.851  -0.961  24.234  0.00  0.00    -0.388 OA
ATOM     31  H   UNL     1       1.730  -1.093  25.188  0.00  0.00    +0.210 HD
ENDBRANCH  11   3
BRANCH   9   7
ATOM      7  N   UNL     1      -0.488  -0.701  25.871  0.00  0.00    -0.297 NA
ATOM     16  C   UNL     1      -0.358  -2.149  26.060  0.00  0.00    +0.105 C 
BRANCH   7  15
ATOM     15  C   UNL     1      -1.705  -0.215  26.530  0.00  0.00    +0.089 C 
BRANCH  15  17
ATOM     17  C   UNL     1      -2.691  -1.359  26.770  0.00  0.00    +0.050 C 
BRANCH  17  18
ATOM     18  C   UNL     1      -3.377  -1.775  25.492  0.00  0.00    -0.046 A 
ATOM     20  C   UNL     1      -4.035  -0.823  24.713  0.00  0.00    +0.003 A 
ATOM     21  C   UNL     1      -3.356  -3.110  25.091  0.00  0.00    +0.003 A 
ATOM     24  C   UNL     1      -4.670  -1.207  23.531  0.00  0.00    +0.000 A 
ATOM     25  C   UNL     1      -3.992  -3.494  23.910  0.00  0.00    +0.000 A 
ATOM     28  C   UNL     1      -4.649  -2.543  23.130  0.00  0.00    +0.000 A 
ENDBRANCH  17  18
ENDBRANCH  15  17
ENDBRANCH   7  15
ENDBRANCH   9   7
BRANCH  10  13
ATOM     13  C   UNL     1       0.607   1.923  25.038  0.00  0.00    +0.139 C 
BRANCH  13   8
ATOM      8  N   UNL     1      -0.170   2.999  25.678  0.00  0.00    -0.187 NA
ATOM     32  H   UNL     1      -0.523   2.796  26.622  0.00  0.00    +0.148 HD
BRANCH   8   1
ATOM      1  S   UNL     1      -1.012   4.129  24.723  0.00  0.00    +0.058 S 
ATOM      5  O   UNL     1      -0.544   4.040  23.352  0.00  0.00    -0.153 OA
ATOM      6  O   UNL     1      -1.029   5.408  25.407  0.00  0.00    -0.153 OA
BRANCH   1  19
ATOM     19  C   UNL     1      -2.660   3.492  24.779  0.00  0.00    +0.105 A 
ATOM     22  C   UNL     1      -3.183   2.817  23.677  0.00  0.00    +0.029 A 
ATOM     23  C   UNL     1      -3.437   3.669  25.923  0.00  0.00    +0.029 A 
ATOM     26  C   UNL     1      -4.485   2.316  23.720  0.00  0.00    +0.005 A 
ATOM     27  C   UNL     1      -4.739   3.168  25.966  0.00  0.00    +0.005 A 
ATOM     29  C   UNL     1      -5.263   2.493  24.864  0.00  0.00    -0.050 A 
ATOM     30  C   UNL     1      -6.654   1.957  24.910  0.00  0.00    +0.044 C 
ENDBRANCH   1  19
ENDBRANCH   8   1
ENDBRANCH  13   8
ENDBRANCH  10  13
BRANCH  12  14
ATOM     14  C   UNL     1       1.784  -0.233  21.503  0.00  0.00    +0.190 C 
BRANCH  14   4
ATOM      4  O   UNL     1       2.805   0.498  22.162  0.00  0.00    -0.392 OA
ATOM     33  H   UNL     1       3.397  -0.151  22.579  0.00  0.00    +0.210 HD
ENDBRANCH  14   4
ENDBRANCH  12  14
TORSDOF 11
ENDMDL
MODEL 10
REMARK VINA RESULT:      -1.1      1.869      4.475
REMARK  Name = 28962187
REMARK  13 active torsions:
REMARK  status: ('A' for Active; 'I' for Inactive)
REMARK    1  A    between atoms: S_1  and  N_8
REMARK    2  A    between atoms: S_1  and  C_19
REMARK    3  A    between atoms: O_3  and  C_11
REMARK    4  A    between atoms: O_4  and  C_14
REMARK    5  A    between atoms: N_7  and  C_9
REMARK    6  A    between atoms: N_7  and  C_15
REMARK    7  A    between atoms: N_7  and  C_16
REMARK    8  A    between atoms: N_8  and  C_13
REMARK    9  A    between atoms: C_10  and  C_13
REMARK   10  A    between atoms: C_12  and  C_14
REMARK   11  A    between atoms: C_15  and  C_17
REMARK   12  A    between atoms: C_17  and  C_18
REMARK   13  A    between atoms: C_29  and  C_30
REMARK                            x       y       z     vdW  Elec       q    Type
REMARK                         _______ _______ _______ _____ _____    ______ ____
ROOT
ATOM      2  O   UNL     1      -3.591  -0.464  23.018  0.00  0.00    -0.366 OA
ATOM      9  C   UNL     1      -4.854   0.847  24.550  0.00  0.00    +0.118 C 
ATOM     10  C   UNL     1      -3.800   0.902  23.437  0.00  0.00    +0.154 C 
ATOM     11  C   UNL     1      -4.681  -0.555  25.116  0.00  0.00    +0.165 C 
ATOM     12  C   UNL     1      -4.386  -1.337  23.842  0.00  0.00    +0.174 C 
ENDROOT
BRANCH  11   3
ATOM      3  O   UNL     1      -3.577  -0.624  26.008  0.00  0.00    -0.388 OA
ATOM     31  H   UNL     1      -3.852  -1.150  26.777  0.00  0.00    +0.210 HD
ENDBRANCH  11   3
BRANCH   9   7
ATOM      7  N   UNL     1      -4.811   1.919  25.529  0.00  0.00    -0.297 NA
ATOM     16  C   UNL     1      -5.985   1.874  26.406  0.00  0.00    +0.105 C 
BRANCH   7  15
ATOM     15  C   UNL     1      -4.729   3.225  24.868  0.00  0.00    +0.089 C 
BRANCH  15  17
ATOM     17  C   UNL     1      -4.002   4.241  25.751  0.00  0.00    +0.050 C 
BRANCH  17  18
ATOM     18  C   UNL     1      -2.505   4.127  25.607  0.00  0.00    -0.046 A 
ATOM     20  C   UNL     1      -1.811   3.140  26.306  0.00  0.00    +0.003 A 
ATOM     21  C   UNL     1      -1.814   5.011  24.778  0.00  0.00    +0.003 A 
ATOM     24  C   UNL     1      -0.426   3.035  26.174  0.00  0.00    +0.000 A 
ATOM     25  C   UNL     1      -0.429   4.906  24.646  0.00  0.00    +0.000 A 
ATOM     28  C   UNL     1       0.265   3.918  25.345  0.00  0.00    +0.000 A 
ENDBRANCH  17  18
ENDBRANCH  15  17
ENDBRANCH   7  15
ENDBRANCH   9   7
BRANCH  10  13
ATOM     13  C   UNL     1      -2.438   1.473  23.813  0.00  0.00    +0.139 C 
BRANCH  13   8
ATOM      8  N   UNL     1      -1.377   0.630  23.234  0.00  0.00    -0.187 NA
ATOM     32  H   UNL     1      -1.447   0.453  22.223  0.00  0.00    +0.148 HD
BRANCH   8   1
ATOM      1  S   UNL     1      -0.569  -0.512  24.203  0.00  0.00    +0.058 S 
ATOM      5  O   UNL     1      -0.917  -1.849  23.759  0.00  0.00    -0.153 OA
ATOM      6  O   UNL     1      -0.721  -0.144  25.597  0.00  0.00    -0.153 OA
BRANCH   1  19
ATOM     19  C   UNL     1       1.121  -0.218  23.774  0.00  0.00    +0.105 A 
ATOM     22  C   UNL     1       1.536   1.064  23.417  0.00  0.00    +0.029 A 
ATOM     23  C   UNL     1       2.037  -1.270  23.789  0.00  0.00    +0.029 A 
ATOM     26  C   UNL     1       2.869   1.296  23.076  0.00  0.00    +0.005 A 
ATOM     27  C   UNL     1       3.370  -1.038  23.448  0.00  0.00    +0.005 A 
ATOM     29  C   UNL     1       3.786   0.244  23.091  0.00  0.00    -0.050 A 
ATOM     30  C   UNL     1       5.210   0.492  22.726  0.00  0.00    +0.044 C 
ENDBRANCH   1  19
ENDBRANCH   8   1
ENDBRANCH  13   8
ENDBRANCH  10  13
BRANCH  12  14
ATOM     14  C   UNL     1      -3.650  -2.650  24.039  0.00  0.00    +0.190 C 
BRANCH  14   4
ATOM      4  O   UNL     1      -3.478  -2.876  25.429  0.00  0.00    -0.392 OA
ATOM     33  H   UNL     1      -2.608  -3.293  25.545  0.00  0.00    +0.210 HD
ENDBRANCH  14   4
ENDBRANCH  12  14
TORSDOF 11
ENDMDL
