MODEL 1
REMARK VINA RESULT:       3.1      0.000      0.000
REMARK  Name = 25389993
REMARK  10 active torsions:
REMARK  status: ('A' for Active; 'I' for Inactive)
REMARK    1  A    between atoms: O_1  and  C_20
REMARK    2  A    between atoms: O_1  and  C_32
REMARK    3  A    between atoms: O_3  and  C_27
REMARK    4  A    between atoms: O_3  and  C_33
REMARK    5  A    between atoms: O_4  and  C_26
REMARK    6  A    between atoms: N_7  and  C_11
REMARK    7  A    between atoms: N_7  and  C_21
REMARK    8  A    between atoms: C_9  and  C_17
REMARK    9  A    between atoms: C_13  and  C_20
REMARK   10  A    between atoms: C_21  and  C_26
REMARK                            x       y       z     vdW  Elec       q    Type
REMARK                         _______ _______ _______ _____ _____    ______ ____
ROOT
ATOM      5  N   UNL     1      -1.017   0.879  24.343  0.00  0.00    -0.274 NA
ATOM      6  N   UNL     1      -4.330   1.795  25.857  0.00  0.00    -0.356 N 
ATOM      8  C   UNL     1      -2.060   0.703  25.401  0.00  0.00    +0.106 C 
ATOM      9  C   UNL     1       0.058  -0.140  24.448  0.00  0.00    +0.090 C 
ATOM     10  C   UNL     1      -2.684  -0.698  25.322  0.00  0.00    +0.044 C 
ATOM     11  C   UNL     1      -1.608  -1.772  25.477  0.00  0.00    +0.057 C 
ATOM     12  C   UNL     1      -0.528  -1.572  24.415  0.00  0.00    +0.042 C 
ATOM     13  C   UNL     1      -0.538   2.283  24.229  0.00  0.00    +0.172 C 
ATOM     14  C   UNL     1      -3.096   1.780  25.270  0.00  0.00    +0.038 A 
ATOM     15  C   UNL     1      -1.673   3.271  23.853  0.00  0.00    +0.068 C 
ATOM     16  C   UNL     1      -2.932   2.963  24.585  0.00  0.00    -0.016 A 
ATOM     18  C   UNL     1      -4.127   3.719  24.730  0.00  0.00    +0.003 A 
ATOM     19  C   UNL     1      -4.988   2.962  25.532  0.00  0.00    +0.047 A 
ATOM     24  C   UNL     1      -4.565   4.974  24.263  0.00  0.00    +0.010 A 
ATOM     25  C   UNL     1      -6.268   3.403  25.889  0.00  0.00    +0.026 A 
ATOM     28  C   UNL     1      -5.843   5.426  24.612  0.00  0.00    +0.001 A 
ATOM     30  C   UNL     1      -6.680   4.650  25.412  0.00  0.00    +0.002 A 
ATOM     34  H   UNL     1      -4.712   1.065  26.442  0.00  0.00    +0.166 HD
ENDROOT
BRANCH   9  17
ATOM     17  C   UNL     1       1.115  -0.047  23.351  0.00  0.00    -0.027 A 
ATOM     22  C   UNL     1       2.377   0.474  23.640  0.00  0.00    +0.050 A 
ATOM     23  C   UNL     1       0.820  -0.485  22.060  0.00  0.00    +0.005 A 
ATOM     27  C   UNL     1       3.343   0.558  22.637  0.00  0.00    +0.120 A 
ATOM     29  C   UNL     1       1.787  -0.402  21.058  0.00  0.00    +0.004 A 
ATOM     31  C   UNL     1       3.048   0.120  21.346  0.00  0.00    +0.045 A 
BRANCH  27   3
ATOM      3  O   UNL     1       4.573   1.065  22.920  0.00  0.00    -0.495 OA
ATOM     33  C   UNL     1       5.415   0.291  23.773  0.00  0.00    +0.277 C 
ENDBRANCH  27   3
ENDBRANCH   9  17
BRANCH  13  20
ATOM      2  O   UNL     1       1.011   2.053  26.062  0.00  0.00    -0.249 OA
ATOM     20  C   UNL     1       0.147   2.710  25.495  0.00  0.00    +0.325 C 
BRANCH  20   1
ATOM      1  O   UNL     1      -0.342   3.918  25.895  0.00  0.00    -0.467 OA
ATOM     32  C   UNL     1      -0.303   4.954  24.909  0.00  0.00    +0.280 C 
ENDBRANCH  20   1
ENDBRANCH  13  20
BRANCH  11   7
ATOM      7  N   UNL     1      -2.206  -3.102  25.369  0.00  0.00    -0.311 NA
ATOM     35  H   UNL     1      -1.782  -3.610  24.592  0.00  0.00    +0.122 HD
BRANCH   7  21
ATOM     21  C   UNL     1      -3.638  -3.007  25.140  0.00  0.00    +0.109 C 
BRANCH  21  26
ATOM     26  C   UNL     1      -3.944  -2.974  23.651  0.00  0.00    +0.171 C 
BRANCH  26   4
ATOM      4  O   UNL     1      -4.588  -1.744  23.344  0.00  0.00    -0.394 OA
ATOM     36  H   UNL     1      -3.949  -1.034  23.530  0.00  0.00    +0.209 HD
ENDBRANCH  26   4
ENDBRANCH  21  26
ENDBRANCH   7  21
ENDBRANCH  11   7
TORSDOF 8
ENDMDL
MODEL 2
REMARK VINA RESULT:       4.5      2.080      6.567
REMARK  Name = 25389993
REMARK  10 active torsions:
REMARK  status: ('A' for Active; 'I' for Inactive)
REMARK    1  A    between atoms: O_1  and  C_20
REMARK    2  A    between atoms: O_1  and  C_32
REMARK    3  A    between atoms: O_3  and  C_27
REMARK    4  A    between atoms: O_3  and  C_33
REMARK    5  A    between atoms: O_4  and  C_26
REMARK    6  A    between atoms: N_7  and  C_11
REMARK    7  A    between atoms: N_7  and  C_21
REMARK    8  A    between atoms: C_9  and  C_17
REMARK    9  A    between atoms: C_13  and  C_20
REMARK   10  A    between atoms: C_21  and  C_26
REMARK                            x       y       z     vdW  Elec       q    Type
REMARK                         _______ _______ _______ _____ _____    ______ ____
ROOT
ATOM      5  N   UNL     1      -1.866   0.884  24.304  0.00  0.00    -0.274 NA
ATOM      6  N   UNL     1       1.218  -1.104  23.501  0.00  0.00    -0.356 N 
ATOM      8  C   UNL     1      -1.215  -0.378  23.837  0.00  0.00    +0.106 C 
ATOM      9  C   UNL     1      -3.332   0.721  24.476  0.00  0.00    +0.090 C 
ATOM     10  C   UNL     1      -1.482  -1.525  24.823  0.00  0.00    +0.044 C 
ATOM     11  C   UNL     1      -2.984  -1.752  24.986  0.00  0.00    +0.057 C 
ATOM     12  C   UNL     1      -3.653  -0.453  25.433  0.00  0.00    +0.042 C 
ATOM     13  C   UNL     1      -1.459   2.074  23.509  0.00  0.00    +0.172 C 
ATOM     14  C   UNL     1       0.255  -0.145  23.644  0.00  0.00    +0.038 A 
ATOM     15  C   UNL     1       0.065   2.348  23.585  0.00  0.00    +0.068 C 
ATOM     16  C   UNL     1       0.853   1.088  23.509  0.00  0.00    -0.016 A 
ATOM     18  C   UNL     1       2.245   0.875  23.310  0.00  0.00    +0.003 A 
ATOM     19  C   UNL     1       2.446  -0.509  23.311  0.00  0.00    +0.047 A 
ATOM     24  C   UNL     1       3.356   1.722  23.126  0.00  0.00    +0.010 A 
ATOM     25  C   UNL     1       3.709  -1.086  23.137  0.00  0.00    +0.026 A 
ATOM     28  C   UNL     1       4.625   1.156  22.952  0.00  0.00    +0.001 A 
ATOM     30  C   UNL     1       4.796  -0.227  22.958  0.00  0.00    +0.002 A 
ATOM     34  H   UNL     1       1.062  -2.102  23.531  0.00  0.00    +0.166 HD
ENDROOT
BRANCH   9  17
ATOM     17  C   UNL     1      -4.039   1.963  25.015  0.00  0.00    -0.027 A 
ATOM     22  C   UNL     1      -3.301   3.104  25.330  0.00  0.00    +0.050 A 
ATOM     23  C   UNL     1      -5.422   1.956  25.190  0.00  0.00    +0.005 A 
ATOM     27  C   UNL     1      -3.947   4.238  25.822  0.00  0.00    +0.120 A 
ATOM     29  C   UNL     1      -6.068   3.091  25.681  0.00  0.00    +0.004 A 
ATOM     31  C   UNL     1      -5.330   4.232  25.997  0.00  0.00    +0.045 A 
BRANCH  27   3
ATOM      3  O   UNL     1      -3.227   5.351  26.128  0.00  0.00    -0.495 OA
ATOM     33  C   UNL     1      -2.008   5.554  25.413  0.00  0.00    +0.277 C 
ENDBRANCH  27   3
ENDBRANCH   9  17
BRANCH  13  20
ATOM      2  O   UNL     1      -1.765   0.917  21.416  0.00  0.00    -0.249 OA
ATOM     20  C   UNL     1      -1.908   1.934  22.083  0.00  0.00    +0.325 C 
BRANCH  20   1
ATOM      1  O   UNL     1      -2.486   3.097  21.669  0.00  0.00    -0.467 OA
ATOM     32  C   UNL     1      -3.886   3.219  21.938  0.00  0.00    +0.280 C 
ENDBRANCH  20   1
ENDBRANCH  13  20
BRANCH  11   7
ATOM      7  N   UNL     1      -3.231  -2.823  25.950  0.00  0.00    -0.311 NA
ATOM     35  H   UNL     1      -2.373  -3.035  26.460  0.00  0.00    +0.122 HD
BRANCH   7  21
ATOM     21  C   UNL     1      -3.685  -4.029  25.277  0.00  0.00    +0.109 C 
BRANCH  21  26
ATOM     26  C   UNL     1      -3.815  -3.793  23.781  0.00  0.00    +0.171 C 
BRANCH  26   4
ATOM      4  O   UNL     1      -4.893  -2.896  23.551  0.00  0.00    -0.394 OA
ATOM     36  H   UNL     1      -4.762  -2.135  24.142  0.00  0.00    +0.209 HD
ENDBRANCH  26   4
ENDBRANCH  21  26
ENDBRANCH   7  21
ENDBRANCH  11   7
TORSDOF 8
ENDMDL
MODEL 3
REMARK VINA RESULT:       5.6      2.566      6.071
REMARK  Name = 25389993
REMARK  10 active torsions:
REMARK  status: ('A' for Active; 'I' for Inactive)
REMARK    1  A    between atoms: O_1  and  C_20
REMARK    2  A    between atoms: O_1  and  C_32
REMARK    3  A    between atoms: O_3  and  C_27
REMARK    4  A    between atoms: O_3  and  C_33
REMARK    5  A    between atoms: O_4  and  C_26
REMARK    6  A    between atoms: N_7  and  C_11
REMARK    7  A    between atoms: N_7  and  C_21
REMARK    8  A    between atoms: C_9  and  C_17
REMARK    9  A    between atoms: C_13  and  C_20
REMARK   10  A    between atoms: C_21  and  C_26
REMARK                            x       y       z     vdW  Elec       q    Type
REMARK                         _______ _______ _______ _____ _____    ______ ____
ROOT
ATOM      5  N   UNL     1      -1.140   1.468  25.854  0.00  0.00    -0.274 NA
ATOM      6  N   UNL     1      -3.911  -0.170  23.919  0.00  0.00    -0.356 N 
ATOM      8  C   UNL     1      -2.249   1.539  24.853  0.00  0.00    +0.106 C 
ATOM      9  C   UNL     1      -0.583   2.810  26.161  0.00  0.00    +0.090 C 
ATOM     10  C   UNL     1      -3.379   2.450  25.356  0.00  0.00    +0.044 C 
ATOM     11  C   UNL     1      -2.848   3.855  25.635  0.00  0.00    +0.057 C 
ATOM     12  C   UNL     1      -1.695   3.779  26.634  0.00  0.00    +0.042 C 
ATOM     13  C   UNL     1      -0.125   0.432  25.522  0.00  0.00    +0.172 C 
ATOM     14  C   UNL     1      -2.745   0.155  24.553  0.00  0.00    +0.038 A 
ATOM     15  C   UNL     1      -0.726  -0.997  25.476  0.00  0.00    +0.068 C 
ATOM     16  C   UNL     1      -2.058  -1.010  24.813  0.00  0.00    -0.016 A 
ATOM     18  C   UNL     1      -2.852  -2.095  24.350  0.00  0.00    +0.003 A 
ATOM     19  C   UNL     1      -4.010  -1.540  23.795  0.00  0.00    +0.047 A 
ATOM     24  C   UNL     1      -2.702  -3.496  24.343  0.00  0.00    +0.010 A 
ATOM     25  C   UNL     1      -5.026  -2.322  23.234  0.00  0.00    +0.026 A 
ATOM     28  C   UNL     1      -3.712  -4.289  23.786  0.00  0.00    +0.001 A 
ATOM     30  C   UNL     1      -4.855  -3.709  23.241  0.00  0.00    +0.002 A 
ATOM     34  H   UNL     1      -4.604   0.487  23.589  0.00  0.00    +0.166 HD
ENDROOT
BRANCH   9  17
ATOM     17  C   UNL     1       0.509   2.804  27.227  0.00  0.00    -0.027 A 
ATOM     22  C   UNL     1       0.214   2.385  28.525  0.00  0.00    +0.050 A 
ATOM     23  C   UNL     1       1.802   3.215  26.904  0.00  0.00    +0.005 A 
ATOM     27  C   UNL     1       1.212   2.379  29.499  0.00  0.00    +0.120 A 
ATOM     29  C   UNL     1       2.799   3.208  27.877  0.00  0.00    +0.004 A 
ATOM     31  C   UNL     1       2.505   2.790  29.175  0.00  0.00    +0.045 A 
BRANCH  27   3
ATOM      3  O   UNL     1       0.925   1.970  30.765  0.00  0.00    -0.495 OA
ATOM     33  C   UNL     1       0.214   2.885  31.598  0.00  0.00    +0.277 C 
ENDBRANCH  27   3
ENDBRANCH   9  17
BRANCH  13  20
ATOM      2  O   UNL     1       0.938   1.891  23.923  0.00  0.00    -0.249 OA
ATOM     20  C   UNL     1       0.565   0.766  24.230  0.00  0.00    +0.325 C 
BRANCH  20   1
ATOM      1  O   UNL     1       0.702  -0.365  23.480  0.00  0.00    -0.467 OA
ATOM     32  C   UNL     1       1.648  -0.282  22.410  0.00  0.00    +0.280 C 
ENDBRANCH  20   1
ENDBRANCH  13  20
BRANCH  11   7
ATOM      7  N   UNL     1      -3.922   4.707  26.144  0.00  0.00    -0.311 NA
ATOM     35  H   UNL     1      -3.988   4.614  27.158  0.00  0.00    +0.122 HD
BRANCH   7  21
ATOM     21  C   UNL     1      -5.199   4.333  25.557  0.00  0.00    +0.109 C 
BRANCH  21  26
ATOM     26  C   UNL     1      -5.756   3.088  26.228  0.00  0.00    +0.171 C 
BRANCH  26   4
ATOM      4  O   UNL     1      -6.517   2.357  25.276  0.00  0.00    -0.394 OA
ATOM     36  H   UNL     1      -7.443   2.383  25.571  0.00  0.00    +0.209 HD
ENDBRANCH  26   4
ENDBRANCH  21  26
ENDBRANCH   7  21
ENDBRANCH  11   7
TORSDOF 8
ENDMDL
MODEL 4
REMARK VINA RESULT:       6.8      2.447      5.839
REMARK  Name = 25389993
REMARK  10 active torsions:
REMARK  status: ('A' for Active; 'I' for Inactive)
REMARK    1  A    between atoms: O_1  and  C_20
REMARK    2  A    between atoms: O_1  and  C_32
REMARK    3  A    between atoms: O_3  and  C_27
REMARK    4  A    between atoms: O_3  and  C_33
REMARK    5  A    between atoms: O_4  and  C_26
REMARK    6  A    between atoms: N_7  and  C_11
REMARK    7  A    between atoms: N_7  and  C_21
REMARK    8  A    between atoms: C_9  and  C_17
REMARK    9  A    between atoms: C_13  and  C_20
REMARK   10  A    between atoms: C_21  and  C_26
REMARK                            x       y       z     vdW  Elec       q    Type
REMARK                         _______ _______ _______ _____ _____    ______ ____
ROOT
ATOM      5  N   UNL     1      -1.313   1.458  25.966  0.00  0.00    -0.274 NA
ATOM      6  N   UNL     1      -3.918  -0.155  23.794  0.00  0.00    -0.356 N 
ATOM      8  C   UNL     1      -2.312   1.532  24.856  0.00  0.00    +0.106 C 
ATOM      9  C   UNL     1      -0.753   2.792  26.299  0.00  0.00    +0.090 C 
ATOM     10  C   UNL     1      -3.461   2.484  25.221  0.00  0.00    +0.044 C 
ATOM     11  C   UNL     1      -2.922   3.882  25.522  0.00  0.00    +0.057 C 
ATOM     12  C   UNL     1      -1.879   3.800  26.635  0.00  0.00    +0.042 C 
ATOM     13  C   UNL     1      -0.299   0.388  25.762  0.00  0.00    +0.172 C 
ATOM     14  C   UNL     1      -2.814   0.155  24.537  0.00  0.00    +0.038 A 
ATOM     15  C   UNL     1      -0.932  -1.025  25.686  0.00  0.00    +0.068 C 
ATOM     16  C   UNL     1      -2.190  -1.021  24.890  0.00  0.00    -0.016 A 
ATOM     18  C   UNL     1      -2.963  -2.095  24.372  0.00  0.00    +0.003 A 
ATOM     19  C   UNL     1      -4.042  -1.525  23.690  0.00  0.00    +0.047 A 
ATOM     24  C   UNL     1      -2.853  -3.500  24.411  0.00  0.00    +0.010 A 
ATOM     25  C   UNL     1      -5.018  -2.294  23.045  0.00  0.00    +0.026 A 
ATOM     28  C   UNL     1      -3.822  -4.280  23.771  0.00  0.00    +0.001 A 
ATOM     30  C   UNL     1      -4.888  -3.684  23.100  0.00  0.00    +0.002 A 
ATOM     34  H   UNL     1      -4.555   0.511  23.381  0.00  0.00    +0.166 HD
ENDROOT
BRANCH   9  17
ATOM     17  C   UNL     1       0.225   2.784  27.471  0.00  0.00    -0.027 A 
ATOM     22  C   UNL     1       1.588   2.975  27.245  0.00  0.00    +0.050 A 
ATOM     23  C   UNL     1      -0.245   2.586  28.769  0.00  0.00    +0.005 A 
ATOM     27  C   UNL     1       2.481   2.968  28.316  0.00  0.00    +0.120 A 
ATOM     29  C   UNL     1       0.648   2.579  29.840  0.00  0.00    +0.004 A 
ATOM     31  C   UNL     1       2.011   2.770  29.614  0.00  0.00    +0.045 A 
BRANCH  27   3
ATOM      3  O   UNL     1       3.810   3.155  28.094  0.00  0.00    -0.495 OA
ATOM     33  C   UNL     1       4.638   1.992  28.084  0.00  0.00    +0.277 C 
ENDBRANCH  27   3
ENDBRANCH   9  17
BRANCH  13  20
ATOM      2  O   UNL     1       1.030   1.761  24.290  0.00  0.00    -0.249 OA
ATOM     20  C   UNL     1       0.528   0.672  24.541  0.00  0.00    +0.325 C 
BRANCH  20   1
ATOM      1  O   UNL     1       0.622  -0.456  23.781  0.00  0.00    -0.467 OA
ATOM     32  C   UNL     1       1.347  -0.313  22.555  0.00  0.00    +0.280 C 
ENDBRANCH  20   1
ENDBRANCH  13  20
BRANCH  11   7
ATOM      7  N   UNL     1      -4.018   4.773  25.900  0.00  0.00    -0.311 NA
ATOM     35  H   UNL     1      -4.082   4.833  26.916  0.00  0.00    +0.122 HD
BRANCH   7  21
ATOM     21  C   UNL     1      -5.284   4.284  25.379  0.00  0.00    +0.109 C 
BRANCH  21  26
ATOM     26  C   UNL     1      -5.762   3.078  26.173  0.00  0.00    +0.171 C 
BRANCH  26   4
ATOM      4  O   UNL     1      -6.563   2.263  25.328  0.00  0.00    -0.394 OA
ATOM     36  H   UNL     1      -7.222   1.827  25.895  0.00  0.00    +0.209 HD
ENDBRANCH  26   4
ENDBRANCH  21  26
ENDBRANCH   7  21
ENDBRANCH  11   7
TORSDOF 8
ENDMDL
