MODEL 1
REMARK VINA RESULT:      -6.8      0.000      0.000
REMARK  Name = 75367756
REMARK  3 active torsions:
REMARK  status: ('A' for Active; 'I' for Inactive)
REMARK    1  A    between atoms: O_3  and  C_6
REMARK    2  A    between atoms: N_4  and  C_8
REMARK    3  A    between atoms: C_8  and  C_11
REMARK                            x       y       z     vdW  Elec       q    Type
REMARK                         _______ _______ _______ _____ _____    ______ ____
ROOT
ATOM      2  O   UNL     1      -2.672   4.528  26.140  0.00  0.00    -0.376 OA
ATOM      4  N   UNL     1      -3.243   2.013  24.387  0.00  0.00    -0.293 NA
ATOM      5  C   UNL     1      -4.621   2.479  24.574  0.00  0.00    +0.118 C 
ATOM      6  C   UNL     1      -4.838   3.780  25.362  0.00  0.00    +0.154 C 
ATOM      7  C   UNL     1      -2.268   3.084  24.176  0.00  0.00    +0.113 C 
ATOM      9  C   UNL     1      -3.907   3.955  26.554  0.00  0.00    +0.192 C 
ATOM     10  C   UNL     1      -1.775   3.614  25.523  0.00  0.00    +0.175 C 
ENDROOT
BRANCH   6   3
ATOM      3  O   UNL     1      -6.181   3.787  25.848  0.00  0.00    -0.388 OA
ATOM     17  H   UNL     1      -6.141   3.769  26.820  0.00  0.00    +0.210 HD
ENDBRANCH   6   3
BRANCH   4   8
ATOM      8  C   UNL     1      -3.190   1.020  23.314  0.00  0.00    +0.122 C 
BRANCH   8  11
ATOM      1  F   UNL     1      -0.736   0.072  24.365  0.00  0.00    -0.205 F 
ATOM     11  C   UNL     1      -3.009  -0.375  23.850  0.00  0.00    +0.002 A 
ATOM     12  C   UNL     1      -1.773  -0.777  24.353  0.00  0.00    +0.128 A 
ATOM     13  C   UNL     1      -4.083  -1.267  23.843  0.00  0.00    +0.008 A 
ATOM     14  C   UNL     1      -1.608  -2.070  24.850  0.00  0.00    +0.038 A 
ATOM     15  C   UNL     1      -3.918  -2.561  24.339  0.00  0.00    +0.000 A 
ATOM     16  C   UNL     1      -2.680  -2.962  24.842  0.00  0.00    +0.003 A 
ENDBRANCH   8  11
ENDBRANCH   4   8
TORSDOF 3
ENDMDL
MODEL 2
REMARK VINA RESULT:      -6.5      1.184      1.686
REMARK  Name = 75367756
REMARK  3 active torsions:
REMARK  status: ('A' for Active; 'I' for Inactive)
REMARK    1  A    between atoms: O_3  and  C_6
REMARK    2  A    between atoms: N_4  and  C_8
REMARK    3  A    between atoms: C_8  and  C_11
REMARK                            x       y       z     vdW  Elec       q    Type
REMARK                         _______ _______ _______ _____ _____    ______ ____
ROOT
ATOM      2  O   UNL     1      -2.667   4.560  26.090  0.00  0.00    -0.376 OA
ATOM      4  N   UNL     1      -3.306   1.956  24.497  0.00  0.00    -0.293 NA
ATOM      5  C   UNL     1      -4.671   2.467  24.657  0.00  0.00    +0.118 C 
ATOM      6  C   UNL     1      -4.853   3.820  25.362  0.00  0.00    +0.154 C 
ATOM      7  C   UNL     1      -2.305   2.987  24.219  0.00  0.00    +0.113 C 
ATOM      9  C   UNL     1      -3.915   4.045  26.540  0.00  0.00    +0.192 C 
ATOM     10  C   UNL     1      -1.795   3.587  25.530  0.00  0.00    +0.175 C 
ENDROOT
BRANCH   6   3
ATOM      3  O   UNL     1      -6.194   3.891  25.848  0.00  0.00    -0.388 OA
ATOM     17  H   UNL     1      -6.583   4.718  25.516  0.00  0.00    +0.210 HD
ENDBRANCH   6   3
BRANCH   4   8
ATOM      8  C   UNL     1      -3.280   0.897  23.488  0.00  0.00    +0.122 C 
BRANCH   8  11
ATOM      1  F   UNL     1      -4.971  -1.337  23.905  0.00  0.00    -0.205 F 
ATOM     11  C   UNL     1      -2.792  -0.408  24.058  0.00  0.00    +0.002 A 
ATOM     12  C   UNL     1      -3.679  -1.469  24.238  0.00  0.00    +0.128 A 
ATOM     13  C   UNL     1      -1.449  -0.556  24.408  0.00  0.00    +0.008 A 
ATOM     14  C   UNL     1      -3.225  -2.677  24.766  0.00  0.00    +0.038 A 
ATOM     15  C   UNL     1      -0.995  -1.764  24.936  0.00  0.00    +0.000 A 
ATOM     16  C   UNL     1      -1.883  -2.825  25.115  0.00  0.00    +0.003 A 
ENDBRANCH   8  11
ENDBRANCH   4   8
TORSDOF 3
ENDMDL
MODEL 3
REMARK VINA RESULT:      -6.3      3.086      5.537
REMARK  Name = 75367756
REMARK  3 active torsions:
REMARK  status: ('A' for Active; 'I' for Inactive)
REMARK    1  A    between atoms: O_3  and  C_6
REMARK    2  A    between atoms: N_4  and  C_8
REMARK    3  A    between atoms: C_8  and  C_11
REMARK                            x       y       z     vdW  Elec       q    Type
REMARK                         _______ _______ _______ _____ _____    ______ ____
ROOT
ATOM      2  O   UNL     1      -0.882  -2.000  25.219  0.00  0.00    -0.376 OA
ATOM      4  N   UNL     1      -2.850   0.260  24.356  0.00  0.00    -0.293 NA
ATOM      5  C   UNL     1      -3.775  -0.878  24.309  0.00  0.00    +0.118 C 
ATOM      6  C   UNL     1      -3.239  -2.255  24.731  0.00  0.00    +0.154 C 
ATOM      7  C   UNL     1      -1.913   0.231  25.480  0.00  0.00    +0.113 C 
ATOM      9  C   UNL     1      -1.811  -2.536  24.284  0.00  0.00    +0.192 C 
ATOM     10  C   UNL     1      -0.681  -0.597  25.111  0.00  0.00    +0.175 C 
ENDROOT
BRANCH   6   3
ATOM      3  O   UNL     1      -4.084  -3.254  24.160  0.00  0.00    -0.388 OA
ATOM     17  H   UNL     1      -4.180  -3.051  23.214  0.00  0.00    +0.210 HD
ENDBRANCH   6   3
BRANCH   4   8
ATOM      8  C   UNL     1      -3.598   1.517  24.313  0.00  0.00    +0.122 C 
BRANCH   8  11
ATOM      1  F   UNL     1      -4.299   3.597  26.104  0.00  0.00    -0.205 F 
ATOM     11  C   UNL     1      -2.713   2.705  24.580  0.00  0.00    +0.002 A 
ATOM     12  C   UNL     1      -3.120   3.694  25.475  0.00  0.00    +0.128 A 
ATOM     13  C   UNL     1      -1.483   2.816  23.930  0.00  0.00    +0.008 A 
ATOM     14  C   UNL     1      -2.299   4.794  25.721  0.00  0.00    +0.038 A 
ATOM     15  C   UNL     1      -0.661   3.916  24.176  0.00  0.00    +0.000 A 
ATOM     16  C   UNL     1      -1.069   4.906  25.072  0.00  0.00    +0.003 A 
ENDBRANCH   8  11
ENDBRANCH   4   8
TORSDOF 3
ENDMDL
MODEL 4
REMARK VINA RESULT:      -6.3      1.920      2.579
REMARK  Name = 75367756
REMARK  3 active torsions:
REMARK  status: ('A' for Active; 'I' for Inactive)
REMARK    1  A    between atoms: O_3  and  C_6
REMARK    2  A    between atoms: N_4  and  C_8
REMARK    3  A    between atoms: C_8  and  C_11
REMARK                            x       y       z     vdW  Elec       q    Type
REMARK                         _______ _______ _______ _____ _____    ______ ____
ROOT
ATOM      2  O   UNL     1       0.343   2.586  24.200  0.00  0.00    -0.376 OA
ATOM      4  N   UNL     1      -2.547   1.731  24.998  0.00  0.00    -0.293 NA
ATOM      5  C   UNL     1      -2.694   3.184  25.131  0.00  0.00    +0.118 C 
ATOM      6  C   UNL     1      -1.488   4.063  24.767  0.00  0.00    +0.154 C 
ATOM      7  C   UNL     1      -1.742   1.308  23.851  0.00  0.00    +0.113 C 
ATOM      9  C   UNL     1      -0.142   3.487  25.188  0.00  0.00    +0.192 C 
ATOM     10  C   UNL     1      -0.260   1.300  24.228  0.00  0.00    +0.175 C 
ENDROOT
BRANCH   6   3
ATOM      3  O   UNL     1      -1.648   5.326  25.415  0.00  0.00    -0.388 OA
ATOM     17  H   UNL     1      -1.756   5.999  24.721  0.00  0.00    +0.210 HD
ENDBRANCH   6   3
BRANCH   4   8
ATOM      8  C   UNL     1      -3.863   1.090  24.995  0.00  0.00    +0.122 C 
BRANCH   8  11
ATOM      1  F   UNL     1      -2.300  -0.577  26.669  0.00  0.00    -0.205 F 
ATOM     11  C   UNL     1      -3.761  -0.400  24.807  0.00  0.00    +0.002 A 
ATOM     12  C   UNL     1      -2.972  -1.162  25.667  0.00  0.00    +0.128 A 
ATOM     13  C   UNL     1      -4.457  -1.019  23.767  0.00  0.00    +0.008 A 
ATOM     14  C   UNL     1      -2.879  -2.542  25.491  0.00  0.00    +0.038 A 
ATOM     15  C   UNL     1      -4.364  -2.399  23.590  0.00  0.00    +0.000 A 
ATOM     16  C   UNL     1      -3.575  -3.161  24.452  0.00  0.00    +0.003 A 
ENDBRANCH   8  11
ENDBRANCH   4   8
TORSDOF 3
ENDMDL
MODEL 5
REMARK VINA RESULT:      -5.6      3.006      5.697
REMARK  Name = 75367756
REMARK  3 active torsions:
REMARK  status: ('A' for Active; 'I' for Inactive)
REMARK    1  A    between atoms: O_3  and  C_6
REMARK    2  A    between atoms: N_4  and  C_8
REMARK    3  A    between atoms: C_8  and  C_11
REMARK                            x       y       z     vdW  Elec       q    Type
REMARK                         _______ _______ _______ _____ _____    ______ ____
ROOT
ATOM      2  O   UNL     1      -2.617  -2.920  24.317  0.00  0.00    -0.376 OA
ATOM      4  N   UNL     1      -3.279   0.123  24.486  0.00  0.00    -0.293 NA
ATOM      5  C   UNL     1      -1.815   0.209  24.469  0.00  0.00    +0.118 C 
ATOM      6  C   UNL     1      -1.022  -1.100  24.329  0.00  0.00    +0.154 C 
ATOM      7  C   UNL     1      -3.834  -0.895  23.593  0.00  0.00    +0.113 C 
ATOM      9  C   UNL     1      -1.612  -2.277  25.094  0.00  0.00    +0.192 C 
ATOM     10  C   UNL     1      -3.870  -2.249  24.303  0.00  0.00    +0.175 C 
ENDROOT
BRANCH   6   3
ATOM      3  O   UNL     1       0.300  -0.873  24.822  0.00  0.00    -0.388 OA
ATOM     17  H   UNL     1       0.374   0.073  25.034  0.00  0.00    +0.210 HD
ENDBRANCH   6   3
BRANCH   4   8
ATOM      8  C   UNL     1      -3.863   1.439  24.227  0.00  0.00    +0.122 C 
BRANCH   8  11
ATOM      1  F   UNL     1      -4.386   3.422  26.182  0.00  0.00    -0.205 F 
ATOM     11  C   UNL     1      -2.901   2.552  24.547  0.00  0.00    +0.002 A 
ATOM     12  C   UNL     1      -3.222   3.496  25.522  0.00  0.00    +0.128 A 
ATOM     13  C   UNL     1      -1.685   2.638  23.866  0.00  0.00    +0.008 A 
ATOM     14  C   UNL     1      -2.329   4.526  25.817  0.00  0.00    +0.038 A 
ATOM     15  C   UNL     1      -0.793   3.669  24.161  0.00  0.00    +0.000 A 
ATOM     16  C   UNL     1      -1.114   4.613  25.137  0.00  0.00    +0.003 A 
ENDBRANCH   8  11
ENDBRANCH   4   8
TORSDOF 3
ENDMDL
MODEL 6
REMARK VINA RESULT:      -5.5      1.500      1.814
REMARK  Name = 75367756
REMARK  3 active torsions:
REMARK  status: ('A' for Active; 'I' for Inactive)
REMARK    1  A    between atoms: O_3  and  C_6
REMARK    2  A    between atoms: N_4  and  C_8
REMARK    3  A    between atoms: C_8  and  C_11
REMARK                            x       y       z     vdW  Elec       q    Type
REMARK                         _______ _______ _______ _____ _____    ______ ____
ROOT
ATOM      2  O   UNL     1      -2.523   4.914  24.856  0.00  0.00    -0.376 OA
ATOM      4  N   UNL     1      -1.570   2.003  25.438  0.00  0.00    -0.293 NA
ATOM      5  C   UNL     1      -2.863   1.700  24.815  0.00  0.00    +0.118 C 
ATOM      6  C   UNL     1      -3.700   2.877  24.291  0.00  0.00    +0.154 C 
ATOM      7  C   UNL     1      -0.841   3.105  24.809  0.00  0.00    +0.113 C 
ATOM      9  C   UNL     1      -3.659   4.118  25.172  0.00  0.00    +0.192 C 
ATOM     10  C   UNL     1      -1.299   4.439  25.400  0.00  0.00    +0.175 C 
ENDROOT
BRANCH   6   3
ATOM      3  O   UNL     1      -5.059   2.448  24.198  0.00  0.00    -0.388 OA
ATOM     17  H   UNL     1      -5.184   2.062  23.314  0.00  0.00    +0.210 HD
ENDBRANCH   6   3
BRANCH   4   8
ATOM      8  C   UNL     1      -0.752   0.792  25.513  0.00  0.00    +0.122 C 
BRANCH   8  11
ATOM      1  F   UNL     1       0.005  -1.199  23.645  0.00  0.00    -0.205 F 
ATOM     11  C   UNL     1      -1.564  -0.450  25.262  0.00  0.00    +0.002 A 
ATOM     12  C   UNL     1      -1.134  -1.391  24.327  0.00  0.00    +0.128 A 
ATOM     13  C   UNL     1      -2.751  -0.660  25.966  0.00  0.00    +0.008 A 
ATOM     14  C   UNL     1      -1.887  -2.541  24.095  0.00  0.00    +0.038 A 
ATOM     15  C   UNL     1      -3.505  -1.810  25.734  0.00  0.00    +0.000 A 
ATOM     16  C   UNL     1      -3.074  -2.751  24.799  0.00  0.00    +0.003 A 
ENDBRANCH   8  11
ENDBRANCH   4   8
TORSDOF 3
ENDMDL
MODEL 7
REMARK VINA RESULT:      -4.5      3.092      5.759
REMARK  Name = 75367756
REMARK  3 active torsions:
REMARK  status: ('A' for Active; 'I' for Inactive)
REMARK    1  A    between atoms: O_3  and  C_6
REMARK    2  A    between atoms: N_4  and  C_8
REMARK    3  A    between atoms: C_8  and  C_11
REMARK                            x       y       z     vdW  Elec       q    Type
REMARK                         _______ _______ _______ _____ _____    ______ ____
ROOT
ATOM      2  O   UNL     1      -1.125  -1.596  24.412  0.00  0.00    -0.376 OA
ATOM      4  N   UNL     1      -0.871   1.511  24.351  0.00  0.00    -0.293 NA
ATOM      5  C   UNL     1       0.360   1.168  23.632  0.00  0.00    +0.118 C 
ATOM      6  C   UNL     1       0.641  -0.318  23.359  0.00  0.00    +0.154 C 
ATOM      7  C   UNL     1      -2.021   0.672  24.014  0.00  0.00    +0.113 C 
ATOM      9  C   UNL     1       0.253  -1.249  24.500  0.00  0.00    +0.192 C 
ATOM     10  C   UNL     1      -2.016  -0.591  24.876  0.00  0.00    +0.175 C 
ENDROOT
BRANCH   6   3
ATOM      3  O   UNL     1       2.041  -0.470  23.125  0.00  0.00    -0.388 OA
ATOM     17  H   UNL     1       2.376   0.380  22.792  0.00  0.00    +0.210 HD
ENDBRANCH   6   3
BRANCH   4   8
ATOM      8  C   UNL     1      -1.174   2.932  24.179  0.00  0.00    +0.122 C 
BRANCH   8  11
ATOM      1  F   UNL     1      -3.566   2.777  22.669  0.00  0.00    -0.205 F 
ATOM     11  C   UNL     1      -2.525   3.290  24.740  0.00  0.00    +0.002 A 
ATOM     12  C   UNL     1      -3.663   3.191  23.941  0.00  0.00    +0.128 A 
ATOM     13  C   UNL     1      -2.636   3.721  26.062  0.00  0.00    +0.008 A 
ATOM     14  C   UNL     1      -4.913   3.522  24.462  0.00  0.00    +0.038 A 
ATOM     15  C   UNL     1      -3.886   4.053  26.584  0.00  0.00    +0.000 A 
ATOM     16  C   UNL     1      -5.025   3.954  25.784  0.00  0.00    +0.003 A 
ENDBRANCH   8  11
ENDBRANCH   4   8
TORSDOF 3
ENDMDL
MODEL 8
REMARK VINA RESULT:      -3.9     15.404     16.952
REMARK  Name = 75367756
REMARK  3 active torsions:
REMARK  status: ('A' for Active; 'I' for Inactive)
REMARK    1  A    between atoms: O_3  and  C_6
REMARK    2  A    between atoms: N_4  and  C_8
REMARK    3  A    between atoms: C_8  and  C_11
REMARK                            x       y       z     vdW  Elec       q    Type
REMARK                         _______ _______ _______ _____ _____    ______ ____
ROOT
ATOM      2  O   UNL     1      -3.951  -8.897   9.126  0.00  0.00    -0.376 OA
ATOM      4  N   UNL     1      -4.860  -9.948  11.918  0.00  0.00    -0.293 NA
ATOM      5  C   UNL     1      -6.174  -9.612  11.361  0.00  0.00    +0.118 C 
ATOM      6  C   UNL     1      -6.230  -9.090   9.917  0.00  0.00    +0.154 C 
ATOM      7  C   UNL     1      -3.935 -10.554  10.959  0.00  0.00    +0.113 C 
ATOM      9  C   UNL     1      -5.089  -8.152   9.545  0.00  0.00    +0.192 C 
ATOM     10  C   UNL     1      -3.193  -9.462  10.187  0.00  0.00    +0.175 C 
ENDROOT
BRANCH   6   3
ATOM      3  O   UNL     1      -7.457  -8.378   9.750  0.00  0.00    -0.388 OA
ATOM     17  H   UNL     1      -7.603  -7.853  10.555  0.00  0.00    +0.210 HD
ENDBRANCH   6   3
BRANCH   4   8
ATOM      8  C   UNL     1      -5.016 -10.779  13.112  0.00  0.00    +0.122 C 
BRANCH   8  11
ATOM      1  F   UNL     1      -5.318 -10.781  15.928  0.00  0.00    -0.205 F 
ATOM     11  C   UNL     1      -3.860 -10.620  14.062  0.00  0.00    +0.002 A 
ATOM     12  C   UNL     1      -4.079 -10.629  15.439  0.00  0.00    +0.128 A 
ATOM     13  C   UNL     1      -2.566 -10.461  13.563  0.00  0.00    +0.008 A 
ATOM     14  C   UNL     1      -3.006 -10.482  16.318  0.00  0.00    +0.038 A 
ATOM     15  C   UNL     1      -1.493 -10.313  14.441  0.00  0.00    +0.000 A 
ATOM     16  C   UNL     1      -1.713 -10.323  15.819  0.00  0.00    +0.003 A 
ENDBRANCH   8  11
ENDBRANCH   4   8
TORSDOF 3
ENDMDL
MODEL 9
REMARK VINA RESULT:      -3.6     16.548     18.331
REMARK  Name = 75367756
REMARK  3 active torsions:
REMARK  status: ('A' for Active; 'I' for Inactive)
REMARK    1  A    between atoms: O_3  and  C_6
REMARK    2  A    between atoms: N_4  and  C_8
REMARK    3  A    between atoms: C_8  and  C_11
REMARK                            x       y       z     vdW  Elec       q    Type
REMARK                         _______ _______ _______ _____ _____    ______ ____
ROOT
ATOM      2  O   UNL     1       9.881   7.936  22.361  0.00  0.00    -0.376 OA
ATOM      4  N   UNL     1      12.909   7.992  21.619  0.00  0.00    -0.293 NA
ATOM      5  C   UNL     1      12.544   6.717  20.992  0.00  0.00    +0.118 C 
ATOM      6  C   UNL     1      11.071   6.284  21.054  0.00  0.00    +0.154 C 
ATOM      7  C   UNL     1      11.903   9.046  21.475  0.00  0.00    +0.113 C 
ATOM      9  C   UNL     1      10.377   6.603  22.371  0.00  0.00    +0.192 C 
ATOM     10  C   UNL     1      10.866   8.934  22.593  0.00  0.00    +0.175 C 
ENDROOT
BRANCH   6   3
ATOM      3  O   UNL     1      11.015   4.870  20.858  0.00  0.00    -0.388 OA
ATOM     17  H   UNL     1      11.078   4.451  21.733  0.00  0.00    +0.210 HD
ENDBRANCH   6   3
BRANCH   4   8
ATOM      8  C   UNL     1      14.219   8.432  21.138  0.00  0.00    +0.122 C 
BRANCH   8  11
ATOM      1  F   UNL     1      15.561   6.166  20.094  0.00  0.00    -0.205 F 
ATOM     11  C   UNL     1      14.387   8.183  19.662  0.00  0.00    +0.002 A 
ATOM     12  C   UNL     1      15.059   7.046  19.216  0.00  0.00    +0.128 A 
ATOM     13  C   UNL     1      13.869   9.094  18.740  0.00  0.00    +0.008 A 
ATOM     14  C   UNL     1      15.214   6.818  17.849  0.00  0.00    +0.038 A 
ATOM     15  C   UNL     1      14.023   8.866  17.373  0.00  0.00    +0.000 A 
ATOM     16  C   UNL     1      14.696   7.728  16.927  0.00  0.00    +0.003 A 
ENDBRANCH   8  11
ENDBRANCH   4   8
TORSDOF 3
ENDMDL
MODEL 10
REMARK VINA RESULT:      -3.5      2.102      3.120
REMARK  Name = 75367756
REMARK  3 active torsions:
REMARK  status: ('A' for Active; 'I' for Inactive)
REMARK    1  A    between atoms: O_3  and  C_6
REMARK    2  A    between atoms: N_4  and  C_8
REMARK    3  A    between atoms: C_8  and  C_11
REMARK                            x       y       z     vdW  Elec       q    Type
REMARK                         _______ _______ _______ _____ _____    ______ ____
ROOT
ATOM      2  O   UNL     1      -4.512   3.920  24.784  0.00  0.00    -0.376 OA
ATOM      4  N   UNL     1      -3.203   1.148  25.358  0.00  0.00    -0.293 NA
ATOM      5  C   UNL     1      -4.612   0.742  25.370  0.00  0.00    +0.118 C 
ATOM      6  C   UNL     1      -5.670   1.813  25.063  0.00  0.00    +0.154 C 
ATOM      7  C   UNL     1      -2.868   2.133  24.328  0.00  0.00    +0.113 C 
ATOM      9  C   UNL     1      -5.366   3.184  25.653  0.00  0.00    +0.192 C 
ATOM     10  C   UNL     1      -3.143   3.545  24.847  0.00  0.00    +0.175 C 
ENDROOT
BRANCH   6   3
ATOM      3  O   UNL     1      -6.919   1.371  25.598  0.00  0.00    -0.388 OA
ATOM     17  H   UNL     1      -7.215   2.039  26.239  0.00  0.00    +0.210 HD
ENDBRANCH   6   3
BRANCH   4   8
ATOM      8  C   UNL     1      -2.341  -0.031  25.274  0.00  0.00    +0.122 C 
BRANCH   8  11
ATOM      1  F   UNL     1      -0.972  -1.831  23.568  0.00  0.00    -0.205 F 
ATOM     11  C   UNL     1      -1.015   0.288  24.635  0.00  0.00    +0.002 A 
ATOM     12  C   UNL     1      -0.395  -0.645  23.806  0.00  0.00    +0.128 A 
ATOM     13  C   UNL     1      -0.406   1.521  24.876  0.00  0.00    +0.008 A 
ATOM     14  C   UNL     1       0.833  -0.347  23.215  0.00  0.00    +0.038 A 
ATOM     15  C   UNL     1       0.822   1.819  24.286  0.00  0.00    +0.000 A 
ATOM     16  C   UNL     1       1.442   0.884  23.456  0.00  0.00    +0.003 A 
ENDBRANCH   8  11
ENDBRANCH   4   8
TORSDOF 3
ENDMDL
