MODEL 1
REMARK VINA RESULT:      -2.8      0.000      0.000
REMARK  Name = 45361678
REMARK  11 active torsions:
REMARK  status: ('A' for Active; 'I' for Inactive)
REMARK    1  A    between atoms: S_1  and  N_6
REMARK    2  A    between atoms: S_1  and  C_24
REMARK    3  A    between atoms: O_2  and  C_12
REMARK    4  A    between atoms: N_6  and  C_16
REMARK    5  A    between atoms: N_7  and  C_25
REMARK    6  A    between atoms: C_9  and  C_19
REMARK    7  A    between atoms: C_11  and  C_21
REMARK    8  A    between atoms: C_15  and  C_20
REMARK    9  A    between atoms: C_20  and  C_22
REMARK   10  A    between atoms: C_20  and  C_23
REMARK   11  A    between atoms: C_25  and  C_26
REMARK                            x       y       z     vdW  Elec       q    Type
REMARK                         _______ _______ _______ _____ _____    ______ ____
ROOT
ATOM      9  C   UNL     1      -2.173  -0.793  25.080  0.00  0.00    -0.027 C 
ATOM     10  C   UNL     1      -2.287   0.416  24.093  0.00  0.00    +0.028 C 
ATOM     11  C   UNL     1      -0.891   1.112  23.895  0.00  0.00    +0.011 C 
ATOM     12  C   UNL     1      -3.456   1.363  24.492  0.00  0.00    +0.122 C 
ATOM     13  C   UNL     1      -3.535  -1.521  25.164  0.00  0.00    +0.007 C 
ATOM     14  C   UNL     1      -1.136  -1.798  24.530  0.00  0.00    +0.008 C 
ATOM     15  C   UNL     1      -4.794   0.611  24.678  0.00  0.00    +0.029 C 
ATOM     16  C   UNL     1       0.157   0.072  23.416  0.00  0.00    +0.079 C 
ATOM     17  C   UNL     1      -4.673  -0.605  25.595  0.00  0.00    +0.007 C 
ATOM     18  C   UNL     1       0.232  -1.176  24.293  0.00  0.00    +0.021 C 
ATOM     19  C   UNL     1      -1.753  -0.356  26.507  0.00  0.00    +0.011 C 
ATOM     21  C   UNL     1      -0.928   2.294  22.914  0.00  0.00    +0.009 C 
ENDROOT
BRANCH  12   2
ATOM      2  O   UNL     1      -3.668   2.322  23.455  0.00  0.00    -0.391 OA
ATOM     32  H   UNL     1      -4.025   1.856  22.680  0.00  0.00    +0.210 HD
ENDBRANCH  12   2
BRANCH  16   6
ATOM      6  N   UNL     1       1.520   0.670  23.399  0.00  0.00    -0.191 NA
ATOM     31  H   UNL     1       1.753   1.355  24.126  0.00  0.00    +0.148 HD
BRANCH   6   1
ATOM      1  S   UNL     1       2.738  -0.093  22.489  0.00  0.00    +0.027 S 
ATOM      4  O   UNL     1       2.291  -0.289  21.123  0.00  0.00    -0.158 OA
ATOM      5  O   UNL     1       3.252  -1.203  23.268  0.00  0.00    -0.158 OA
ATOM     24  C   UNL     1       3.986   1.173  22.479  0.00  0.00    +0.214 C 
ENDBRANCH   6   1
ENDBRANCH  16   6
BRANCH  15  20
ATOM     20  C   UNL     1      -5.900   1.538  25.200  0.00  0.00    +0.077 C 
ATOM     22  C   UNL     1      -7.039   1.615  24.189  0.00  0.00    +0.017 C 
BRANCH  20  23
ATOM      3  O   UNL     1      -5.745   3.942  24.960  0.00  0.00    -0.276 OA
ATOM      7  N   UNL     1      -4.289   2.878  26.417  0.00  0.00    -0.311 N 
ATOM     23  C   UNL     1      -5.324   2.920  25.494  0.00  0.00    +0.216 C 
ATOM     33  H   UNL     1      -4.034   1.998  26.854  0.00  0.00    +0.149 HD
BRANCH   7  25
ATOM     25  C   UNL     1      -3.584   4.059  26.855  0.00  0.00    +0.141 C 
BRANCH  25  26
ATOM      8  N   UNL     1      -0.009   3.413  25.805  0.00  0.00    -0.263 NA
ATOM     26  C   UNL     1      -2.262   4.215  26.161  0.00  0.00    -0.012 A 
ATOM     27  C   UNL     1      -2.041   5.256  25.266  0.00  0.00    +0.008 A 
ATOM     28  C   UNL     1      -1.223   3.329  26.394  0.00  0.00    +0.115 A 
ATOM     29  C   UNL     1      -0.806   5.377  24.639  0.00  0.00    +0.020 A 
ATOM     30  C   UNL     1       0.169   4.438  24.940  0.00  0.00    +0.111 A 
ENDBRANCH  25  26
ENDBRANCH   7  25
ENDBRANCH  20  23
ENDBRANCH  15  20
TORSDOF 7
ENDMDL
MODEL 2
REMARK VINA RESULT:       0.1      2.663      6.892
REMARK  Name = 45361678
REMARK  11 active torsions:
REMARK  status: ('A' for Active; 'I' for Inactive)
REMARK    1  A    between atoms: S_1  and  N_6
REMARK    2  A    between atoms: S_1  and  C_24
REMARK    3  A    between atoms: O_2  and  C_12
REMARK    4  A    between atoms: N_6  and  C_16
REMARK    5  A    between atoms: N_7  and  C_25
REMARK    6  A    between atoms: C_9  and  C_19
REMARK    7  A    between atoms: C_11  and  C_21
REMARK    8  A    between atoms: C_15  and  C_20
REMARK    9  A    between atoms: C_20  and  C_22
REMARK   10  A    between atoms: C_20  and  C_23
REMARK   11  A    between atoms: C_25  and  C_26
REMARK                            x       y       z     vdW  Elec       q    Type
REMARK                         _______ _______ _______ _____ _____    ______ ____
ROOT
ATOM      9  C   UNL     1      -0.919   3.409  25.228  0.00  0.00    -0.027 C 
ATOM     10  C   UNL     1      -1.417   2.777  23.886  0.00  0.00    +0.028 C 
ATOM     11  C   UNL     1      -2.989   2.760  23.823  0.00  0.00    +0.011 C 
ATOM     12  C   UNL     1      -0.722   1.412  23.613  0.00  0.00    +0.122 C 
ATOM     13  C   UNL     1       0.624   3.513  25.209  0.00  0.00    +0.007 C 
ATOM     14  C   UNL     1      -1.485   4.842  25.353  0.00  0.00    +0.008 C 
ATOM     15  C   UNL     1       0.819   1.501  23.700  0.00  0.00    +0.029 C 
ATOM     16  C   UNL     1      -3.543   4.196  24.026  0.00  0.00    +0.079 C 
ATOM     17  C   UNL     1       1.308   2.171  24.983  0.00  0.00    +0.007 C 
ATOM     18  C   UNL     1      -3.004   4.894  25.273  0.00  0.00    +0.021 C 
ATOM     19  C   UNL     1      -1.347   2.582  26.468  0.00  0.00    +0.011 C 
ATOM     21  C   UNL     1      -3.544   2.175  22.516  0.00  0.00    +0.009 C 
ENDROOT
BRANCH  12   2
ATOM      2  O   UNL     1      -1.031   0.976  22.288  0.00  0.00    -0.391 OA
ATOM     32  H   UNL     1      -0.547   0.148  22.121  0.00  0.00    +0.210 HD
ENDBRANCH  12   2
BRANCH  16   6
ATOM      6  N   UNL     1      -5.026   4.172  24.151  0.00  0.00    -0.191 NA
ATOM     31  H   UNL     1      -5.582   4.337  23.305  0.00  0.00    +0.148 HD
BRANCH   6   1
ATOM      1  S   UNL     1      -5.720   3.466  25.534  0.00  0.00    +0.027 S 
ATOM      4  O   UNL     1      -6.742   4.338  26.080  0.00  0.00    -0.158 OA
ATOM      5  O   UNL     1      -4.646   2.967  26.372  0.00  0.00    -0.158 OA
ATOM     24  C   UNL     1      -6.530   2.057  24.815  0.00  0.00    +0.214 C 
ENDBRANCH   6   1
ENDBRANCH  16   6
BRANCH  15  20
ATOM     20  C   UNL     1       1.477   0.122  23.560  0.00  0.00    +0.077 C 
ATOM     22  C   UNL     1       2.201   0.020  22.221  0.00  0.00    +0.017 C 
BRANCH  20  23
ATOM      3  O   UNL     1      -0.093  -1.531  22.742  0.00  0.00    -0.276 OA
ATOM      7  N   UNL     1       0.133  -1.255  25.034  0.00  0.00    -0.311 N 
ATOM     23  C   UNL     1       0.426  -0.974  23.706  0.00  0.00    +0.216 C 
ATOM     33  H   UNL     1       0.644  -0.787  25.775  0.00  0.00    +0.149 HD
BRANCH   7  25
ATOM     25  C   UNL     1      -0.832  -2.254  25.427  0.00  0.00    +0.141 C 
BRANCH  25  26
ATOM      8  N   UNL     1      -4.254  -2.354  23.821  0.00  0.00    -0.263 NA
ATOM     26  C   UNL     1      -2.231  -1.862  25.051  0.00  0.00    -0.012 A 
ATOM     27  C   UNL     1      -2.805  -0.695  25.542  0.00  0.00    +0.008 A 
ATOM     28  C   UNL     1      -2.991  -2.649  24.200  0.00  0.00    +0.115 A 
ATOM     29  C   UNL     1      -4.103  -0.357  25.175  0.00  0.00    +0.020 A 
ATOM     30  C   UNL     1      -4.779  -1.211  24.319  0.00  0.00    +0.111 A 
ENDBRANCH  25  26
ENDBRANCH   7  25
ENDBRANCH  20  23
ENDBRANCH  15  20
TORSDOF 7
ENDMDL
