MODEL 1
REMARK VINA RESULT:      -3.2      0.000      0.000
REMARK  Name = 75367708
REMARK  2 active torsions:
REMARK  status: ('A' for Active; 'I' for Inactive)
REMARK    1  A    between atoms: O_3  and  C_10
REMARK    2  A    between atoms: O_3  and  C_19
REMARK                            x       y       z     vdW  Elec       q    Type
REMARK                         _______ _______ _______ _____ _____    ______ ____
ROOT
ATOM      1  O   UNL     1      12.443  -6.137  31.955  0.00  0.00    -0.375 OA
ATOM      2  O   UNL     1      15.600 -10.172  26.721  0.00  0.00    -0.377 OA
ATOM      4  O   UNL     1      16.895  -6.393  29.684  0.00  0.00    -0.252 OA
ATOM      5  N   UNL     1      14.986  -7.195  30.716  0.00  0.00    -0.280 N 
ATOM      6  N   UNL     1      15.874  -8.228  28.745  0.00  0.00    -0.281 N 
ATOM      9  C   UNL     1      15.275  -6.496  31.976  0.00  0.00    +0.156 C 
ATOM     10  C   UNL     1      14.705  -5.078  32.054  0.00  0.00    +0.218 C 
ATOM     11  C   UNL     1      13.607  -7.658  30.506  0.00  0.00    +0.137 C 
ATOM     12  C   UNL     1      15.976  -7.220  29.714  0.00  0.00    +0.305 C 
ATOM     13  C   UNL     1      13.198  -4.986  32.317  0.00  0.00    +0.206 C 
ATOM     14  C   UNL     1      16.376  -7.974  27.396  0.00  0.00    +0.137 C 
ATOM     15  C   UNL     1      15.778  -9.655  29.078  0.00  0.00    +0.137 C 
ATOM     16  C   UNL     1      12.586  -6.532  30.598  0.00  0.00    +0.179 C 
ATOM     17  C   UNL     1      15.583  -8.783  26.380  0.00  0.00    +0.179 C 
ATOM     18  C   UNL     1      15.001 -10.398  28.002  0.00  0.00    +0.179 C 
ENDROOT
BRANCH  10   3
ATOM      3  O   UNL     1      15.039  -4.364  30.864  0.00  0.00    -0.468 OA
BRANCH   3  19
ATOM      7  N   UNL     1      16.568  -2.873  29.950  0.00  0.00    -0.219 NA
ATOM      8  N   UNL     1      16.663  -1.514  32.402  0.00  0.00    -0.256 NA
ATOM     19  C   UNL     1      15.840  -3.267  31.013  0.00  0.00    +0.234 A 
ATOM     20  C   UNL     1      15.886  -2.600  32.217  0.00  0.00    +0.177 A 
ATOM     21  C   UNL     1      17.346  -1.787  30.135  0.00  0.00    +0.134 A 
ATOM     22  C   UNL     1      17.392  -1.120  31.340  0.00  0.00    +0.130 A 
ENDBRANCH   3  19
ENDBRANCH  10   3
TORSDOF 2
ENDMDL
MODEL 2
REMARK VINA RESULT:      -2.0     17.925     19.940
REMARK  Name = 75367708
REMARK  2 active torsions:
REMARK  status: ('A' for Active; 'I' for Inactive)
REMARK    1  A    between atoms: O_3  and  C_10
REMARK    2  A    between atoms: O_3  and  C_19
REMARK                            x       y       z     vdW  Elec       q    Type
REMARK                         _______ _______ _______ _____ _____    ______ ____
ROOT
ATOM      1  O   UNL     1      -1.173  -1.791  26.021  0.00  0.00    -0.375 OA
ATOM      2  O   UNL     1      -5.925   3.775  25.762  0.00  0.00    -0.377 OA
ATOM      4  O   UNL     1      -2.469   1.796  22.781  0.00  0.00    -0.252 OA
ATOM      5  N   UNL     1      -2.800   0.115  24.336  0.00  0.00    -0.280 N 
ATOM      6  N   UNL     1      -4.049   2.158  24.415  0.00  0.00    -0.281 N 
ATOM      9  C   UNL     1      -2.158  -0.903  23.493  0.00  0.00    +0.156 C 
ATOM     10  C   UNL     1      -0.646  -1.028  23.699  0.00  0.00    +0.218 C 
ATOM     11  C   UNL     1      -2.947  -0.193  25.766  0.00  0.00    +0.137 C 
ATOM     12  C   UNL     1      -3.069   1.381  23.781  0.00  0.00    +0.305 C 
ATOM     13  C   UNL     1      -0.213  -1.767  24.970  0.00  0.00    +0.206 C 
ATOM     14  C   UNL     1      -3.943   3.615  24.370  0.00  0.00    +0.137 C 
ATOM     15  C   UNL     1      -5.410   1.674  24.677  0.00  0.00    +0.137 C 
ATOM     16  C   UNL     1      -1.618  -0.509  26.439  0.00  0.00    +0.179 C 
ATOM     17  C   UNL     1      -4.575   4.226  25.613  0.00  0.00    +0.179 C 
ATOM     18  C   UNL     1      -5.983   2.353  25.913  0.00  0.00    +0.179 C 
ENDROOT
BRANCH  10   3
ATOM      3  O   UNL     1      -0.051   0.269  23.661  0.00  0.00    -0.468 OA
BRANCH   3  19
ATOM      7  N   UNL     1       2.099   1.150  23.664  0.00  0.00    -0.219 NA
ATOM      8  N   UNL     1       2.655  -0.277  21.315  0.00  0.00    -0.256 NA
ATOM     19  C   UNL     1       1.180   0.360  23.075  0.00  0.00    +0.234 A 
ATOM     20  C   UNL     1       1.453  -0.341  21.921  0.00  0.00    +0.177 A 
ATOM     21  C   UNL     1       3.301   1.214  23.058  0.00  0.00    +0.134 A 
ATOM     22  C   UNL     1       3.574   0.513  21.903  0.00  0.00    +0.130 A 
ENDBRANCH   3  19
ENDBRANCH  10   3
TORSDOF 2
ENDMDL
MODEL 3
REMARK VINA RESULT:      -1.6     16.623     18.553
REMARK  Name = 75367708
REMARK  2 active torsions:
REMARK  status: ('A' for Active; 'I' for Inactive)
REMARK    1  A    between atoms: O_3  and  C_10
REMARK    2  A    between atoms: O_3  and  C_19
REMARK                            x       y       z     vdW  Elec       q    Type
REMARK                         _______ _______ _______ _____ _____    ______ ____
ROOT
ATOM      1  O   UNL     1      -0.866   3.296  25.548  0.00  0.00    -0.375 OA
ATOM      2  O   UNL     1       5.068  -0.198  23.054  0.00  0.00    -0.377 OA
ATOM      4  O   UNL     1       0.148  -0.932  23.071  0.00  0.00    -0.252 OA
ATOM      5  N   UNL     1       0.312   1.314  23.597  0.00  0.00    -0.280 N 
ATOM      6  N   UNL     1       2.256  -0.013  23.150  0.00  0.00    -0.281 N 
ATOM      9  C   UNL     1      -1.099   1.575  23.283  0.00  0.00    +0.156 C 
ATOM     10  C   UNL     1      -2.053   1.382  24.464  0.00  0.00    +0.218 C 
ATOM     11  C   UNL     1       1.012   2.312  24.419  0.00  0.00    +0.137 C 
ATOM     12  C   UNL     1       0.860   0.061  23.260  0.00  0.00    +0.305 C 
ATOM     13  C   UNL     1      -2.049   2.506  25.505  0.00  0.00    +0.206 C 
ATOM     14  C   UNL     1       2.930  -1.272  23.461  0.00  0.00    +0.137 C 
ATOM     15  C   UNL     1       3.041   0.876  22.284  0.00  0.00    +0.137 C 
ATOM     16  C   UNL     1       0.328   2.556  25.758  0.00  0.00    +0.179 C 
ATOM     17  C   UNL     1       4.334  -1.001  23.983  0.00  0.00    +0.179 C 
ATOM     18  C   UNL     1       4.437   1.071  22.855  0.00  0.00    +0.179 C 
ENDROOT
BRANCH  10   3
ATOM      3  O   UNL     1      -1.783   0.130  25.095  0.00  0.00    -0.468 OA
BRANCH   3  19
ATOM      7  N   UNL     1      -2.101  -2.166  24.931  0.00  0.00    -0.219 NA
ATOM      8  N   UNL     1      -4.632  -1.706  23.812  0.00  0.00    -0.256 NA
ATOM     19  C   UNL     1      -2.578  -0.921  24.731  0.00  0.00    +0.234 A 
ATOM     20  C   UNL     1      -3.820  -0.695  24.182  0.00  0.00    +0.177 A 
ATOM     21  C   UNL     1      -2.912  -3.177  24.561  0.00  0.00    +0.134 A 
ATOM     22  C   UNL     1      -4.156  -2.951  24.011  0.00  0.00    +0.130 A 
ENDBRANCH   3  19
ENDBRANCH  10   3
TORSDOF 2
ENDMDL
MODEL 4
REMARK VINA RESULT:      -1.5     26.985     29.220
REMARK  Name = 75367708
REMARK  2 active torsions:
REMARK  status: ('A' for Active; 'I' for Inactive)
REMARK    1  A    between atoms: O_3  and  C_10
REMARK    2  A    between atoms: O_3  and  C_19
REMARK                            x       y       z     vdW  Elec       q    Type
REMARK                         _______ _______ _______ _____ _____    ______ ____
ROOT
ATOM      1  O   UNL     1      -4.569 -10.404  14.385  0.00  0.00    -0.375 OA
ATOM      2  O   UNL     1     -10.674  -8.164  17.755  0.00  0.00    -0.377 OA
ATOM      4  O   UNL     1      -9.143  -8.859  13.072  0.00  0.00    -0.252 OA
ATOM      5  N   UNL     1      -7.565 -10.036  14.286  0.00  0.00    -0.280 N 
ATOM      6  N   UNL     1      -9.397  -8.927  15.359  0.00  0.00    -0.281 N 
ATOM      9  C   UNL     1      -7.094 -10.779  13.109  0.00  0.00    +0.156 C 
ATOM     10  C   UNL     1      -5.967 -10.088  12.338  0.00  0.00    +0.218 C 
ATOM     11  C   UNL     1      -6.680 -10.008  15.460  0.00  0.00    +0.137 C 
ATOM     12  C   UNL     1      -8.728  -9.251  14.170  0.00  0.00    +0.305 C 
ATOM     13  C   UNL     1      -4.578 -10.175  12.981  0.00  0.00    +0.206 C 
ATOM     14  C   UNL     1     -10.140  -7.671  15.439  0.00  0.00    +0.137 C 
ATOM     15  C   UNL     1      -9.838  -9.934  16.331  0.00  0.00    +0.137 C 
ATOM     16  C   UNL     1      -5.298  -9.450  15.143  0.00  0.00    +0.179 C 
ATOM     17  C   UNL     1     -10.158  -7.162  16.873  0.00  0.00    +0.179 C 
ATOM     18  C   UNL     1      -9.860  -9.341  17.732  0.00  0.00    +0.179 C 
ENDROOT
BRANCH  10   3
ATOM      3  O   UNL     1      -6.315  -8.723  12.106  0.00  0.00    -0.468 OA
BRANCH   3  19
ATOM      7  N   UNL     1      -7.868  -8.664  10.379  0.00  0.00    -0.219 NA
ATOM      8  N   UNL     1      -5.958  -7.417   8.745  0.00  0.00    -0.256 NA
ATOM     19  C   UNL     1      -6.626  -8.382  10.820  0.00  0.00    +0.234 A 
ATOM     20  C   UNL     1      -5.688  -7.770  10.018  0.00  0.00    +0.177 A 
ATOM     21  C   UNL     1      -8.137  -8.312   9.106  0.00  0.00    +0.134 A 
ATOM     22  C   UNL     1      -7.199  -7.700   8.303  0.00  0.00    +0.130 A 
ENDBRANCH   3  19
ENDBRANCH  10   3
TORSDOF 2
ENDMDL
