MODEL 1
REMARK VINA RESULT:      -4.7      0.000      0.000
REMARK  Name = 26743179
REMARK  10 active torsions:
REMARK  status: ('A' for Active; 'I' for Inactive)
REMARK    1  A    between atoms: O_3  and  C_20
REMARK    2  A    between atoms: O_3  and  C_22
REMARK    3  A    between atoms: N_5  and  C_18
REMARK    4  A    between atoms: N_5  and  C_19
REMARK    5  A    between atoms: C_7  and  C_13
REMARK    6  A    between atoms: C_8  and  C_12
REMARK    7  A    between atoms: C_12  and  C_14
REMARK    8  A    between atoms: C_13  and  C_15
REMARK    9  A    between atoms: C_17  and  C_20
REMARK   10  A    between atoms: C_18  and  C_21
REMARK                            x       y       z     vdW  Elec       q    Type
REMARK                         _______ _______ _______ _____ _____    ______ ____
ROOT
ATOM      4  N   UNL     1       0.179   4.568  24.489  0.00  0.00    -0.316 NA
ATOM      7  C   UNL     1      -2.468   3.993  25.657  0.00  0.00    +0.004 C 
ATOM      8  C   UNL     1      -1.278   3.008  25.757  0.00  0.00    +0.012 C 
ATOM      9  C   UNL     1      -1.925   5.418  25.463  0.00  0.00    +0.019 C 
ATOM     10  C   UNL     1      -0.294   3.186  24.590  0.00  0.00    +0.085 C 
ATOM     11  C   UNL     1      -0.924   5.509  24.311  0.00  0.00    +0.081 C 
ATOM     29  H   UNL     1       0.821   4.648  23.700  0.00  0.00    +0.122 HD
ENDROOT
BRANCH   8  12
ATOM     12  C   UNL     1      -1.717   1.548  25.873  0.00  0.00    +0.064 C 
BRANCH  12  14
ATOM      2  O   UNL     1       0.155  -1.125  24.352  0.00  0.00    -0.356 OA
ATOM      6  N   UNL     1      -0.610  -0.589  25.381  0.00  0.00    -0.083 NA
ATOM     14  C   UNL     1      -0.890   0.657  24.992  0.00  0.00    +0.084 A 
ATOM     16  C   UNL     1      -0.334   0.963  23.737  0.00  0.00    +0.074 A 
ATOM     17  C   UNL     1       0.313  -0.191  23.379  0.00  0.00    +0.175 A 
BRANCH  17  20
ATOM     20  C   UNL     1       1.101  -0.592  22.207  0.00  0.00    +0.306 C 
BRANCH  20   3
ATOM      3  O   UNL     1       2.206   0.297  22.024  0.00  0.00    -0.484 OA
BRANCH   3  22
ATOM     22  C   UNL     1       3.338   0.015  22.736  0.00  0.00    +0.121 A 
ATOM     24  C   UNL     1       3.530  -1.262  23.264  0.00  0.00    +0.045 A 
ATOM     25  C   UNL     1       4.302   1.004  22.934  0.00  0.00    +0.045 A 
ATOM     26  C   UNL     1       4.685  -1.550  23.991  0.00  0.00    +0.004 A 
ATOM     27  C   UNL     1       5.457   0.716  23.661  0.00  0.00    +0.004 A 
ATOM     28  C   UNL     1       5.649  -0.560  24.189  0.00  0.00    +0.000 A 
ENDBRANCH   3  22
ENDBRANCH  20   3
ENDBRANCH  17  20
ENDBRANCH  12  14
ENDBRANCH   8  12
BRANCH   7  13
ATOM     13  C   UNL     1      -3.479   3.639  24.560  0.00  0.00    +0.100 C 
BRANCH  13  15
ATOM      1  O   UNL     1      -5.458   3.857  25.895  0.00  0.00    -0.276 OA
ATOM      5  N   UNL     1      -5.204   1.872  24.723  0.00  0.00    -0.293 N 
ATOM     15  C   UNL     1      -4.801   3.150  25.127  0.00  0.00    +0.216 C 
ATOM     19  C   UNL     1      -6.447   1.264  25.179  0.00  0.00    +0.133 C 
BRANCH   5  18
ATOM     18  C   UNL     1      -4.409   1.053  23.812  0.00  0.00    +0.196 C 
BRANCH  18  21
ATOM     21  C   UNL     1      -4.190  -0.285  24.361  0.00  0.00    -0.086 C 
ATOM     23  C   UNL     1      -4.010  -1.382  24.816  0.00  0.00    +0.005 C 
ENDBRANCH  18  21
ENDBRANCH   5  18
ENDBRANCH  13  15
ENDBRANCH   7  13
TORSDOF 9
ENDMDL
MODEL 2
REMARK VINA RESULT:      -4.2      1.621      3.913
REMARK  Name = 26743179
REMARK  10 active torsions:
REMARK  status: ('A' for Active; 'I' for Inactive)
REMARK    1  A    between atoms: O_3  and  C_20
REMARK    2  A    between atoms: O_3  and  C_22
REMARK    3  A    between atoms: N_5  and  C_18
REMARK    4  A    between atoms: N_5  and  C_19
REMARK    5  A    between atoms: C_7  and  C_13
REMARK    6  A    between atoms: C_8  and  C_12
REMARK    7  A    between atoms: C_12  and  C_14
REMARK    8  A    between atoms: C_13  and  C_15
REMARK    9  A    between atoms: C_17  and  C_20
REMARK   10  A    between atoms: C_18  and  C_21
REMARK                            x       y       z     vdW  Elec       q    Type
REMARK                         _______ _______ _______ _____ _____    ______ ____
ROOT
ATOM      4  N   UNL     1      -3.680  -3.148  24.329  0.00  0.00    -0.316 NA
ATOM      7  C   UNL     1      -3.650  -0.198  24.391  0.00  0.00    +0.004 C 
ATOM      8  C   UNL     1      -2.463  -1.057  24.890  0.00  0.00    +0.012 C 
ATOM      9  C   UNL     1      -4.462  -1.010  23.370  0.00  0.00    +0.019 C 
ATOM     10  C   UNL     1      -2.927  -2.443  25.368  0.00  0.00    +0.085 C 
ATOM     11  C   UNL     1      -4.853  -2.390  23.899  0.00  0.00    +0.081 C 
ATOM     29  H   UNL     1      -3.977  -4.056  24.684  0.00  0.00    +0.122 HD
ENDROOT
BRANCH   8  12
ATOM     12  C   UNL     1      -1.636  -0.364  25.974  0.00  0.00    +0.064 C 
BRANCH  12  14
ATOM      2  O   UNL     1       0.764   2.206  25.202  0.00  0.00    -0.356 OA
ATOM      6  N   UNL     1      -0.204   1.631  26.017  0.00  0.00    -0.083 NA
ATOM     14  C   UNL     1      -0.584   0.524  25.374  0.00  0.00    +0.084 A 
ATOM     16  C   UNL     1       0.102   0.348  24.160  0.00  0.00    +0.074 A 
ATOM     17  C   UNL     1       0.938   1.433  24.099  0.00  0.00    +0.175 A 
BRANCH  17  20
ATOM     20  C   UNL     1       1.933   1.895  23.124  0.00  0.00    +0.306 C 
BRANCH  20   3
ATOM      3  O   UNL     1       2.497   0.782  22.425  0.00  0.00    -0.484 OA
BRANCH   3  22
ATOM     22  C   UNL     1       3.594   0.199  22.994  0.00  0.00    +0.121 A 
ATOM     24  C   UNL     1       3.537  -1.131  23.414  0.00  0.00    +0.045 A 
ATOM     25  C   UNL     1       4.770   0.931  23.156  0.00  0.00    +0.045 A 
ATOM     26  C   UNL     1       4.656  -1.727  23.996  0.00  0.00    +0.004 A 
ATOM     27  C   UNL     1       5.889   0.335  23.737  0.00  0.00    +0.004 A 
ATOM     28  C   UNL     1       5.832  -0.993  24.158  0.00  0.00    +0.000 A 
ENDBRANCH   3  22
ENDBRANCH  20   3
ENDBRANCH  17  20
ENDBRANCH  12  14
ENDBRANCH   8  12
BRANCH   7  13
ATOM     13  C   UNL     1      -4.553   0.329  25.513  0.00  0.00    +0.100 C 
BRANCH  13  15
ATOM      1  O   UNL     1      -6.375   1.579  24.583  0.00  0.00    -0.276 OA
ATOM      5  N   UNL     1      -4.592   2.802  25.422  0.00  0.00    -0.293 N 
ATOM     15  C   UNL     1      -5.267   1.613  25.125  0.00  0.00    +0.216 C 
ATOM     19  C   UNL     1      -5.146   4.114  25.114  0.00  0.00    +0.133 C 
BRANCH   5  18
ATOM     18  C   UNL     1      -3.280   2.817  26.066  0.00  0.00    +0.196 C 
BRANCH  18  21
ATOM     21  C   UNL     1      -2.471   3.936  25.585  0.00  0.00    -0.086 C 
ATOM     23  C   UNL     1      -1.803   4.852  25.188  0.00  0.00    +0.005 C 
ENDBRANCH  18  21
ENDBRANCH   5  18
ENDBRANCH  13  15
ENDBRANCH   7  13
TORSDOF 9
ENDMDL
MODEL 3
REMARK VINA RESULT:      -4.1      1.196      3.524
REMARK  Name = 26743179
REMARK  10 active torsions:
REMARK  status: ('A' for Active; 'I' for Inactive)
REMARK    1  A    between atoms: O_3  and  C_20
REMARK    2  A    between atoms: O_3  and  C_22
REMARK    3  A    between atoms: N_5  and  C_18
REMARK    4  A    between atoms: N_5  and  C_19
REMARK    5  A    between atoms: C_7  and  C_13
REMARK    6  A    between atoms: C_8  and  C_12
REMARK    7  A    between atoms: C_12  and  C_14
REMARK    8  A    between atoms: C_13  and  C_15
REMARK    9  A    between atoms: C_17  and  C_20
REMARK   10  A    between atoms: C_18  and  C_21
REMARK                            x       y       z     vdW  Elec       q    Type
REMARK                         _______ _______ _______ _____ _____    ______ ____
ROOT
ATOM      4  N   UNL     1      -6.459   1.660  24.973  0.00  0.00    -0.316 NA
ATOM      7  C   UNL     1      -3.546   2.016  24.672  0.00  0.00    +0.004 C 
ATOM      8  C   UNL     1      -4.198   0.635  24.923  0.00  0.00    +0.012 C 
ATOM      9  C   UNL     1      -4.579   2.949  24.020  0.00  0.00    +0.019 C 
ATOM     10  C   UNL     1      -5.534   0.765  25.671  0.00  0.00    +0.085 C 
ATOM     11  C   UNL     1      -5.895   2.997  24.798  0.00  0.00    +0.081 C 
ATOM     29  H   UNL     1      -7.328   1.728  25.503  0.00  0.00    +0.122 HD
ENDROOT
BRANCH   8  12
ATOM     12  C   UNL     1      -3.271  -0.344  25.644  0.00  0.00    +0.064 C 
BRANCH  12  14
ATOM      2  O   UNL     1       0.130  -1.007  24.664  0.00  0.00    -0.356 OA
ATOM      6  N   UNL     1      -0.972  -1.196  25.491  0.00  0.00    -0.083 NA
ATOM     14  C   UNL     1      -1.919  -0.397  24.992  0.00  0.00    +0.084 A 
ATOM     16  C   UNL     1      -1.479   0.314  23.862  0.00  0.00    +0.074 A 
ATOM     17  C   UNL     1      -0.185  -0.106  23.698  0.00  0.00    +0.175 A 
BRANCH  17  20
ATOM     20  C   UNL     1       0.872   0.213  22.730  0.00  0.00    +0.306 C 
BRANCH  20   3
ATOM      3  O   UNL     1       1.844  -0.835  22.693  0.00  0.00    -0.484 OA
BRANCH   3  22
ATOM     22  C   UNL     1       3.117  -0.500  23.060  0.00  0.00    +0.121 A 
ATOM     24  C   UNL     1       3.916  -1.427  23.730  0.00  0.00    +0.045 A 
ATOM     25  C   UNL     1       3.616   0.769  22.766  0.00  0.00    +0.045 A 
ATOM     26  C   UNL     1       5.216  -1.085  24.106  0.00  0.00    +0.004 A 
ATOM     27  C   UNL     1       4.916   1.111  23.141  0.00  0.00    +0.004 A 
ATOM     28  C   UNL     1       5.715   0.185  23.811  0.00  0.00    +0.000 A 
ENDBRANCH   3  22
ENDBRANCH  20   3
ENDBRANCH  17  20
ENDBRANCH  12  14
ENDBRANCH   8  12
BRANCH   7  13
ATOM     13  C   UNL     1      -2.946   2.659  25.929  0.00  0.00    +0.100 C 
BRANCH  13  15
ATOM      1  O   UNL     1      -3.503   4.984  26.092  0.00  0.00    -0.276 OA
ATOM      5  N   UNL     1      -1.438   4.468  25.171  0.00  0.00    -0.293 N 
ATOM     15  C   UNL     1      -2.671   4.142  25.746  0.00  0.00    +0.216 C 
ATOM     19  C   UNL     1      -1.028   5.846  24.932  0.00  0.00    +0.133 C 
BRANCH   5  18
ATOM     18  C   UNL     1      -0.468   3.452  24.770  0.00  0.00    +0.196 C 
BRANCH  18  21
ATOM     21  C   UNL     1       0.092   2.769  25.936  0.00  0.00    -0.086 C 
ATOM     23  C   UNL     1       0.550   2.211  26.895  0.00  0.00    +0.005 C 
ENDBRANCH  18  21
ENDBRANCH   5  18
ENDBRANCH  13  15
ENDBRANCH   7  13
TORSDOF 9
ENDMDL
MODEL 4
REMARK VINA RESULT:      -3.7      2.276      6.219
REMARK  Name = 26743179
REMARK  10 active torsions:
REMARK  status: ('A' for Active; 'I' for Inactive)
REMARK    1  A    between atoms: O_3  and  C_20
REMARK    2  A    between atoms: O_3  and  C_22
REMARK    3  A    between atoms: N_5  and  C_18
REMARK    4  A    between atoms: N_5  and  C_19
REMARK    5  A    between atoms: C_7  and  C_13
REMARK    6  A    between atoms: C_8  and  C_12
REMARK    7  A    between atoms: C_12  and  C_14
REMARK    8  A    between atoms: C_13  and  C_15
REMARK    9  A    between atoms: C_17  and  C_20
REMARK   10  A    between atoms: C_18  and  C_21
REMARK                            x       y       z     vdW  Elec       q    Type
REMARK                         _______ _______ _______ _____ _____    ______ ____
ROOT
ATOM      4  N   UNL     1       2.386   0.659  22.176  0.00  0.00    -0.316 NA
ATOM      7  C   UNL     1      -0.136   0.315  23.667  0.00  0.00    +0.004 C 
ATOM      8  C   UNL     1       0.799   1.532  23.873  0.00  0.00    +0.012 C 
ATOM      9  C   UNL     1       0.097  -0.264  22.262  0.00  0.00    +0.019 C 
ATOM     10  C   UNL     1       2.258   1.190  23.534  0.00  0.00    +0.085 C 
ATOM     11  C   UNL     1       1.574  -0.540  21.982  0.00  0.00    +0.081 C 
ATOM     29  H   UNL     1       3.364   0.437  21.991  0.00  0.00    +0.122 HD
ENDROOT
BRANCH   8  12
ATOM     12  C   UNL     1       0.699   2.132  25.276  0.00  0.00    +0.064 C 
BRANCH  12  14
ATOM      2  O   UNL     1      -1.544   4.937  25.023  0.00  0.00    -0.356 OA
ATOM      6  N   UNL     1      -0.353   4.284  24.729  0.00  0.00    -0.083 NA
ATOM     14  C   UNL     1      -0.432   3.115  25.371  0.00  0.00    +0.084 A 
ATOM     16  C   UNL     1      -1.638   2.975  26.079  0.00  0.00    +0.074 A 
ATOM     17  C   UNL     1      -2.301   4.148  25.828  0.00  0.00    +0.175 A 
BRANCH  17  20
ATOM     20  C   UNL     1      -3.603   4.688  26.238  0.00  0.00    +0.306 C 
BRANCH  20   3
ATOM      3  O   UNL     1      -4.633   4.212  25.367  0.00  0.00    -0.484 OA
BRANCH   3  22
ATOM     22  C   UNL     1      -4.394   3.025  24.732  0.00  0.00    +0.121 A 
ATOM     24  C   UNL     1      -4.903   1.838  25.259  0.00  0.00    +0.045 A 
ATOM     25  C   UNL     1      -3.641   3.002  23.558  0.00  0.00    +0.045 A 
ATOM     26  C   UNL     1      -4.659   0.626  24.611  0.00  0.00    +0.004 A 
ATOM     27  C   UNL     1      -3.397   1.790  22.911  0.00  0.00    +0.004 A 
ATOM     28  C   UNL     1      -3.905   0.603  23.437  0.00  0.00    +0.000 A 
ENDBRANCH   3  22
ENDBRANCH  20   3
ENDBRANCH  17  20
ENDBRANCH  12  14
ENDBRANCH   8  12
BRANCH   7  13
ATOM     13  C   UNL     1       0.012  -0.773  24.738  0.00  0.00    +0.100 C 
BRANCH  13  15
ATOM      1  O   UNL     1      -1.080   0.053  26.706  0.00  0.00    -0.276 OA
ATOM      5  N   UNL     1      -2.159  -1.642  25.548  0.00  0.00    -0.293 N 
ATOM     15  C   UNL     1      -1.113  -0.737  25.759  0.00  0.00    +0.216 C 
ATOM     19  C   UNL     1      -3.309  -1.729  26.438  0.00  0.00    +0.133 C 
BRANCH   5  18
ATOM     18  C   UNL     1      -2.176  -2.568  24.417  0.00  0.00    +0.196 C 
BRANCH  18  21
ATOM     21  C   UNL     1      -3.540  -2.785  23.936  0.00  0.00    -0.086 C 
ATOM     23  C   UNL     1      -4.659  -2.962  23.536  0.00  0.00    +0.005 C 
ENDBRANCH  18  21
ENDBRANCH   5  18
ENDBRANCH  13  15
ENDBRANCH   7  13
TORSDOF 9
ENDMDL
MODEL 5
REMARK VINA RESULT:      -2.6      2.036      6.788
REMARK  Name = 26743179
REMARK  10 active torsions:
REMARK  status: ('A' for Active; 'I' for Inactive)
REMARK    1  A    between atoms: O_3  and  C_20
REMARK    2  A    between atoms: O_3  and  C_22
REMARK    3  A    between atoms: N_5  and  C_18
REMARK    4  A    between atoms: N_5  and  C_19
REMARK    5  A    between atoms: C_7  and  C_13
REMARK    6  A    between atoms: C_8  and  C_12
REMARK    7  A    between atoms: C_12  and  C_14
REMARK    8  A    between atoms: C_13  and  C_15
REMARK    9  A    between atoms: C_17  and  C_20
REMARK   10  A    between atoms: C_18  and  C_21
REMARK                            x       y       z     vdW  Elec       q    Type
REMARK                         _______ _______ _______ _____ _____    ______ ____
ROOT
ATOM      4  N   UNL     1      -3.032  -3.400  24.990  0.00  0.00    -0.316 NA
ATOM      7  C   UNL     1      -2.560  -0.493  24.816  0.00  0.00    +0.004 C 
ATOM      8  C   UNL     1      -3.979  -1.110  24.830  0.00  0.00    +0.012 C 
ATOM      9  C   UNL     1      -1.583  -1.465  25.497  0.00  0.00    +0.019 C 
ATOM     10  C   UNL     1      -3.980  -2.544  24.275  0.00  0.00    +0.085 C 
ATOM     11  C   UNL     1      -1.669  -2.878  24.921  0.00  0.00    +0.081 C 
ATOM     29  H   UNL     1      -3.054  -4.337  24.590  0.00  0.00    +0.122 HD
ENDROOT
BRANCH   8  12
ATOM     12  C   UNL     1      -5.013  -0.251  24.101  0.00  0.00    +0.064 C 
BRANCH  12  14
ATOM      2  O   UNL     1      -5.822   2.473  26.312  0.00  0.00    -0.356 OA
ATOM      6  N   UNL     1      -5.815   1.125  25.971  0.00  0.00    -0.083 NA
ATOM     14  C   UNL     1      -5.204   1.072  24.785  0.00  0.00    +0.084 A 
ATOM     16  C   UNL     1      -4.807   2.341  24.330  0.00  0.00    +0.074 A 
ATOM     17  C   UNL     1      -5.219   3.187  25.327  0.00  0.00    +0.175 A 
BRANCH  17  20
ATOM     20  C   UNL     1      -5.138   4.639  25.526  0.00  0.00    +0.306 C 
BRANCH  20   3
ATOM      3  O   UNL     1      -4.117   4.954  26.476  0.00  0.00    -0.484 OA
BRANCH   3  22
ATOM     22  C   UNL     1      -2.836   4.632  26.123  0.00  0.00    +0.121 A 
ATOM     24  C   UNL     1      -2.232   3.494  26.656  0.00  0.00    +0.045 A 
ATOM     25  C   UNL     1      -2.135   5.442  25.231  0.00  0.00    +0.045 A 
ATOM     26  C   UNL     1      -0.924   3.166  26.297  0.00  0.00    +0.004 A 
ATOM     27  C   UNL     1      -0.827   5.113  24.871  0.00  0.00    +0.004 A 
ATOM     28  C   UNL     1      -0.222   3.976  25.404  0.00  0.00    +0.000 A 
ENDBRANCH   3  22
ENDBRANCH  20   3
ENDBRANCH  17  20
ENDBRANCH  12  14
ENDBRANCH   8  12
BRANCH   7  13
ATOM     13  C   UNL     1      -2.061  -0.108  23.417  0.00  0.00    +0.100 C 
BRANCH  13  15
ATOM      1  O   UNL     1      -1.909   2.284  23.433  0.00  0.00    -0.276 OA
ATOM      5  N   UNL     1       0.092   1.112  23.392  0.00  0.00    -0.293 N 
ATOM     15  C   UNL     1      -1.304   1.209  23.415  0.00  0.00    +0.216 C 
ATOM     19  C   UNL     1       0.957   2.284  23.387  0.00  0.00    +0.133 C 
BRANCH   5  18
ATOM     18  C   UNL     1       0.786  -0.174  23.371  0.00  0.00    +0.196 C 
BRANCH  18  21
ATOM     21  C   UNL     1       2.110  -0.047  22.764  0.00  0.00    -0.086 C 
ATOM     23  C   UNL     1       3.198   0.053  22.265  0.00  0.00    +0.005 C 
ENDBRANCH  18  21
ENDBRANCH   5  18
ENDBRANCH  13  15
ENDBRANCH   7  13
TORSDOF 9
ENDMDL
MODEL 6
REMARK VINA RESULT:      -2.1      2.097      6.551
REMARK  Name = 26743179
REMARK  10 active torsions:
REMARK  status: ('A' for Active; 'I' for Inactive)
REMARK    1  A    between atoms: O_3  and  C_20
REMARK    2  A    between atoms: O_3  and  C_22
REMARK    3  A    between atoms: N_5  and  C_18
REMARK    4  A    between atoms: N_5  and  C_19
REMARK    5  A    between atoms: C_7  and  C_13
REMARK    6  A    between atoms: C_8  and  C_12
REMARK    7  A    between atoms: C_12  and  C_14
REMARK    8  A    between atoms: C_13  and  C_15
REMARK    9  A    between atoms: C_17  and  C_20
REMARK   10  A    between atoms: C_18  and  C_21
REMARK                            x       y       z     vdW  Elec       q    Type
REMARK                         _______ _______ _______ _____ _____    ______ ____
ROOT
ATOM      4  N   UNL     1      -0.827   4.331  26.009  0.00  0.00    -0.316 NA
ATOM      7  C   UNL     1      -0.519   1.946  24.300  0.00  0.00    +0.004 C 
ATOM      8  C   UNL     1      -0.881   1.858  25.802  0.00  0.00    +0.012 C 
ATOM      9  C   UNL     1      -0.952   3.319  23.759  0.00  0.00    +0.019 C 
ATOM     10  C   UNL     1      -0.355   3.071  26.585  0.00  0.00    +0.085 C 
ATOM     11  C   UNL     1      -0.426   4.474  24.611  0.00  0.00    +0.081 C 
ATOM     29  H   UNL     1      -0.452   5.111  26.548  0.00  0.00    +0.122 HD
ENDROOT
BRANCH   8  12
ATOM     12  C   UNL     1      -0.417   0.555  26.454  0.00  0.00    +0.064 C 
BRANCH  12  14
ATOM      2  O   UNL     1      -1.321  -2.576  24.922  0.00  0.00    -0.356 OA
ATOM      6  N   UNL     1      -0.387  -1.666  25.405  0.00  0.00    -0.083 NA
ATOM     14  C   UNL     1      -1.108  -0.634  25.851  0.00  0.00    +0.084 A 
ATOM     16  C   UNL     1      -2.489  -0.832  25.679  0.00  0.00    +0.074 A 
ATOM     17  C   UNL     1      -2.569  -2.068  25.090  0.00  0.00    +0.175 A 
BRANCH  17  20
ATOM     20  C   UNL     1      -3.685  -2.905  24.632  0.00  0.00    +0.306 C 
BRANCH  20   3
ATOM      3  O   UNL     1      -4.554  -2.152  23.783  0.00  0.00    -0.484 OA
BRANCH   3  22
ATOM     22  C   UNL     1      -4.471  -0.791  23.879  0.00  0.00    +0.121 A 
ATOM     24  C   UNL     1      -3.586  -0.087  23.061  0.00  0.00    +0.045 A 
ATOM     25  C   UNL     1      -5.269  -0.106  24.795  0.00  0.00    +0.045 A 
ATOM     26  C   UNL     1      -3.500   1.302  23.160  0.00  0.00    +0.004 A 
ATOM     27  C   UNL     1      -5.184   1.283  24.893  0.00  0.00    +0.004 A 
ATOM     28  C   UNL     1      -4.299   1.987  24.076  0.00  0.00    +0.000 A 
ENDBRANCH   3  22
ENDBRANCH  20   3
ENDBRANCH  17  20
ENDBRANCH  12  14
ENDBRANCH   8  12
BRANCH   7  13
ATOM     13  C   UNL     1       0.962   1.683  23.999  0.00  0.00    +0.100 C 
BRANCH  13  15
ATOM      1  O   UNL     1       0.217  -0.196  22.710  0.00  0.00    -0.276 OA
ATOM      5  N   UNL     1       2.454   0.384  22.512  0.00  0.00    -0.293 N 
ATOM     15  C   UNL     1       1.159   0.538  23.020  0.00  0.00    +0.216 C 
ATOM     19  C   UNL     1       2.802  -0.666  21.564  0.00  0.00    +0.133 C 
BRANCH   5  18
ATOM     18  C   UNL     1       3.554   1.266  22.894  0.00  0.00    +0.196 C 
BRANCH  18  21
ATOM     21  C   UNL     1       4.710   0.497  23.354  0.00  0.00    -0.086 C 
ATOM     23  C   UNL     1       5.659  -0.134  23.735  0.00  0.00    +0.005 C 
ENDBRANCH  18  21
ENDBRANCH   5  18
ENDBRANCH  13  15
ENDBRANCH   7  13
TORSDOF 9
ENDMDL
MODEL 7
REMARK VINA RESULT:      -1.9      1.873      6.188
REMARK  Name = 26743179
REMARK  10 active torsions:
REMARK  status: ('A' for Active; 'I' for Inactive)
REMARK    1  A    between atoms: O_3  and  C_20
REMARK    2  A    between atoms: O_3  and  C_22
REMARK    3  A    between atoms: N_5  and  C_18
REMARK    4  A    between atoms: N_5  and  C_19
REMARK    5  A    between atoms: C_7  and  C_13
REMARK    6  A    between atoms: C_8  and  C_12
REMARK    7  A    between atoms: C_12  and  C_14
REMARK    8  A    between atoms: C_13  and  C_15
REMARK    9  A    between atoms: C_17  and  C_20
REMARK   10  A    between atoms: C_18  and  C_21
REMARK                            x       y       z     vdW  Elec       q    Type
REMARK                         _______ _______ _______ _____ _____    ______ ____
ROOT
ATOM      4  N   UNL     1      -0.279   3.098  26.993  0.00  0.00    -0.316 NA
ATOM      7  C   UNL     1      -0.448   3.245  24.051  0.00  0.00    +0.004 C 
ATOM      8  C   UNL     1      -1.275   4.164  24.983  0.00  0.00    +0.012 C 
ATOM      9  C   UNL     1       0.808   2.771  24.799  0.00  0.00    +0.019 C 
ATOM     10  C   UNL     1      -1.529   3.506  26.349  0.00  0.00    +0.085 C 
ATOM     11  C   UNL     1       0.481   2.165  26.164  0.00  0.00    +0.081 C 
ATOM     29  H   UNL     1      -0.488   2.659  27.889  0.00  0.00    +0.122 HD
ENDROOT
BRANCH   8  12
ATOM     12  C   UNL     1      -2.590   4.626  24.356  0.00  0.00    +0.064 C 
BRANCH  12  14
ATOM      2  O   UNL     1      -5.476   3.139  25.913  0.00  0.00    -0.356 OA
ATOM      6  N   UNL     1      -4.540   4.157  25.774  0.00  0.00    -0.083 NA
ATOM     14  C   UNL     1      -3.737   3.757  24.786  0.00  0.00    +0.084 A 
ATOM     16  C   UNL     1      -4.111   2.505  24.266  0.00  0.00    +0.074 A 
ATOM     17  C   UNL     1      -5.210   2.160  25.009  0.00  0.00    +0.175 A 
BRANCH  17  20
ATOM     20  C   UNL     1      -6.108   0.999  25.017  0.00  0.00    +0.306 C 
BRANCH  20   3
ATOM      3  O   UNL     1      -5.669   0.026  24.065  0.00  0.00    -0.484 OA
BRANCH   3  22
ATOM     22  C   UNL     1      -4.746  -0.882  24.505  0.00  0.00    +0.121 A 
ATOM     24  C   UNL     1      -4.374  -1.949  23.686  0.00  0.00    +0.045 A 
ATOM     25  C   UNL     1      -4.179  -0.743  25.771  0.00  0.00    +0.045 A 
ATOM     26  C   UNL     1      -3.434  -2.877  24.134  0.00  0.00    +0.004 A 
ATOM     27  C   UNL     1      -3.238  -1.671  26.219  0.00  0.00    +0.004 A 
ATOM     28  C   UNL     1      -2.866  -2.737  25.401  0.00  0.00    +0.000 A 
ENDBRANCH   3  22
ENDBRANCH  20   3
ENDBRANCH  17  20
ENDBRANCH  12  14
ENDBRANCH   8  12
BRANCH   7  13
ATOM     13  C   UNL     1      -1.235   2.053  23.493  0.00  0.00    +0.100 C 
BRANCH  13  15
ATOM      1  O   UNL     1      -1.598   0.626  25.384  0.00  0.00    -0.276 OA
ATOM      5  N   UNL     1      -0.147  -0.154  23.752  0.00  0.00    -0.293 N 
ATOM     15  C   UNL     1      -1.022   0.787  24.306  0.00  0.00    +0.216 C 
ATOM     19  C   UNL     1       0.160  -1.417  24.410  0.00  0.00    +0.133 C 
BRANCH   5  18
ATOM     18  C   UNL     1       0.524   0.059  22.472  0.00  0.00    +0.196 C 
BRANCH  18  21
ATOM     21  C   UNL     1       1.971   0.176  22.649  0.00  0.00    -0.086 C 
ATOM     23  C   UNL     1       3.160   0.273  22.790  0.00  0.00    +0.005 C 
ENDBRANCH  18  21
ENDBRANCH   5  18
ENDBRANCH  13  15
ENDBRANCH   7  13
TORSDOF 9
ENDMDL
MODEL 8
REMARK VINA RESULT:      -1.7      2.109      6.932
REMARK  Name = 26743179
REMARK  10 active torsions:
REMARK  status: ('A' for Active; 'I' for Inactive)
REMARK    1  A    between atoms: O_3  and  C_20
REMARK    2  A    between atoms: O_3  and  C_22
REMARK    3  A    between atoms: N_5  and  C_18
REMARK    4  A    between atoms: N_5  and  C_19
REMARK    5  A    between atoms: C_7  and  C_13
REMARK    6  A    between atoms: C_8  and  C_12
REMARK    7  A    between atoms: C_12  and  C_14
REMARK    8  A    between atoms: C_13  and  C_15
REMARK    9  A    between atoms: C_17  and  C_20
REMARK   10  A    between atoms: C_18  and  C_21
REMARK                            x       y       z     vdW  Elec       q    Type
REMARK                         _______ _______ _______ _____ _____    ______ ____
ROOT
ATOM      4  N   UNL     1       2.631   0.452  22.382  0.00  0.00    -0.316 NA
ATOM      7  C   UNL     1      -0.096   0.343  23.501  0.00  0.00    +0.004 C 
ATOM      8  C   UNL     1       0.920   1.448  23.880  0.00  0.00    +0.012 C 
ATOM      9  C   UNL     1       0.270  -0.223  22.119  0.00  0.00    +0.019 C 
ATOM     10  C   UNL     1       2.370   0.961  23.729  0.00  0.00    +0.085 C 
ATOM     11  C   UNL     1       1.736  -0.648  22.032  0.00  0.00    +0.081 C 
ATOM     29  H   UNL     1       3.597   0.131  22.323  0.00  0.00    +0.122 HD
ENDROOT
BRANCH   8  12
ATOM     12  C   UNL     1       0.687   2.021  25.278  0.00  0.00    +0.064 C 
BRANCH  12  14
ATOM      2  O   UNL     1      -1.453   4.842  24.629  0.00  0.00    -0.356 OA
ATOM      6  N   UNL     1      -0.335   4.059  24.365  0.00  0.00    -0.083 NA
ATOM     14  C   UNL     1      -0.382   3.075  25.266  0.00  0.00    +0.084 A 
ATOM     16  C   UNL     1      -1.496   3.182  26.117  0.00  0.00    +0.074 A 
ATOM     17  C   UNL     1      -2.136   4.310  25.674  0.00  0.00    +0.175 A 
BRANCH  17  20
ATOM     20  C   UNL     1      -3.355   5.016  26.089  0.00  0.00    +0.306 C 
BRANCH  20   3
ATOM      3  O   UNL     1      -4.425   4.732  25.183  0.00  0.00    -0.484 OA
BRANCH   3  22
ATOM     22  C   UNL     1      -5.102   3.563  25.387  0.00  0.00    +0.121 A 
ATOM     24  C   UNL     1      -5.408   3.152  26.684  0.00  0.00    +0.045 A 
ATOM     25  C   UNL     1      -5.486   2.781  24.298  0.00  0.00    +0.045 A 
ATOM     26  C   UNL     1      -6.098   1.957  26.893  0.00  0.00    +0.004 A 
ATOM     27  C   UNL     1      -6.177   1.587  24.506  0.00  0.00    +0.004 A 
ATOM     28  C   UNL     1      -6.482   1.175  25.803  0.00  0.00    +0.000 A 
ENDBRANCH   3  22
ENDBRANCH  20   3
ENDBRANCH  17  20
ENDBRANCH  12  14
ENDBRANCH   8  12
BRANCH   7  13
ATOM     13  C   UNL     1      -0.212  -0.780  24.538  0.00  0.00    +0.100 C 
BRANCH  13  15
ATOM      1  O   UNL     1      -1.339  -2.842  24.067  0.00  0.00    -0.276 OA
ATOM      5  N   UNL     1      -2.676  -0.984  24.441  0.00  0.00    -0.293 N 
ATOM     15  C   UNL     1      -1.446  -1.641  24.325  0.00  0.00    +0.216 C 
ATOM     19  C   UNL     1      -3.949  -1.672  24.265  0.00  0.00    +0.133 C 
BRANCH   5  18
ATOM     18  C   UNL     1      -2.777   0.441  24.748  0.00  0.00    +0.196 C 
BRANCH  18  21
ATOM     21  C   UNL     1      -2.828   1.241  23.525  0.00  0.00    -0.086 C 
ATOM     23  C   UNL     1      -2.866   1.899  22.521  0.00  0.00    +0.005 C 
ENDBRANCH  18  21
ENDBRANCH   5  18
ENDBRANCH  13  15
ENDBRANCH   7  13
TORSDOF 9
ENDMDL
