MODEL 1
REMARK VINA RESULT:       1.2      0.000      0.000
REMARK  Name = 51137016
REMARK  3 active torsions:
REMARK  status: ('A' for Active; 'I' for Inactive)
REMARK    1  A    between atoms: C_8  and  C_12
REMARK    2  A    between atoms: C_13  and  C_16
REMARK    3  A    between atoms: C_19  and  C_23
REMARK                            x       y       z     vdW  Elec       q    Type
REMARK                         _______ _______ _______ _____ _____    ______ ____
ROOT
ATOM      6  N   UNL     1      -2.756   0.510  24.983  0.00  0.00    -0.342 N 
ATOM      7  N   UNL     1      -0.885   1.471  25.701  0.00  0.00    -0.232 NA
ATOM     12  C   UNL     1      -1.427   0.356  25.265  0.00  0.00    +0.113 A 
ATOM     14  C   UNL     1      -3.094   1.810  25.257  0.00  0.00    +0.067 A 
ATOM     15  C   UNL     1      -1.910   2.389  25.703  0.00  0.00    +0.089 A 
ATOM     17  C   UNL     1      -4.298   2.509  25.155  0.00  0.00    +0.040 A 
ATOM     18  C   UNL     1      -1.907   3.745  26.074  0.00  0.00    +0.030 A 
ATOM     19  C   UNL     1      -4.277   3.856  25.528  0.00  0.00    +0.057 A 
ATOM     20  C   UNL     1      -3.103   4.465  25.980  0.00  0.00    +0.014 A 
ATOM     27  H   UNL     1      -3.380  -0.206  24.634  0.00  0.00    +0.167 HD
ENDROOT
BRANCH  12   8
ATOM      4  O   UNL     1       1.554  -0.635  21.026  0.00  0.00    -0.270 OA
ATOM      5  N   UNL     1       0.672  -0.980  23.146  0.00  0.00    -0.297 N 
ATOM      8  C   UNL     1      -0.728  -0.979  25.070  0.00  0.00    +0.074 C 
ATOM      9  C   UNL     1      -1.386  -1.805  23.954  0.00  0.00    +0.032 C 
ATOM     10  C   UNL     1       0.734  -0.927  24.608  0.00  0.00    +0.119 C 
ATOM     11  C   UNL     1      -0.657  -1.361  22.693  0.00  0.00    +0.109 C 
ATOM     13  C   UNL     1       1.674  -0.645  22.249  0.00  0.00    +0.247 C 
BRANCH  13  16
ATOM     16  C   UNL     1       2.981  -0.257  22.804  0.00  0.00    +0.037 A 
ATOM     21  C   UNL     1       3.752  -1.193  23.492  0.00  0.00    +0.013 A 
ATOM     22  C   UNL     1       3.448   1.046  22.639  0.00  0.00    +0.013 A 
ATOM     24  C   UNL     1       4.991  -0.825  24.017  0.00  0.00    +0.001 A 
ATOM     25  C   UNL     1       4.687   1.414  23.163  0.00  0.00    +0.001 A 
ATOM     26  C   UNL     1       5.459   0.478  23.852  0.00  0.00    +0.000 A 
ENDBRANCH  13  16
ENDBRANCH  12   8
BRANCH  19  23
ATOM      1  F   UNL     1      -5.669   5.570  26.450  0.00  0.00    -0.166 F 
ATOM      2  F   UNL     1      -6.654   3.883  25.495  0.00  0.00    -0.166 F 
ATOM      3  F   UNL     1      -5.640   5.381  24.289  0.00  0.00    -0.166 F 
ATOM     23  C   UNL     1      -5.534   4.659  25.442  0.00  0.00    +0.417 C 
ENDBRANCH  19  23
TORSDOF 3
ENDMDL
MODEL 2
REMARK VINA RESULT:       5.1      1.521      2.172
REMARK  Name = 51137016
REMARK  3 active torsions:
REMARK  status: ('A' for Active; 'I' for Inactive)
REMARK    1  A    between atoms: C_8  and  C_12
REMARK    2  A    between atoms: C_13  and  C_16
REMARK    3  A    between atoms: C_19  and  C_23
REMARK                            x       y       z     vdW  Elec       q    Type
REMARK                         _______ _______ _______ _____ _____    ______ ____
ROOT
ATOM      6  N   UNL     1      -0.557   1.565  24.731  0.00  0.00    -0.342 N 
ATOM      7  N   UNL     1      -2.475   0.668  25.405  0.00  0.00    -0.232 NA
ATOM     12  C   UNL     1      -1.250   0.418  25.002  0.00  0.00    +0.113 A 
ATOM     14  C   UNL     1      -1.391   2.625  24.974  0.00  0.00    +0.067 A 
ATOM     15  C   UNL     1      -2.581   2.040  25.394  0.00  0.00    +0.089 A 
ATOM     17  C   UNL     1      -1.211   4.005  24.866  0.00  0.00    +0.040 A 
ATOM     18  C   UNL     1      -3.669   2.865  25.731  0.00  0.00    +0.030 A 
ATOM     19  C   UNL     1      -2.303   4.810  25.205  0.00  0.00    +0.057 A 
ATOM     20  C   UNL     1      -3.511   4.252  25.630  0.00  0.00    +0.014 A 
ATOM     27  H   UNL     1       0.400   1.623  24.408  0.00  0.00    +0.167 HD
ENDROOT
BRANCH  12   8
ATOM      4  O   UNL     1       1.982  -0.664  20.975  0.00  0.00    -0.270 OA
ATOM      5  N   UNL     1       0.927  -0.995  23.018  0.00  0.00    -0.297 N 
ATOM      8  C   UNL     1      -0.610  -0.950  24.833  0.00  0.00    +0.074 C 
ATOM      9  C   UNL     1      -1.225  -1.721  23.656  0.00  0.00    +0.032 C 
ATOM     10  C   UNL     1       0.883  -0.969  24.481  0.00  0.00    +0.119 C 
ATOM     11  C   UNL     1      -0.382  -1.297  22.460  0.00  0.00    +0.109 C 
ATOM     13  C   UNL     1       2.009  -0.700  22.203  0.00  0.00    +0.247 C 
BRANCH  13  16
ATOM     16  C   UNL     1       3.290  -0.392  22.860  0.00  0.00    +0.037 A 
ATOM     21  C   UNL     1       3.962  -1.381  23.577  0.00  0.00    +0.013 A 
ATOM     22  C   UNL     1       3.831   0.890  22.765  0.00  0.00    +0.013 A 
ATOM     24  C   UNL     1       5.177  -1.089  24.198  0.00  0.00    +0.001 A 
ATOM     25  C   UNL     1       5.045   1.182  23.386  0.00  0.00    +0.001 A 
ATOM     26  C   UNL     1       5.719   0.192  24.103  0.00  0.00    +0.000 A 
ENDBRANCH  13  16
ENDBRANCH  12   8
BRANCH  19  23
ATOM      1  F   UNL     1      -2.724   6.820  23.976  0.00  0.00    -0.166 F 
ATOM      2  F   UNL     1      -0.874   6.709  25.113  0.00  0.00    -0.166 F 
ATOM      3  F   UNL     1      -2.774   6.961  26.140  0.00  0.00    -0.166 F 
ATOM     23  C   UNL     1      -2.174   6.296  25.110  0.00  0.00    +0.417 C 
ENDBRANCH  19  23
TORSDOF 3
ENDMDL
