MODEL 1
REMARK VINA RESULT:       3.1      0.000      0.000
REMARK  Name = 71693646
REMARK  7 active torsions:
REMARK  status: ('A' for Active; 'I' for Inactive)
REMARK    1  A    between atoms: O_2  and  C_10
REMARK    2  A    between atoms: N_5  and  C_13
REMARK    3  A    between atoms: N_6  and  C_18
REMARK    4  A    between atoms: C_7  and  C_10
REMARK    5  A    between atoms: C_8  and  C_9
REMARK    6  A    between atoms: C_19  and  C_20
REMARK    7  A    between atoms: C_21  and  C_24
REMARK                            x       y       z     vdW  Elec       q    Type
REMARK                         _______ _______ _______ _____ _____    ______ ____
ROOT
ATOM      9  C   UNL     1      -2.439   1.321  24.339  0.00  0.00    -0.017 A 
ATOM     14  C   UNL     1      -1.556   2.118  23.610  0.00  0.00    +0.008 A 
ATOM     15  C   UNL     1      -1.973   0.181  24.992  0.00  0.00    +0.008 A 
ATOM     16  C   UNL     1      -0.206   1.774  23.535  0.00  0.00    +0.023 A 
ATOM     17  C   UNL     1      -0.623  -0.162  24.919  0.00  0.00    +0.023 A 
ATOM     18  C   UNL     1       0.260   0.634  24.189  0.00  0.00    +0.034 A 
ENDROOT
BRANCH   9   8
ATOM      1  O   UNL     1      -4.560   0.660  25.155  0.00  0.00    -0.361 OA
ATOM      3  O   UNL     1      -7.691   2.219  25.833  0.00  0.00    -0.273 OA
ATOM      5  N   UNL     1      -5.626   3.212  25.401  0.00  0.00    -0.295 N 
ATOM      7  C   UNL     1      -4.178   3.032  25.136  0.00  0.00    +0.134 C 
ATOM      8  C   UNL     1      -3.904   1.694  24.420  0.00  0.00    +0.171 C 
ATOM     11  C   UNL     1      -5.958   0.789  25.061  0.00  0.00    +0.256 C 
ATOM     12  C   UNL     1      -6.510   2.134  25.490  0.00  0.00    +0.242 C 
ATOM     13  C   UNL     1      -6.090   4.532  25.818  0.00  0.00    +0.132 C 
BRANCH   7  10
ATOM     10  C   UNL     1      -3.576   4.201  24.343  0.00  0.00    +0.181 C 
BRANCH  10   2
ATOM      2  O   UNL     1      -2.549   4.781  25.122  0.00  0.00    -0.393 OA
ATOM     27  H   UNL     1      -1.713   4.363  24.853  0.00  0.00    +0.209 HD
ENDBRANCH  10   2
ENDBRANCH   7  10
ENDBRANCH   9   8
BRANCH  18   6
ATOM      4  O   UNL     1       1.891  -0.315  21.860  0.00  0.00    -0.270 OA
ATOM      6  N   UNL     1       1.610   0.290  24.114  0.00  0.00    -0.281 N 
ATOM     19  C   UNL     1       2.327  -0.150  22.994  0.00  0.00    +0.249 C 
ATOM     28  H   UNL     1       2.131   0.383  24.985  0.00  0.00    +0.155 HD
BRANCH  19  20
ATOM     20  C   UNL     1       3.772  -0.412  23.224  0.00  0.00    +0.040 A 
ATOM     21  C   UNL     1       4.734   0.560  22.950  0.00  0.00    -0.038 A 
ATOM     22  C   UNL     1       4.159  -1.656  23.723  0.00  0.00    +0.013 A 
ATOM     23  C   UNL     1       6.083   0.288  23.175  0.00  0.00    +0.004 A 
ATOM     24  C   UNL     1       4.347   1.900  22.415  0.00  0.00    +0.044 C 
ATOM     25  C   UNL     1       5.509  -1.928  23.949  0.00  0.00    +0.001 A 
ATOM     26  C   UNL     1       6.472  -0.956  23.675  0.00  0.00    +0.000 A 
ENDBRANCH  19  20
ENDBRANCH  18   6
TORSDOF 5
ENDMDL
MODEL 2
REMARK VINA RESULT:       4.3      1.072      2.075
REMARK  Name = 71693646
REMARK  7 active torsions:
REMARK  status: ('A' for Active; 'I' for Inactive)
REMARK    1  A    between atoms: O_2  and  C_10
REMARK    2  A    between atoms: N_5  and  C_13
REMARK    3  A    between atoms: N_6  and  C_18
REMARK    4  A    between atoms: C_7  and  C_10
REMARK    5  A    between atoms: C_8  and  C_9
REMARK    6  A    between atoms: C_19  and  C_20
REMARK    7  A    between atoms: C_21  and  C_24
REMARK                            x       y       z     vdW  Elec       q    Type
REMARK                         _______ _______ _______ _____ _____    ______ ____
ROOT
ATOM      9  C   UNL     1      -2.029   2.154  25.381  0.00  0.00    -0.017 A 
ATOM     14  C   UNL     1      -0.993   3.057  25.139  0.00  0.00    +0.008 A 
ATOM     15  C   UNL     1      -1.784   0.782  25.328  0.00  0.00    +0.008 A 
ATOM     16  C   UNL     1       0.287   2.588  24.844  0.00  0.00    +0.023 A 
ATOM     17  C   UNL     1      -0.504   0.313  25.034  0.00  0.00    +0.023 A 
ATOM     18  C   UNL     1       0.531   1.215  24.791  0.00  0.00    +0.034 A 
ENDROOT
BRANCH   9   8
ATOM      1  O   UNL     1      -3.439   4.055  25.375  0.00  0.00    -0.361 OA
ATOM      3  O   UNL     1      -6.942   4.699  25.469  0.00  0.00    -0.273 OA
ATOM      5  N   UNL     1      -5.836   2.684  25.080  0.00  0.00    -0.295 N 
ATOM      7  C   UNL     1      -4.544   1.974  24.908  0.00  0.00    +0.134 C 
ATOM      8  C   UNL     1      -3.418   2.664  25.701  0.00  0.00    +0.171 C 
ATOM     11  C   UNL     1      -4.602   4.668  25.878  0.00  0.00    +0.256 C 
ATOM     12  C   UNL     1      -5.905   4.032  25.437  0.00  0.00    +0.242 C 
ATOM     13  C   UNL     1      -7.053   2.017  24.630  0.00  0.00    +0.132 C 
BRANCH   7  10
ATOM     10  C   UNL     1      -4.637   0.488  25.284  0.00  0.00    +0.181 C 
BRANCH  10   2
ATOM      2  O   UNL     1      -4.551  -0.274  24.097  0.00  0.00    -0.393 OA
ATOM     27  H   UNL     1      -3.971   0.210  23.485  0.00  0.00    +0.209 HD
ENDBRANCH  10   2
ENDBRANCH   7  10
ENDBRANCH   9   8
BRANCH  18   6
ATOM      4  O   UNL     1       1.553  -0.241  22.379  0.00  0.00    -0.270 OA
ATOM      6  N   UNL     1       1.812   0.746  24.496  0.00  0.00    -0.281 N 
ATOM     19  C   UNL     1       2.238   0.067  23.347  0.00  0.00    +0.249 C 
ATOM     28  H   UNL     1       2.516   0.933  25.207  0.00  0.00    +0.155 HD
BRANCH  19  20
ATOM     20  C   UNL     1       3.683  -0.280  23.311  0.00  0.00    +0.040 A 
ATOM     21  C   UNL     1       4.629   0.617  22.817  0.00  0.00    -0.038 A 
ATOM     22  C   UNL     1       4.086  -1.529  23.784  0.00  0.00    +0.013 A 
ATOM     23  C   UNL     1       5.978   0.266  22.794  0.00  0.00    +0.004 A 
ATOM     24  C   UNL     1       4.224   1.961  22.304  0.00  0.00    +0.044 C 
ATOM     25  C   UNL     1       5.436  -1.881  23.761  0.00  0.00    +0.001 A 
ATOM     26  C   UNL     1       6.382  -0.983  23.267  0.00  0.00    +0.000 A 
ENDBRANCH  19  20
ENDBRANCH  18   6
TORSDOF 5
ENDMDL
