MODEL 1
REMARK VINA RESULT:       0.1      0.000      0.000
REMARK  Name = 38027244
REMARK  13 active torsions:
REMARK  status: ('A' for Active; 'I' for Inactive)
REMARK    1  A    between atoms: S_1  and  N_7
REMARK    2  A    between atoms: S_1  and  C_27
REMARK    3  A    between atoms: N_6  and  C_20
REMARK    4  A    between atoms: N_7  and  C_17
REMARK    5  A    between atoms: N_8  and  C_32
REMARK    6  A    between atoms: C_9  and  C_13
REMARK    7  A    between atoms: C_10  and  C_17
REMARK    8  A    between atoms: C_12  and  C_16
REMARK    9  A    between atoms: C_13  and  C_18
REMARK   10  A    between atoms: C_13  and  C_19
REMARK   11  A    between atoms: C_14  and  C_21
REMARK   12  A    between atoms: C_16  and  C_22
REMARK   13  A    between atoms: C_33  and  C_34
REMARK                            x       y       z     vdW  Elec       q    Type
REMARK                         _______ _______ _______ _____ _____    ______ ____
ROOT
ATOM      9  C   UNL     1      -2.377  -1.353  24.146  0.00  0.00    +0.000 C 
ATOM     10  C   UNL     1      -3.159  -0.582  25.238  0.00  0.00    +0.030 C 
ATOM     11  C   UNL     1      -0.888  -1.444  24.515  0.00  0.00    +0.012 C 
ATOM     12  C   UNL     1      -0.246  -0.055  24.686  0.00  0.00    +0.023 C 
ATOM     14  C   UNL     1      -1.101   0.861  25.540  0.00  0.00    -0.073 C 
ATOM     15  C   UNL     1      -2.396   0.601  25.787  0.00  0.00    -0.023 C 
ATOM     21  C   UNL     1      -0.418   2.058  26.142  0.00  0.00    +0.039 C 
ENDROOT
BRANCH   9  13
ATOM     13  C   UNL     1      -2.943  -2.760  23.928  0.00  0.00    -0.013 C 
ATOM     18  C   UNL     1      -3.070  -3.494  25.258  0.00  0.00    +0.007 C 
ATOM     19  C   UNL     1      -4.292  -2.687  23.219  0.00  0.00    +0.007 C 
ENDBRANCH   9  13
BRANCH  12  16
ATOM     16  C   UNL     1       0.055   0.586  23.326  0.00  0.00    +0.103 C 
BRANCH  16  22
ATOM      2  O   UNL     1       0.940  -0.798  21.550  0.00  0.00    -0.276 OA
ATOM      6  N   UNL     1       2.367  -0.008  23.205  0.00  0.00    -0.312 N 
ATOM     22  C   UNL     1       1.139  -0.154  22.576  0.00  0.00    +0.214 C 
ATOM     35  H   UNL     1       2.433   0.582  24.030  0.00  0.00    +0.149 HD
BRANCH   6  20
ATOM     20  C   UNL     1       3.581  -0.610  22.712  0.00  0.00    +0.073 C 
ATOM     23  C   UNL     1       4.294  -1.409  23.795  0.00  0.00    +0.022 C 
ATOM     24  C   UNL     1       4.619   0.438  22.328  0.00  0.00    +0.022 C 
ATOM     25  C   UNL     1       5.072  -0.366  24.593  0.00  0.00    +0.002 C 
ATOM     26  C   UNL     1       5.317   0.801  23.638  0.00  0.00    +0.002 C 
ENDBRANCH   6  20
ENDBRANCH  16  22
ENDBRANCH  12  16
BRANCH  10  17
ATOM     17  C   UNL     1      -4.522  -0.113  24.717  0.00  0.00    +0.113 C 
BRANCH  17   7
ATOM      7  N   UNL     1      -5.349   0.322  25.854  0.00  0.00    -0.189 NA
ATOM     36  H   UNL     1      -5.784  -0.417  26.419  0.00  0.00    +0.148 HD
BRANCH   7   1
ATOM      1  S   UNL     1      -6.101   1.850  25.833  0.00  0.00    +0.058 S 
ATOM      3  O   UNL     1      -6.624   2.143  27.155  0.00  0.00    -0.153 OA
ATOM      4  O   UNL     1      -6.965   1.938  24.671  0.00  0.00    -0.153 OA
BRANCH   1  27
ATOM     27  C   UNL     1      -4.728   2.922  25.539  0.00  0.00    +0.105 A 
ATOM     28  C   UNL     1      -4.098   3.558  26.609  0.00  0.00    +0.030 A 
ATOM     29  C   UNL     1      -4.273   3.132  24.237  0.00  0.00    +0.030 A 
ATOM     30  C   UNL     1      -3.014   4.405  26.376  0.00  0.00    +0.025 A 
ATOM     31  C   UNL     1      -3.189   3.979  24.005  0.00  0.00    +0.025 A 
ATOM     32  C   UNL     1      -2.560   4.615  25.075  0.00  0.00    +0.033 A 
BRANCH  32   8
ATOM      5  O   UNL     1       0.112   4.066  23.799  0.00  0.00    -0.276 OA
ATOM      8  N   UNL     1      -1.475   5.462  24.843  0.00  0.00    -0.286 N 
ATOM     33  C   UNL     1      -0.248   5.152  24.243  0.00  0.00    +0.214 C 
ATOM     34  C   UNL     1       0.663   6.352  24.179  0.00  0.00    +0.109 C 
ATOM     37  H   UNL     1      -1.601   6.423  25.155  0.00  0.00    +0.155 HD
ENDBRANCH  32   8
ENDBRANCH   1  27
ENDBRANCH   7   1
ENDBRANCH  17   7
ENDBRANCH  10  17
TORSDOF 9
ENDMDL
MODEL 2
REMARK VINA RESULT:       1.4      1.767      4.868
REMARK  Name = 38027244
REMARK  13 active torsions:
REMARK  status: ('A' for Active; 'I' for Inactive)
REMARK    1  A    between atoms: S_1  and  N_7
REMARK    2  A    between atoms: S_1  and  C_27
REMARK    3  A    between atoms: N_6  and  C_20
REMARK    4  A    between atoms: N_7  and  C_17
REMARK    5  A    between atoms: N_8  and  C_32
REMARK    6  A    between atoms: C_9  and  C_13
REMARK    7  A    between atoms: C_10  and  C_17
REMARK    8  A    between atoms: C_12  and  C_16
REMARK    9  A    between atoms: C_13  and  C_18
REMARK   10  A    between atoms: C_13  and  C_19
REMARK   11  A    between atoms: C_14  and  C_21
REMARK   12  A    between atoms: C_16  and  C_22
REMARK   13  A    between atoms: C_33  and  C_34
REMARK                            x       y       z     vdW  Elec       q    Type
REMARK                         _______ _______ _______ _____ _____    ______ ____
ROOT
ATOM      9  C   UNL     1      -1.691   3.721  24.950  0.00  0.00    +0.000 C 
ATOM     10  C   UNL     1      -3.110   3.627  24.337  0.00  0.00    +0.030 C 
ATOM     11  C   UNL     1      -0.623   3.530  23.862  0.00  0.00    +0.012 C 
ATOM     12  C   UNL     1      -0.757   2.172  23.148  0.00  0.00    +0.023 C 
ATOM     14  C   UNL     1      -2.190   1.884  22.748  0.00  0.00    -0.073 C 
ATOM     15  C   UNL     1      -3.227   2.554  23.280  0.00  0.00    -0.023 C 
ATOM     21  C   UNL     1      -2.399   0.839  21.687  0.00  0.00    +0.039 C 
ENDROOT
BRANCH   9  13
ATOM     13  C   UNL     1      -1.469   5.058  25.665  0.00  0.00    -0.013 C 
ATOM     18  C   UNL     1      -0.678   6.012  24.777  0.00  0.00    +0.007 C 
ATOM     19  C   UNL     1      -2.805   5.676  26.067  0.00  0.00    +0.007 C 
ENDBRANCH   9  13
BRANCH  12  16
ATOM     16  C   UNL     1      -0.188   1.037  24.009  0.00  0.00    +0.103 C 
BRANCH  16  22
ATOM      2  O   UNL     1       0.297  -0.917  22.668  0.00  0.00    -0.276 OA
ATOM      6  N   UNL     1       2.006   0.569  23.186  0.00  0.00    -0.312 N 
ATOM     22  C   UNL     1       0.698   0.108  23.212  0.00  0.00    +0.214 C 
ATOM     35  H   UNL     1       2.227   1.454  23.635  0.00  0.00    +0.149 HD
BRANCH   6  20
ATOM     20  C   UNL     1       3.071  -0.119  22.499  0.00  0.00    +0.073 C 
ATOM     23  C   UNL     1       3.716  -1.181  23.381  0.00  0.00    +0.022 C 
ATOM     24  C   UNL     1       4.237   0.809  22.182  0.00  0.00    +0.022 C 
ATOM     25  C   UNL     1       4.704  -0.408  24.250  0.00  0.00    +0.002 C 
ATOM     26  C   UNL     1       5.070   0.848  23.462  0.00  0.00    +0.002 C 
ENDBRANCH   6  20
ENDBRANCH  16  22
ENDBRANCH  12  16
BRANCH  10  17
ATOM     17  C   UNL     1      -4.168   3.392  25.421  0.00  0.00    +0.113 C 
BRANCH  17   7
ATOM      7  N   UNL     1      -5.442   3.027  24.781  0.00  0.00    -0.189 NA
ATOM     36  H   UNL     1      -6.016   3.799  24.422  0.00  0.00    +0.148 HD
BRANCH   7   1
ATOM      1  S   UNL     1      -6.233   1.581  25.208  0.00  0.00    +0.058 S 
ATOM      3  O   UNL     1      -7.214   1.254  24.188  0.00  0.00    -0.153 OA
ATOM      4  O   UNL     1      -6.627   1.648  26.602  0.00  0.00    -0.153 OA
BRANCH   1  27
ATOM     27  C   UNL     1      -4.919   0.405  25.097  0.00  0.00    +0.105 A 
ATOM     28  C   UNL     1      -4.913  -0.540  24.072  0.00  0.00    +0.030 A 
ATOM     29  C   UNL     1      -3.886   0.424  26.035  0.00  0.00    +0.030 A 
ATOM     30  C   UNL     1      -3.875  -1.468  23.984  0.00  0.00    +0.025 A 
ATOM     31  C   UNL     1      -2.849  -0.505  25.948  0.00  0.00    +0.025 A 
ATOM     32  C   UNL     1      -2.843  -1.450  24.922  0.00  0.00    +0.033 A 
BRANCH  32   8
ATOM      5  O   UNL     1      -0.124  -1.471  26.216  0.00  0.00    -0.276 OA
ATOM      8  N   UNL     1      -1.805  -2.378  24.835  0.00  0.00    -0.286 N 
ATOM     33  C   UNL     1      -0.552  -2.338  25.461  0.00  0.00    +0.214 C 
ATOM     34  C   UNL     1       0.289  -3.538  25.108  0.00  0.00    +0.109 C 
ATOM     37  H   UNL     1      -1.991  -3.181  24.237  0.00  0.00    +0.155 HD
ENDBRANCH  32   8
ENDBRANCH   1  27
ENDBRANCH   7   1
ENDBRANCH  17   7
ENDBRANCH  10  17
TORSDOF 9
ENDMDL
MODEL 3
REMARK VINA RESULT:       2.1      2.577      7.329
REMARK  Name = 38027244
REMARK  13 active torsions:
REMARK  status: ('A' for Active; 'I' for Inactive)
REMARK    1  A    between atoms: S_1  and  N_7
REMARK    2  A    between atoms: S_1  and  C_27
REMARK    3  A    between atoms: N_6  and  C_20
REMARK    4  A    between atoms: N_7  and  C_17
REMARK    5  A    between atoms: N_8  and  C_32
REMARK    6  A    between atoms: C_9  and  C_13
REMARK    7  A    between atoms: C_10  and  C_17
REMARK    8  A    between atoms: C_12  and  C_16
REMARK    9  A    between atoms: C_13  and  C_18
REMARK   10  A    between atoms: C_13  and  C_19
REMARK   11  A    between atoms: C_14  and  C_21
REMARK   12  A    between atoms: C_16  and  C_22
REMARK   13  A    between atoms: C_33  and  C_34
REMARK                            x       y       z     vdW  Elec       q    Type
REMARK                         _______ _______ _______ _____ _____    ______ ____
ROOT
ATOM      9  C   UNL     1      -3.130  -0.218  24.933  0.00  0.00    +0.000 C 
ATOM     10  C   UNL     1      -2.032   0.445  24.064  0.00  0.00    +0.030 C 
ATOM     11  C   UNL     1      -4.503  -0.083  24.257  0.00  0.00    +0.012 C 
ATOM     12  C   UNL     1      -4.891   1.388  24.019  0.00  0.00    +0.023 C 
ATOM     14  C   UNL     1      -3.754   2.180  23.405  0.00  0.00    -0.073 C 
ATOM     15  C   UNL     1      -2.486   1.735  23.422  0.00  0.00    -0.023 C 
ATOM     21  C   UNL     1      -4.117   3.472  22.728  0.00  0.00    +0.039 C 
ENDROOT
BRANCH   9  13
ATOM     13  C   UNL     1      -2.827  -1.696  25.201  0.00  0.00    -0.013 C 
ATOM     18  C   UNL     1      -3.119  -2.044  26.656  0.00  0.00    +0.007 C 
ATOM     19  C   UNL     1      -3.634  -2.585  24.259  0.00  0.00    +0.007 C 
ENDBRANCH   9  13
BRANCH  12  16
ATOM     16  C   UNL     1      -5.382   2.047  25.314  0.00  0.00    +0.103 C 
BRANCH  16  22
ATOM      2  O   UNL     1      -5.125   4.452  25.406  0.00  0.00    -0.276 OA
ATOM      6  N   UNL     1      -3.386   3.086  26.122  0.00  0.00    -0.312 N 
ATOM     22  C   UNL     1      -4.649   3.337  25.607  0.00  0.00    +0.214 C 
ATOM     35  H   UNL     1      -3.103   2.125  26.289  0.00  0.00    +0.149 HD
BRANCH   6  20
ATOM     20  C   UNL     1      -2.464   4.131  26.491  0.00  0.00    +0.073 C 
ATOM     23  C   UNL     1      -2.405   5.228  25.437  0.00  0.00    +0.022 C 
ATOM     24  C   UNL     1      -1.026   3.629  26.537  0.00  0.00    +0.022 C 
ATOM     25  C   UNL     1      -1.451   4.689  24.374  0.00  0.00    +0.002 C 
ATOM     26  C   UNL     1      -0.539   3.694  25.090  0.00  0.00    +0.002 C 
ENDBRANCH   6  20
ENDBRANCH  16  22
ENDBRANCH  12  16
BRANCH  10  17
ATOM     17  C   UNL     1      -0.759   0.700  24.879  0.00  0.00    +0.113 C 
BRANCH  17   7
ATOM      7  N   UNL     1       0.377   0.867  23.958  0.00  0.00    -0.189 NA
ATOM     36  H   UNL     1       0.527   1.808  23.574  0.00  0.00    +0.148 HD
BRANCH   7   1
ATOM      1  S   UNL     1       0.951  -0.458  23.055  0.00  0.00    +0.058 S 
ATOM      3  O   UNL     1       0.603  -0.272  21.658  0.00  0.00    -0.153 OA
ATOM      4  O   UNL     1       0.595  -1.688  23.737  0.00  0.00    -0.153 OA
BRANCH   1  27
ATOM     27  C   UNL     1       2.701  -0.269  23.211  0.00  0.00    +0.105 A 
ATOM     28  C   UNL     1       3.315   0.909  22.784  0.00  0.00    +0.030 A 
ATOM     29  C   UNL     1       3.467  -1.296  23.762  0.00  0.00    +0.030 A 
ATOM     30  C   UNL     1       4.697   1.058  22.908  0.00  0.00    +0.025 A 
ATOM     31  C   UNL     1       4.848  -1.147  23.885  0.00  0.00    +0.025 A 
ATOM     32  C   UNL     1       5.463   0.031  23.458  0.00  0.00    +0.033 A 
BRANCH  32   8
ATOM      5  O   UNL     1       7.716  -1.383  22.047  0.00  0.00    -0.276 OA
ATOM      8  N   UNL     1       6.845   0.181  23.581  0.00  0.00    -0.286 N 
ATOM     33  C   UNL     1       7.855  -0.508  22.897  0.00  0.00    +0.214 C 
ATOM     34  C   UNL     1       9.229  -0.052  23.318  0.00  0.00    +0.109 C 
ATOM     37  H   UNL     1       7.147   0.880  24.257  0.00  0.00    +0.155 HD
ENDBRANCH  32   8
ENDBRANCH   1  27
ENDBRANCH   7   1
ENDBRANCH  17   7
ENDBRANCH  10  17
TORSDOF 9
ENDMDL
MODEL 4
REMARK VINA RESULT:       3.1      2.692      5.641
REMARK  Name = 38027244
REMARK  13 active torsions:
REMARK  status: ('A' for Active; 'I' for Inactive)
REMARK    1  A    between atoms: S_1  and  N_7
REMARK    2  A    between atoms: S_1  and  C_27
REMARK    3  A    between atoms: N_6  and  C_20
REMARK    4  A    between atoms: N_7  and  C_17
REMARK    5  A    between atoms: N_8  and  C_32
REMARK    6  A    between atoms: C_9  and  C_13
REMARK    7  A    between atoms: C_10  and  C_17
REMARK    8  A    between atoms: C_12  and  C_16
REMARK    9  A    between atoms: C_13  and  C_18
REMARK   10  A    between atoms: C_13  and  C_19
REMARK   11  A    between atoms: C_14  and  C_21
REMARK   12  A    between atoms: C_16  and  C_22
REMARK   13  A    between atoms: C_33  and  C_34
REMARK                            x       y       z     vdW  Elec       q    Type
REMARK                         _______ _______ _______ _____ _____    ______ ____
ROOT
ATOM      9  C   UNL     1      -4.011   2.319  25.551  0.00  0.00    +0.000 C 
ATOM     10  C   UNL     1      -4.500   1.572  24.285  0.00  0.00    +0.030 C 
ATOM     11  C   UNL     1      -2.977   3.391  25.175  0.00  0.00    +0.012 C 
ATOM     12  C   UNL     1      -1.753   2.793  24.458  0.00  0.00    +0.023 C 
ATOM     14  C   UNL     1      -2.157   1.828  23.361  0.00  0.00    -0.073 C 
ATOM     15  C   UNL     1      -3.393   1.304  23.293  0.00  0.00    -0.023 C 
ATOM     21  C   UNL     1      -1.120   1.516  22.318  0.00  0.00    +0.039 C 
ENDROOT
BRANCH   9  13
ATOM     13  C   UNL     1      -5.172   2.964  26.314  0.00  0.00    -0.013 C 
ATOM     18  C   UNL     1      -5.685   4.190  25.566  0.00  0.00    +0.007 C 
ATOM     19  C   UNL     1      -6.295   1.954  26.530  0.00  0.00    +0.007 C 
ENDBRANCH   9  13
BRANCH  12  16
ATOM     16  C   UNL     1      -0.802   2.121  25.457  0.00  0.00    +0.103 C 
BRANCH  16  22
ATOM      2  O   UNL     1       0.228   4.278  25.832  0.00  0.00    -0.276 OA
ATOM      6  N   UNL     1       0.521   2.582  27.393  0.00  0.00    -0.312 N 
ATOM     22  C   UNL     1       0.027   3.130  26.219  0.00  0.00    +0.214 C 
ATOM     35  H   UNL     1       0.262   1.632  27.643  0.00  0.00    +0.149 HD
BRANCH   6  20
ATOM     20  C   UNL     1       1.348   3.316  28.319  0.00  0.00    +0.073 C 
ATOM     23  C   UNL     1       2.738   2.705  28.439  0.00  0.00    +0.022 C 
ATOM     24  C   UNL     1       0.818   3.232  29.745  0.00  0.00    +0.022 C 
ATOM     25  C   UNL     1       2.567   1.553  29.425  0.00  0.00    +0.002 C 
ATOM     26  C   UNL     1       1.359   1.911  30.290  0.00  0.00    +0.002 C 
ENDBRANCH   6  20
ENDBRANCH  16  22
ENDBRANCH  12  16
BRANCH  10  17
ATOM     17  C   UNL     1      -5.187   0.252  24.652  0.00  0.00    +0.113 C 
BRANCH  17   7
ATOM      7  N   UNL     1      -4.410  -0.867  24.094  0.00  0.00    -0.189 NA
ATOM     36  H   UNL     1      -4.749  -1.271  23.213  0.00  0.00    +0.148 HD
BRANCH   7   1
ATOM      1  S   UNL     1      -3.484  -1.862  25.118  0.00  0.00    +0.058 S 
ATOM      3  O   UNL     1      -3.753  -3.254  24.804  0.00  0.00    -0.153 OA
ATOM      4  O   UNL     1      -3.608  -1.387  26.483  0.00  0.00    -0.153 OA
BRANCH   1  27
ATOM     27  C   UNL     1      -1.839  -1.492  24.589  0.00  0.00    +0.105 A 
ATOM     28  C   UNL     1      -1.429  -1.830  23.299  0.00  0.00    +0.030 A 
ATOM     29  C   UNL     1      -0.951  -0.861  25.461  0.00  0.00    +0.030 A 
ATOM     30  C   UNL     1      -0.131  -1.536  22.881  0.00  0.00    +0.025 A 
ATOM     31  C   UNL     1       0.347  -0.569  25.043  0.00  0.00    +0.025 A 
ATOM     32  C   UNL     1       0.757  -0.907  23.753  0.00  0.00    +0.033 A 
BRANCH  32   8
ATOM      5  O   UNL     1       2.152   1.740  23.413  0.00  0.00    -0.276 OA
ATOM      8  N   UNL     1       2.056  -0.614  23.334  0.00  0.00    -0.286 N 
ATOM     33  C   UNL     1       2.657   0.643  23.192  0.00  0.00    +0.214 C 
ATOM     34  C   UNL     1       4.082   0.532  22.713  0.00  0.00    +0.109 C 
ATOM     37  H   UNL     1       2.629  -1.423  23.104  0.00  0.00    +0.155 HD
ENDBRANCH  32   8
ENDBRANCH   1  27
ENDBRANCH   7   1
ENDBRANCH  17   7
ENDBRANCH  10  17
TORSDOF 9
ENDMDL
MODEL 5
REMARK VINA RESULT:       3.7      2.487      7.610
REMARK  Name = 38027244
REMARK  13 active torsions:
REMARK  status: ('A' for Active; 'I' for Inactive)
REMARK    1  A    between atoms: S_1  and  N_7
REMARK    2  A    between atoms: S_1  and  C_27
REMARK    3  A    between atoms: N_6  and  C_20
REMARK    4  A    between atoms: N_7  and  C_17
REMARK    5  A    between atoms: N_8  and  C_32
REMARK    6  A    between atoms: C_9  and  C_13
REMARK    7  A    between atoms: C_10  and  C_17
REMARK    8  A    between atoms: C_12  and  C_16
REMARK    9  A    between atoms: C_13  and  C_18
REMARK   10  A    between atoms: C_13  and  C_19
REMARK   11  A    between atoms: C_14  and  C_21
REMARK   12  A    between atoms: C_16  and  C_22
REMARK   13  A    between atoms: C_33  and  C_34
REMARK                            x       y       z     vdW  Elec       q    Type
REMARK                         _______ _______ _______ _____ _____    ______ ____
ROOT
ATOM      9  C   UNL     1      -1.797  -0.672  25.158  0.00  0.00    +0.000 C 
ATOM     10  C   UNL     1      -1.593  -2.132  24.681  0.00  0.00    +0.030 C 
ATOM     11  C   UNL     1      -3.173  -0.513  25.822  0.00  0.00    +0.012 C 
ATOM     12  C   UNL     1      -4.325  -0.880  24.869  0.00  0.00    +0.023 C 
ATOM     14  C   UNL     1      -4.068  -2.190  24.151  0.00  0.00    -0.073 C 
ATOM     15  C   UNL     1      -2.843  -2.741  24.090  0.00  0.00    -0.023 C 
ATOM     21  C   UNL     1      -5.261  -2.876  23.545  0.00  0.00    +0.039 C 
ENDROOT
BRANCH   9  13
ATOM     13  C   UNL     1      -0.698  -0.233  26.131  0.00  0.00    -0.013 C 
ATOM     18  C   UNL     1      -0.590   1.287  26.162  0.00  0.00    +0.007 C 
ATOM     19  C   UNL     1      -0.971  -0.784  27.527  0.00  0.00    +0.007 C 
ENDBRANCH   9  13
BRANCH  12  16
ATOM     16  C   UNL     1      -4.596   0.250  23.867  0.00  0.00    +0.103 C 
BRANCH  16  22
ATOM      2  O   UNL     1      -5.922   1.686  25.294  0.00  0.00    -0.276 OA
ATOM      6  N   UNL     1      -4.036   2.543  24.242  0.00  0.00    -0.312 N 
ATOM     22  C   UNL     1      -4.948   1.548  24.557  0.00  0.00    +0.214 C 
ATOM     35  H   UNL     1      -3.239   2.315  23.654  0.00  0.00    +0.149 HD
BRANCH   6  20
ATOM     20  C   UNL     1      -4.126   3.887  24.757  0.00  0.00    +0.073 C 
ATOM     23  C   UNL     1      -3.036   4.784  24.183  0.00  0.00    +0.022 C 
ATOM     24  C   UNL     1      -3.853   3.942  26.255  0.00  0.00    +0.022 C 
ATOM     25  C   UNL     1      -1.805   4.484  25.033  0.00  0.00    +0.002 C 
ATOM     26  C   UNL     1      -2.330   3.983  26.378  0.00  0.00    +0.002 C 
ENDBRANCH   6  20
ENDBRANCH  16  22
ENDBRANCH  12  16
BRANCH  10  17
ATOM     17  C   UNL     1      -0.449  -2.227  23.665  0.00  0.00    +0.113 C 
BRANCH  17   7
ATOM      7  N   UNL     1       0.558  -1.200  23.975  0.00  0.00    -0.189 NA
ATOM     36  H   UNL     1       0.635  -0.910  24.957  0.00  0.00    +0.148 HD
BRANCH   7   1
ATOM      1  S   UNL     1       1.047  -0.090  22.780  0.00  0.00    +0.058 S 
ATOM      3  O   UNL     1       0.482   1.214  23.078  0.00  0.00    -0.153 OA
ATOM      4  O   UNL     1       0.854  -0.685  21.471  0.00  0.00    -0.153 OA
BRANCH   1  27
ATOM     27  C   UNL     1       2.790  -0.005  23.058  0.00  0.00    +0.105 A 
ATOM     28  C   UNL     1       3.458  -1.089  23.628  0.00  0.00    +0.030 A 
ATOM     29  C   UNL     1       3.497   1.145  22.706  0.00  0.00    +0.030 A 
ATOM     30  C   UNL     1       4.834  -1.022  23.847  0.00  0.00    +0.025 A 
ATOM     31  C   UNL     1       4.873   1.211  22.926  0.00  0.00    +0.025 A 
ATOM     32  C   UNL     1       5.541   0.128  23.497  0.00  0.00    +0.033 A 
BRANCH  32   8
ATOM      5  O   UNL     1       7.823  -1.158  22.011  0.00  0.00    -0.276 OA
ATOM      8  N   UNL     1       6.917   0.194  23.716  0.00  0.00    -0.286 N 
ATOM     33  C   UNL     1       7.941  -0.429  22.991  0.00  0.00    +0.214 C 
ATOM     34  C   UNL     1       9.303  -0.104  23.551  0.00  0.00    +0.109 C 
ATOM     37  H   UNL     1       7.203   0.769  24.507  0.00  0.00    +0.155 HD
ENDBRANCH  32   8
ENDBRANCH   1  27
ENDBRANCH   7   1
ENDBRANCH  17   7
ENDBRANCH  10  17
TORSDOF 9
ENDMDL
MODEL 6
REMARK VINA RESULT:       4.0      2.416      5.694
REMARK  Name = 38027244
REMARK  13 active torsions:
REMARK  status: ('A' for Active; 'I' for Inactive)
REMARK    1  A    between atoms: S_1  and  N_7
REMARK    2  A    between atoms: S_1  and  C_27
REMARK    3  A    between atoms: N_6  and  C_20
REMARK    4  A    between atoms: N_7  and  C_17
REMARK    5  A    between atoms: N_8  and  C_32
REMARK    6  A    between atoms: C_9  and  C_13
REMARK    7  A    between atoms: C_10  and  C_17
REMARK    8  A    between atoms: C_12  and  C_16
REMARK    9  A    between atoms: C_13  and  C_18
REMARK   10  A    between atoms: C_13  and  C_19
REMARK   11  A    between atoms: C_14  and  C_21
REMARK   12  A    between atoms: C_16  and  C_22
REMARK   13  A    between atoms: C_33  and  C_34
REMARK                            x       y       z     vdW  Elec       q    Type
REMARK                         _______ _______ _______ _____ _____    ______ ____
ROOT
ATOM      9  C   UNL     1      -3.478   2.647  25.298  0.00  0.00    +0.000 C 
ATOM     10  C   UNL     1      -3.812   3.813  24.335  0.00  0.00    +0.030 C 
ATOM     11  C   UNL     1      -2.739   3.171  26.539  0.00  0.00    +0.012 C 
ATOM     12  C   UNL     1      -1.428   3.893  26.173  0.00  0.00    +0.023 C 
ATOM     14  C   UNL     1      -1.624   4.876  25.036  0.00  0.00    -0.073 C 
ATOM     15  C   UNL     1      -2.702   4.833  24.235  0.00  0.00    -0.023 C 
ATOM     21  C   UNL     1      -0.573   5.939  24.872  0.00  0.00    +0.039 C 
ENDROOT
BRANCH   9  13
ATOM     13  C   UNL     1      -4.736   1.887  25.727  0.00  0.00    -0.013 C 
ATOM     18  C   UNL     1      -5.904   2.850  25.910  0.00  0.00    +0.007 C 
ATOM     19  C   UNL     1      -5.081   0.806  24.707  0.00  0.00    +0.007 C 
ENDBRANCH   9  13
BRANCH  12  16
ATOM     16  C   UNL     1      -0.317   2.888  25.845  0.00  0.00    +0.103 C 
BRANCH  16  22
ATOM      2  O   UNL     1      -0.096   1.583  27.870  0.00  0.00    -0.276 OA
ATOM      6  N   UNL     1      -0.909   0.574  25.942  0.00  0.00    -0.312 N 
ATOM     22  C   UNL     1      -0.417   1.636  26.686  0.00  0.00    +0.214 C 
ATOM     35  H   UNL     1      -1.185   0.734  24.976  0.00  0.00    +0.149 HD
BRANCH   6  20
ATOM     20  C   UNL     1      -1.107  -0.746  26.487  0.00  0.00    +0.073 C 
ATOM     23  C   UNL     1      -0.499  -1.820  25.595  0.00  0.00    +0.022 C 
ATOM     24  C   UNL     1      -2.581  -1.131  26.521  0.00  0.00    +0.022 C 
ATOM     25  C   UNL     1      -1.544  -2.055  24.508  0.00  0.00    +0.002 C 
ATOM     26  C   UNL     1      -2.886  -1.651  25.118  0.00  0.00    +0.002 C 
ENDBRANCH   6  20
ENDBRANCH  16  22
ENDBRANCH  12  16
BRANCH  10  17
ATOM     17  C   UNL     1      -4.156   3.294  22.934  0.00  0.00    +0.113 C 
BRANCH  17   7
ATOM      7  N   UNL     1      -2.915   2.892  22.251  0.00  0.00    -0.189 NA
ATOM     36  H   UNL     1      -2.485   3.586  21.628  0.00  0.00    +0.148 HD
BRANCH   7   1
ATOM      1  S   UNL     1      -2.599   1.247  21.945  0.00  0.00    +0.058 S 
ATOM      3  O   UNL     1      -2.629   1.014  20.513  0.00  0.00    -0.153 OA
ATOM      4  O   UNL     1      -3.408   0.434  22.833  0.00  0.00    -0.153 OA
BRANCH   1  27
ATOM     27  C   UNL     1      -0.924   1.095  22.488  0.00  0.00    +0.105 A 
ATOM     28  C   UNL     1      -0.303   2.162  23.139  0.00  0.00    +0.030 A 
ATOM     29  C   UNL     1      -0.224  -0.091  22.267  0.00  0.00    +0.030 A 
ATOM     30  C   UNL     1       1.019   2.041  23.568  0.00  0.00    +0.025 A 
ATOM     31  C   UNL     1       1.097  -0.210  22.696  0.00  0.00    +0.025 A 
ATOM     32  C   UNL     1       1.719   0.856  23.346  0.00  0.00    +0.033 A 
BRANCH  32   8
ATOM      5  O   UNL     1       4.268   0.570  21.769  0.00  0.00    -0.276 OA
ATOM      8  N   UNL     1       3.041   0.736  23.776  0.00  0.00    -0.286 N 
ATOM     33  C   UNL     1       4.196   0.604  22.994  0.00  0.00    +0.214 C 
ATOM     34  C   UNL     1       5.438   0.502  23.843  0.00  0.00    +0.109 C 
ATOM     37  H   UNL     1       3.172   0.746  24.785  0.00  0.00    +0.155 HD
ENDBRANCH  32   8
ENDBRANCH   1  27
ENDBRANCH   7   1
ENDBRANCH  17   7
ENDBRANCH  10  17
TORSDOF 9
ENDMDL
