MODEL 1
REMARK VINA RESULT:      -2.4      0.000      0.000
REMARK  Name = 11883347
REMARK  6 active torsions:
REMARK  status: ('A' for Active; 'I' for Inactive)
REMARK    1  A    between atoms: S_1  and  N_8
REMARK    2  A    between atoms: S_1  and  C_16
REMARK    3  A    between atoms: O_4  and  C_13
REMARK    4  A    between atoms: O_4  and  C_17
REMARK    5  A    between atoms: N_8  and  C_12
REMARK    6  A    between atoms: N_9  and  C_23
REMARK                            x       y       z     vdW  Elec       q    Type
REMARK                         _______ _______ _______ _____ _____    ______ ____
ROOT
ATOM      2  O   UNL     1      -2.949   0.101  23.799  0.00  0.00    -0.369 OA
ATOM      3  O   UNL     1      -3.141  -2.719  24.988  0.00  0.00    -0.368 OA
ATOM     10  C   UNL     1      -3.224  -1.415  25.601  0.00  0.00    +0.171 C 
ATOM     11  C   UNL     1      -2.234  -0.525  24.877  0.00  0.00    +0.191 C 
ATOM     12  C   UNL     1      -4.564  -0.786  25.301  0.00  0.00    +0.133 C 
ATOM     13  C   UNL     1      -1.213  -1.517  24.370  0.00  0.00    +0.235 C 
ATOM     14  C   UNL     1      -4.346  -0.210  23.912  0.00  0.00    +0.183 C 
ATOM     15  C   UNL     1      -2.074  -2.712  24.028  0.00  0.00    +0.207 C 
ENDROOT
BRANCH  12   8
ATOM      8  N   UNL     1      -4.881   0.250  26.255  0.00  0.00    -0.182 NA
ATOM     33  H   UNL     1      -4.742   0.052  27.253  0.00  0.00    +0.148 HD
BRANCH   8   1
ATOM      1  S   UNL     1      -5.808   1.588  25.772  0.00  0.00    +0.059 S 
ATOM      5  O   UNL     1      -6.580   2.074  26.900  0.00  0.00    -0.153 OA
ATOM      6  O   UNL     1      -6.467   1.273  24.519  0.00  0.00    -0.153 OA
BRANCH   1  16
ATOM     16  C   UNL     1      -4.559   2.786  25.410  0.00  0.00    +0.106 A 
ATOM     18  C   UNL     1      -3.234   2.478  25.666  0.00  0.00    +0.037 A 
ATOM     19  C   UNL     1      -4.929   4.006  24.880  0.00  0.00    +0.029 A 
ATOM     20  C   UNL     1      -2.229   3.418  25.385  0.00  0.00    -0.016 A 
ATOM     21  C   UNL     1      -3.944   4.952  24.594  0.00  0.00    +0.010 A 
ATOM     22  C   UNL     1      -2.589   4.674  24.841  0.00  0.00    -0.018 A 
ATOM     24  C   UNL     1      -0.874   3.139  25.630  0.00  0.00    +0.008 A 
ATOM     25  C   UNL     1      -1.585   5.615  24.560  0.00  0.00    +0.008 A 
ATOM     26  C   UNL     1       0.110   4.086  25.345  0.00  0.00    +0.001 A 
ATOM     27  C   UNL     1      -0.244   5.321  24.810  0.00  0.00    +0.001 A 
ENDBRANCH   1  16
ENDBRANCH   8   1
ENDBRANCH  12   8
BRANCH  13   4
ATOM      4  O   UNL     1      -0.482  -1.053  23.257  0.00  0.00    -0.442 OA
BRANCH   4  17
ATOM      7  O   UNL     1       0.543   0.856  23.988  0.00  0.00    -0.226 OA
ATOM      9  N   UNL     1       1.770  -0.963  23.175  0.00  0.00    -0.251 N 
ATOM     17  C   UNL     1       0.625  -0.272  23.519  0.00  0.00    +0.405 C 
ATOM     34  H   UNL     1       1.633  -1.898  22.798  0.00  0.00    +0.158 HD
BRANCH   9  23
ATOM     23  C   UNL     1       3.111  -0.533  23.280  0.00  0.00    +0.036 A 
ATOM     28  C   UNL     1       3.468   0.710  22.782  0.00  0.00    +0.023 A 
ATOM     29  C   UNL     1       4.046  -1.363  23.881  0.00  0.00    +0.023 A 
ATOM     30  C   UNL     1       4.793   1.134  22.887  0.00  0.00    +0.002 A 
ATOM     31  C   UNL     1       5.370  -0.938  23.985  0.00  0.00    +0.002 A 
ATOM     32  C   UNL     1       5.744   0.310  23.488  0.00  0.00    +0.000 A 
ENDBRANCH   9  23
ENDBRANCH   4  17
ENDBRANCH  13   4
TORSDOF 6
ENDMDL
MODEL 2
REMARK VINA RESULT:      -2.3      1.900      4.164
REMARK  Name = 11883347
REMARK  6 active torsions:
REMARK  status: ('A' for Active; 'I' for Inactive)
REMARK    1  A    between atoms: S_1  and  N_8
REMARK    2  A    between atoms: S_1  and  C_16
REMARK    3  A    between atoms: O_4  and  C_13
REMARK    4  A    between atoms: O_4  and  C_17
REMARK    5  A    between atoms: N_8  and  C_12
REMARK    6  A    between atoms: N_9  and  C_23
REMARK                            x       y       z     vdW  Elec       q    Type
REMARK                         _______ _______ _______ _____ _____    ______ ____
ROOT
ATOM      2  O   UNL     1      -2.085   3.828  24.769  0.00  0.00    -0.369 OA
ATOM      3  O   UNL     1      -3.421   2.554  22.321  0.00  0.00    -0.368 OA
ATOM     10  C   UNL     1      -3.586   2.313  23.734  0.00  0.00    +0.171 C 
ATOM     11  C   UNL     1      -2.217   2.454  24.367  0.00  0.00    +0.191 C 
ATOM     12  C   UNL     1      -4.391   3.427  24.359  0.00  0.00    +0.133 C 
ATOM     13  C   UNL     1      -1.291   2.115  23.222  0.00  0.00    +0.235 C 
ATOM     14  C   UNL     1      -3.339   4.500  24.581  0.00  0.00    +0.183 C 
ATOM     15  C   UNL     1      -2.022   2.703  22.037  0.00  0.00    +0.207 C 
ENDROOT
BRANCH  12   8
ATOM      8  N   UNL     1      -4.985   3.008  25.606  0.00  0.00    -0.182 NA
ATOM     33  H   UNL     1      -4.623   3.414  26.478  0.00  0.00    +0.148 HD
BRANCH   8   1
ATOM      1  S   UNL     1      -5.966   1.623  25.652  0.00  0.00    +0.059 S 
ATOM      5  O   UNL     1      -6.968   1.706  24.607  0.00  0.00    -0.153 OA
ATOM      6  O   UNL     1      -6.362   1.377  27.026  0.00  0.00    -0.153 OA
BRANCH   1  16
ATOM     16  C   UNL     1      -4.821   0.351  25.210  0.00  0.00    +0.106 A 
ATOM     18  C   UNL     1      -3.576   0.322  25.815  0.00  0.00    +0.037 A 
ATOM     19  C   UNL     1      -5.190  -0.590  24.269  0.00  0.00    +0.029 A 
ATOM     20  C   UNL     1      -2.655  -0.682  25.475  0.00  0.00    -0.016 A 
ATOM     21  C   UNL     1      -4.288  -1.595  23.919  0.00  0.00    +0.010 A 
ATOM     22  C   UNL     1      -3.016  -1.655  24.513  0.00  0.00    -0.018 A 
ATOM     24  C   UNL     1      -1.384  -0.743  26.069  0.00  0.00    +0.008 A 
ATOM     25  C   UNL     1      -2.095  -2.659  24.171  0.00  0.00    +0.008 A 
ATOM     26  C   UNL     1      -0.481  -1.747  25.718  0.00  0.00    +0.001 A 
ATOM     27  C   UNL     1      -0.836  -2.704  24.771  0.00  0.00    +0.001 A 
ENDBRANCH   1  16
ENDBRANCH   8   1
ENDBRANCH  12   8
BRANCH  13   4
ATOM      4  O   UNL     1       0.004   2.651  23.368  0.00  0.00    -0.442 OA
BRANCH   4  17
ATOM      7  O   UNL     1       0.908   1.602  25.187  0.00  0.00    -0.226 OA
ATOM      9  N   UNL     1       1.873   1.426  23.063  0.00  0.00    -0.251 N 
ATOM     17  C   UNL     1       0.944   1.856  23.989  0.00  0.00    +0.405 C 
ATOM     34  H   UNL     1       1.733   1.745  22.107  0.00  0.00    +0.158 HD
BRANCH   9  23
ATOM     23  C   UNL     1       2.997   0.597  23.276  0.00  0.00    +0.036 A 
ATOM     28  C   UNL     1       2.806  -0.743  23.573  0.00  0.00    +0.023 A 
ATOM     29  C   UNL     1       4.269   1.140  23.184  0.00  0.00    +0.023 A 
ATOM     30  C   UNL     1       3.917  -1.562  23.783  0.00  0.00    +0.002 A 
ATOM     31  C   UNL     1       5.379   0.322  23.394  0.00  0.00    +0.002 A 
ATOM     32  C   UNL     1       5.202  -1.029  23.694  0.00  0.00    +0.000 A 
ENDBRANCH   9  23
ENDBRANCH   4  17
ENDBRANCH  13   4
TORSDOF 6
ENDMDL
MODEL 3
REMARK VINA RESULT:      -1.1      2.150      4.881
REMARK  Name = 11883347
REMARK  6 active torsions:
REMARK  status: ('A' for Active; 'I' for Inactive)
REMARK    1  A    between atoms: S_1  and  N_8
REMARK    2  A    between atoms: S_1  and  C_16
REMARK    3  A    between atoms: O_4  and  C_13
REMARK    4  A    between atoms: O_4  and  C_17
REMARK    5  A    between atoms: N_8  and  C_12
REMARK    6  A    between atoms: N_9  and  C_23
REMARK                            x       y       z     vdW  Elec       q    Type
REMARK                         _______ _______ _______ _____ _____    ______ ____
ROOT
ATOM      2  O   UNL     1      -2.761   3.163  26.052  0.00  0.00    -0.369 OA
ATOM      3  O   UNL     1      -2.926   5.761  24.433  0.00  0.00    -0.368 OA
ATOM     10  C   UNL     1      -3.314   4.409  24.112  0.00  0.00    +0.171 C 
ATOM     11  C   UNL     1      -2.280   3.495  24.739  0.00  0.00    +0.191 C 
ATOM     12  C   UNL     1      -4.594   4.052  24.828  0.00  0.00    +0.133 C 
ATOM     13  C   UNL     1      -1.056   4.380  24.799  0.00  0.00    +0.235 C 
ATOM     14  C   UNL     1      -4.095   3.669  26.210  0.00  0.00    +0.183 C 
ATOM     15  C   UNL     1      -1.657   5.734  25.102  0.00  0.00    +0.207 C 
ENDROOT
BRANCH  12   8
ATOM      8  N   UNL     1      -5.263   2.945  24.186  0.00  0.00    -0.182 NA
ATOM     33  H   UNL     1      -5.515   3.038  23.194  0.00  0.00    +0.148 HD
BRANCH   8   1
ATOM      1  S   UNL     1      -5.946   1.709  25.128  0.00  0.00    +0.059 S 
ATOM      5  O   UNL     1      -7.216   1.309  24.553  0.00  0.00    -0.153 OA
ATOM      6  O   UNL     1      -5.864   2.087  26.525  0.00  0.00    -0.153 OA
BRANCH   1  16
ATOM     16  C   UNL     1      -4.797   0.387  24.884  0.00  0.00    +0.106 A 
ATOM     18  C   UNL     1      -3.554   0.453  25.488  0.00  0.00    +0.037 A 
ATOM     19  C   UNL     1      -5.162  -0.685  24.094  0.00  0.00    +0.029 A 
ATOM     20  C   UNL     1      -2.629  -0.589  25.304  0.00  0.00    -0.016 A 
ATOM     21  C   UNL     1      -4.257  -1.728  23.900  0.00  0.00    +0.010 A 
ATOM     22  C   UNL     1      -2.986  -1.695  24.498  0.00  0.00    -0.018 A 
ATOM     24  C   UNL     1      -1.360  -0.556  25.903  0.00  0.00    +0.008 A 
ATOM     25  C   UNL     1      -2.062  -2.737  24.313  0.00  0.00    +0.008 A 
ATOM     26  C   UNL     1      -0.454  -1.599  25.708  0.00  0.00    +0.001 A 
ATOM     27  C   UNL     1      -0.804  -2.688  24.915  0.00  0.00    +0.001 A 
ENDBRANCH   1  16
ENDBRANCH   8   1
ENDBRANCH  12   8
BRANCH  13   4
ATOM      4  O   UNL     1      -0.123   3.982  25.778  0.00  0.00    -0.442 OA
BRANCH   4  17
ATOM      7  O   UNL     1       0.904   2.063  26.478  0.00  0.00    -0.226 OA
ATOM      9  N   UNL     1       0.697   2.588  24.207  0.00  0.00    -0.251 N 
ATOM     17  C   UNL     1       0.538   2.791  25.563  0.00  0.00    +0.405 C 
ATOM     34  H   UNL     1       0.322   3.312  23.598  0.00  0.00    +0.158 HD
BRANCH   9  23
ATOM     23  C   UNL     1       1.318   1.498  23.556  0.00  0.00    +0.036 A 
ATOM     28  C   UNL     1       0.543   0.433  23.125  0.00  0.00    +0.023 A 
ATOM     29  C   UNL     1       2.690   1.516  23.360  0.00  0.00    +0.023 A 
ATOM     30  C   UNL     1       1.156  -0.643  22.483  0.00  0.00    +0.002 A 
ATOM     31  C   UNL     1       3.303   0.440  22.718  0.00  0.00    +0.002 A 
ATOM     32  C   UNL     1       2.536  -0.640  22.279  0.00  0.00    +0.000 A 
ENDBRANCH   9  23
ENDBRANCH   4  17
ENDBRANCH  13   4
TORSDOF 6
ENDMDL
MODEL 4
REMARK VINA RESULT:       0.6      2.033      4.286
REMARK  Name = 11883347
REMARK  6 active torsions:
REMARK  status: ('A' for Active; 'I' for Inactive)
REMARK    1  A    between atoms: S_1  and  N_8
REMARK    2  A    between atoms: S_1  and  C_16
REMARK    3  A    between atoms: O_4  and  C_13
REMARK    4  A    between atoms: O_4  and  C_17
REMARK    5  A    between atoms: N_8  and  C_12
REMARK    6  A    between atoms: N_9  and  C_23
REMARK                            x       y       z     vdW  Elec       q    Type
REMARK                         _______ _______ _______ _____ _____    ______ ____
ROOT
ATOM      2  O   UNL     1      -0.680   1.172  25.663  0.00  0.00    -0.369 OA
ATOM      3  O   UNL     1      -0.069   3.525  23.795  0.00  0.00    -0.368 OA
ATOM     10  C   UNL     1      -1.285   3.122  24.459  0.00  0.00    +0.171 C 
ATOM     11  C   UNL     1      -1.310   1.607  24.447  0.00  0.00    +0.191 C 
ATOM     12  C   UNL     1      -1.216   3.472  25.926  0.00  0.00    +0.133 C 
ATOM     13  C   UNL     1      -0.474   1.276  23.233  0.00  0.00    +0.235 C 
ATOM     14  C   UNL     1      -0.421   2.311  26.498  0.00  0.00    +0.183 C 
ATOM     15  C   UNL     1       0.580   2.359  23.268  0.00  0.00    +0.207 C 
ENDROOT
BRANCH  12   8
ATOM      8  N   UNL     1      -2.534   3.544  26.510  0.00  0.00    -0.182 NA
ATOM     33  H   UNL     1      -2.632   3.353  27.514  0.00  0.00    +0.148 HD
BRANCH   8   1
ATOM      1  S   UNL     1      -3.904   3.561  25.507  0.00  0.00    +0.059 S 
ATOM      5  O   UNL     1      -3.653   4.413  24.361  0.00  0.00    -0.153 OA
ATOM      6  O   UNL     1      -5.081   3.768  26.328  0.00  0.00    -0.153 OA
BRANCH   1  16
ATOM     16  C   UNL     1      -3.960   1.887  24.939  0.00  0.00    +0.106 A 
ATOM     18  C   UNL     1      -3.607   0.868  25.806  0.00  0.00    +0.037 A 
ATOM     19  C   UNL     1      -4.354   1.629  23.642  0.00  0.00    +0.029 A 
ATOM     20  C   UNL     1      -3.645  -0.467  25.371  0.00  0.00    -0.016 A 
ATOM     21  C   UNL     1      -4.399   0.309  23.192  0.00  0.00    +0.010 A 
ATOM     22  C   UNL     1      -4.047  -0.751  24.044  0.00  0.00    -0.018 A 
ATOM     24  C   UNL     1      -3.295  -1.527  26.224  0.00  0.00    +0.008 A 
ATOM     25  C   UNL     1      -4.086  -2.085  23.608  0.00  0.00    +0.008 A 
ATOM     26  C   UNL     1      -3.339  -2.847  25.774  0.00  0.00    +0.001 A 
ATOM     27  C   UNL     1      -3.734  -3.126  24.469  0.00  0.00    +0.001 A 
ENDBRANCH   1  16
ENDBRANCH   8   1
ENDBRANCH  12   8
BRANCH  13   4
ATOM      4  O   UNL     1       0.090  -0.016  23.274  0.00  0.00    -0.442 OA
BRANCH   4  17
ATOM      7  O   UNL     1       1.537  -0.261  21.521  0.00  0.00    -0.226 OA
ATOM      9  N   UNL     1       2.290  -0.186  23.736  0.00  0.00    -0.251 N 
ATOM     17  C   UNL     1       1.347  -0.166  22.728  0.00  0.00    +0.405 C 
ATOM     34  H   UNL     1       1.935  -0.093  24.684  0.00  0.00    +0.158 HD
BRANCH   9  23
ATOM     23  C   UNL     1       3.692  -0.321  23.615  0.00  0.00    +0.036 A 
ATOM     28  C   UNL     1       4.447   0.766  23.205  0.00  0.00    +0.023 A 
ATOM     29  C   UNL     1       4.285  -1.540  23.909  0.00  0.00    +0.023 A 
ATOM     30  C   UNL     1       5.830   0.632  23.086  0.00  0.00    +0.002 A 
ATOM     31  C   UNL     1       5.668  -1.673  23.790  0.00  0.00    +0.002 A 
ATOM     32  C   UNL     1       6.441  -0.587  23.378  0.00  0.00    +0.000 A 
ENDBRANCH   9  23
ENDBRANCH   4  17
ENDBRANCH  13   4
TORSDOF 6
ENDMDL
