MODEL 1
REMARK VINA RESULT:      -2.4      0.000      0.000
REMARK  Name = 45361595
REMARK  11 active torsions:
REMARK  status: ('A' for Active; 'I' for Inactive)
REMARK    1  A    between atoms: O_1  and  C_10
REMARK    2  A    between atoms: O_4  and  C_29
REMARK    3  A    between atoms: O_4  and  C_30
REMARK    4  A    between atoms: N_5  and  C_14
REMARK    5  A    between atoms: C_7  and  C_17
REMARK    6  A    between atoms: C_9  and  C_19
REMARK    7  A    between atoms: C_12  and  C_18
REMARK    8  A    between atoms: C_18  and  C_20
REMARK    9  A    between atoms: C_18  and  C_21
REMARK   10  A    between atoms: C_22  and  C_25
REMARK   11  A    between atoms: C_25  and  C_29
REMARK                            x       y       z     vdW  Elec       q    Type
REMARK                         _______ _______ _______ _____ _____    ______ ____
ROOT
ATOM      7  C   UNL     1      -2.046  -0.921  25.262  0.00  0.00    -0.027 C 
ATOM      8  C   UNL     1      -1.957   0.222  24.197  0.00  0.00    +0.028 C 
ATOM      9  C   UNL     1      -0.460   0.578  23.883  0.00  0.00    +0.012 C 
ATOM     10  C   UNL     1      -2.864   1.426  24.584  0.00  0.00    +0.122 C 
ATOM     11  C   UNL     1      -3.527  -1.324  25.463  0.00  0.00    +0.007 C 
ATOM     12  C   UNL     1      -4.319   1.001  24.885  0.00  0.00    +0.029 C 
ATOM     13  C   UNL     1      -1.289  -2.161  24.736  0.00  0.00    +0.009 C 
ATOM     14  C   UNL     1       0.312  -0.693  23.427  0.00  0.00    +0.076 C 
ATOM     15  C   UNL     1      -4.409  -0.155  25.880  0.00  0.00    +0.007 C 
ATOM     16  C   UNL     1       0.165  -1.870  24.389  0.00  0.00    +0.023 C 
ATOM     17  C   UNL     1      -1.454  -0.504  26.632  0.00  0.00    +0.011 C 
ATOM     19  C   UNL     1      -0.298   1.678  22.820  0.00  0.00    +0.010 C 
ENDROOT
BRANCH  14   5
ATOM      3  O   UNL     1       1.706  -0.380  20.919  0.00  0.00    -0.276 OA
ATOM      5  N   UNL     1       1.723  -0.425  23.241  0.00  0.00    -0.312 N 
ATOM     22  C   UNL     1       2.302  -0.291  21.990  0.00  0.00    +0.215 C 
ATOM     31  H   UNL     1       2.316  -0.399  24.065  0.00  0.00    +0.149 HD
BRANCH  22  25
ATOM     25  C   UNL     1       3.793  -0.013  22.094  0.00  0.00    +0.124 C 
BRANCH  25  29
ATOM     29  C   UNL     1       4.116   1.166  23.000  0.00  0.00    +0.168 C 
BRANCH  29   4
ATOM      4  O   UNL     1       5.194   0.820  23.859  0.00  0.00    -0.382 OA
ATOM     30  C   UNL     1       5.341  -0.590  23.967  0.00  0.00    +0.194 C 
ENDBRANCH  29   4
ENDBRANCH  25  29
ENDBRANCH  22  25
ENDBRANCH  14   5
BRANCH  10   1
ATOM      1  O   UNL     1      -2.924   2.347  23.494  0.00  0.00    -0.391 OA
ATOM     32  H   UNL     1      -2.065   2.797  23.430  0.00  0.00    +0.210 HD
ENDBRANCH  10   1
BRANCH  12  18
ATOM     18  C   UNL     1      -5.163   2.178  25.391  0.00  0.00    +0.078 C 
ATOM     20  C   UNL     1      -6.612   2.037  24.964  0.00  0.00    +0.017 C 
BRANCH  18  21
ATOM      2  O   UNL     1      -5.132   4.003  23.880  0.00  0.00    -0.275 OA
ATOM      6  N   UNL     1      -3.441   3.948  25.473  0.00  0.00    -0.301 N 
ATOM     21  C   UNL     1      -4.584   3.458  24.842  0.00  0.00    +0.219 C 
ATOM     23  C   UNL     1      -2.819   5.185  24.997  0.00  0.00    +0.108 C 
ATOM     24  C   UNL     1      -2.794   3.345  26.646  0.00  0.00    +0.108 C 
ATOM     26  C   UNL     1      -1.337   4.970  24.696  0.00  0.00    +0.019 C 
ATOM     27  C   UNL     1      -1.310   3.095  26.377  0.00  0.00    +0.019 C 
ATOM     28  C   UNL     1      -0.611   4.367  25.897  0.00  0.00    +0.003 C 
ENDBRANCH  18  21
ENDBRANCH  12  18
TORSDOF 7
ENDMDL
