MODEL 1
REMARK VINA RESULT:      -4.8      0.000      0.000
REMARK  Name = 45784185
REMARK  3 active torsions:
REMARK  status: ('A' for Active; 'I' for Inactive)
REMARK    1  A    between atoms: N_2  and  C_4
REMARK    2  A    between atoms: C_9  and  C_12
REMARK    3  A    between atoms: C_17  and  C_19
REMARK                            x       y       z     vdW  Elec       q    Type
REMARK                         _______ _______ _______ _____ _____    ______ ____
ROOT
ATOM      1  O   UNL     1      -5.205 -10.501  14.563  0.00  0.00    -0.439 OA
ATOM      3  N   UNL     1      -7.414 -10.377  15.054  0.00  0.00    -0.213 NA
ATOM     12  C   UNL     1      -6.490 -10.395  14.120  0.00  0.00    +0.201 A 
ATOM     13  C   UNL     1      -6.691 -10.481  16.218  0.00  0.00    +0.110 A 
ATOM     14  C   UNL     1      -5.339 -10.558  15.921  0.00  0.00    +0.155 A 
ATOM     15  C   UNL     1      -7.094 -10.519  17.560  0.00  0.00    +0.035 A 
ATOM     16  C   UNL     1      -4.325 -10.670  16.866  0.00  0.00    +0.049 A 
ATOM     17  C   UNL     1      -6.100 -10.631  18.543  0.00  0.00    -0.048 A 
ATOM     18  C   UNL     1      -4.744 -10.706  18.200  0.00  0.00    +0.007 A 
ATOM     19  C   UNL     1      -6.497 -10.674  19.983  0.00  0.00    +0.044 C 
ENDROOT
BRANCH  12   9
ATOM      2  N   UNL     1      -5.494  -9.987  10.615  0.00  0.00    -0.299 NA
ATOM      8  C   UNL     1      -5.427 -10.781  11.846  0.00  0.00    +0.097 C 
ATOM      9  C   UNL     1      -6.665 -10.311  12.621  0.00  0.00    +0.090 C 
ATOM     10  C   UNL     1      -5.852  -8.638  11.058  0.00  0.00    +0.085 C 
ATOM     11  C   UNL     1      -6.950  -8.898  12.082  0.00  0.00    +0.029 C 
BRANCH   2   4
ATOM      4  C   UNL     1      -4.198  -9.982   9.928  0.00  0.00    +0.057 C 
ATOM      5  C   UNL     1      -3.090 -10.410  10.913  0.00  0.00    +0.019 C 
ATOM      6  C   UNL     1      -3.590  -8.565   9.979  0.00  0.00    +0.019 C 
ATOM      7  C   UNL     1      -2.254  -9.235  10.362  0.00  0.00    +0.003 C 
ENDBRANCH   2   4
ENDBRANCH  12   9
TORSDOF 2
ENDMDL
MODEL 2
REMARK VINA RESULT:      -4.5      1.631      2.198
REMARK  Name = 45784185
REMARK  3 active torsions:
REMARK  status: ('A' for Active; 'I' for Inactive)
REMARK    1  A    between atoms: N_2  and  C_4
REMARK    2  A    between atoms: C_9  and  C_12
REMARK    3  A    between atoms: C_17  and  C_19
REMARK                            x       y       z     vdW  Elec       q    Type
REMARK                         _______ _______ _______ _____ _____    ______ ____
ROOT
ATOM      1  O   UNL     1      -6.383  -9.874  14.219  0.00  0.00    -0.439 OA
ATOM      3  N   UNL     1      -8.526  -9.696  13.504  0.00  0.00    -0.213 NA
ATOM     12  C   UNL     1      -7.260  -9.827  13.177  0.00  0.00    +0.201 A 
ATOM     13  C   UNL     1      -8.496  -9.651  14.877  0.00  0.00    +0.110 A 
ATOM     14  C   UNL     1      -7.186  -9.761  15.318  0.00  0.00    +0.155 A 
ATOM     15  C   UNL     1      -9.522  -9.523  15.823  0.00  0.00    +0.035 A 
ATOM     16  C   UNL     1      -6.797  -9.752  16.652  0.00  0.00    +0.049 A 
ATOM     17  C   UNL     1      -9.169  -9.509  17.180  0.00  0.00    -0.048 A 
ATOM     18  C   UNL     1      -7.833  -9.622  17.584  0.00  0.00    +0.007 A 
ATOM     19  C   UNL     1     -10.239  -9.372  18.213  0.00  0.00    +0.044 C 
ENDROOT
BRANCH  12   9
ATOM      2  N   UNL     1      -4.611 -10.187  10.668  0.00  0.00    -0.299 NA
ATOM      8  C   UNL     1      -5.372 -10.781  11.771  0.00  0.00    +0.097 C 
ATOM      9  C   UNL     1      -6.650  -9.932  11.798  0.00  0.00    +0.090 C 
ATOM     10  C   UNL     1      -4.757  -8.741  10.847  0.00  0.00    +0.085 C 
ATOM     11  C   UNL     1      -6.239  -8.589  11.170  0.00  0.00    +0.029 C 
BRANCH   2   4
ATOM      4  C   UNL     1      -3.199 -10.579  10.740  0.00  0.00    +0.057 C 
ATOM      5  C   UNL     1      -2.793 -10.781  12.215  0.00  0.00    +0.019 C 
ATOM      6  C   UNL     1      -2.311  -9.318  10.748  0.00  0.00    +0.019 C 
ATOM      7  C   UNL     1      -1.515  -9.979  11.893  0.00  0.00    +0.003 C 
ENDBRANCH   2   4
ENDBRANCH  12   9
TORSDOF 2
ENDMDL
MODEL 3
REMARK VINA RESULT:      -3.2      2.146      2.653
REMARK  Name = 45784185
REMARK  3 active torsions:
REMARK  status: ('A' for Active; 'I' for Inactive)
REMARK    1  A    between atoms: N_2  and  C_4
REMARK    2  A    between atoms: C_9  and  C_12
REMARK    3  A    between atoms: C_17  and  C_19
REMARK                            x       y       z     vdW  Elec       q    Type
REMARK                         _______ _______ _______ _____ _____    ______ ____
ROOT
ATOM      1  O   UNL     1      -7.024 -10.229  13.220  0.00  0.00    -0.439 OA
ATOM      3  N   UNL     1      -8.948 -10.780  14.285  0.00  0.00    -0.213 NA
ATOM     12  C   UNL     1      -8.338 -10.582  13.137  0.00  0.00    +0.201 A 
ATOM     13  C   UNL     1      -7.962 -10.542  15.213  0.00  0.00    +0.110 A 
ATOM     14  C   UNL     1      -6.784 -10.205  14.564  0.00  0.00    +0.155 A 
ATOM     15  C   UNL     1      -7.977 -10.589  16.613  0.00  0.00    +0.035 A 
ATOM     16  C   UNL     1      -5.587  -9.901  15.203  0.00  0.00    +0.049 A 
ATOM     17  C   UNL     1      -6.788 -10.288  17.295  0.00  0.00    -0.048 A 
ATOM     18  C   UNL     1      -5.619  -9.952  16.601  0.00  0.00    +0.007 A 
ATOM     19  C   UNL     1      -6.771 -10.328  18.788  0.00  0.00    +0.044 C 
ENDROOT
BRANCH  12   9
ATOM      2  N   UNL     1      -8.517 -10.077   9.510  0.00  0.00    -0.299 NA
ATOM      8  C   UNL     1      -7.821 -10.678  10.653  0.00  0.00    +0.097 C 
ATOM      9  C   UNL     1      -8.904 -10.692  11.740  0.00  0.00    +0.090 C 
ATOM     10  C   UNL     1      -9.273  -8.959  10.078  0.00  0.00    +0.085 C 
ATOM     11  C   UNL     1      -9.870  -9.562  11.343  0.00  0.00    +0.029 C 
BRANCH   2   4
ATOM      4  C   UNL     1      -7.556  -9.600   8.509  0.00  0.00    +0.057 C 
ATOM      5  C   UNL     1      -6.408 -10.622   8.368  0.00  0.00    +0.019 C 
ATOM      6  C   UNL     1      -6.535  -8.659   9.178  0.00  0.00    +0.019 C 
ATOM      7  C   UNL     1      -5.439  -9.421   8.404  0.00  0.00    +0.003 C 
ENDBRANCH   2   4
ENDBRANCH  12   9
TORSDOF 2
ENDMDL
MODEL 4
REMARK VINA RESULT:      -3.2     14.649     16.474
REMARK  Name = 45784185
REMARK  3 active torsions:
REMARK  status: ('A' for Active; 'I' for Inactive)
REMARK    1  A    between atoms: N_2  and  C_4
REMARK    2  A    between atoms: C_9  and  C_12
REMARK    3  A    between atoms: C_17  and  C_19
REMARK                            x       y       z     vdW  Elec       q    Type
REMARK                         _______ _______ _______ _____ _____    ______ ____
ROOT
ATOM      1  O   UNL     1      -3.042   0.429  24.982  0.00  0.00    -0.439 OA
ATOM      3  N   UNL     1      -1.902   2.364  25.288  0.00  0.00    -0.213 NA
ATOM     12  C   UNL     1      -1.842   1.063  25.106  0.00  0.00    +0.201 A 
ATOM     13  C   UNL     1      -3.251   2.623  25.285  0.00  0.00    +0.110 A 
ATOM     14  C   UNL     1      -3.952   1.441  25.097  0.00  0.00    +0.155 A 
ATOM     15  C   UNL     1      -3.966   3.820  25.432  0.00  0.00    +0.035 A 
ATOM     16  C   UNL     1      -5.338   1.343  25.043  0.00  0.00    +0.049 A 
ATOM     17  C   UNL     1      -5.366   3.761  25.383  0.00  0.00    -0.048 A 
ATOM     18  C   UNL     1      -6.036   2.546  25.192  0.00  0.00    +0.007 A 
ATOM     19  C   UNL     1      -6.156   5.019  25.537  0.00  0.00    +0.044 C 
ENDROOT
BRANCH  12   9
ATOM      2  N   UNL     1       1.252  -0.296  23.686  0.00  0.00    -0.299 NA
ATOM      8  C   UNL     1       0.548   0.847  24.275  0.00  0.00    +0.097 C 
ATOM      9  C   UNL     1      -0.619   0.181  25.018  0.00  0.00    +0.090 C 
ATOM     10  C   UNL     1       0.193  -1.159  23.160  0.00  0.00    +0.085 C 
ATOM     11  C   UNL     1      -0.837  -1.154  24.283  0.00  0.00    +0.029 C 
BRANCH   2   4
ATOM      4  C   UNL     1       2.148   0.144  22.610  0.00  0.00    +0.057 C 
ATOM      5  C   UNL     1       3.533  -0.511  22.791  0.00  0.00    +0.019 C 
ATOM      6  C   UNL     1       2.812   1.479  23.002  0.00  0.00    +0.019 C 
ATOM      7  C   UNL     1       4.142   0.877  22.501  0.00  0.00    +0.003 C 
ENDBRANCH   2   4
ENDBRANCH  12   9
TORSDOF 2
ENDMDL
MODEL 5
REMARK VINA RESULT:      -3.1     15.261     17.535
REMARK  Name = 45784185
REMARK  3 active torsions:
REMARK  status: ('A' for Active; 'I' for Inactive)
REMARK    1  A    between atoms: N_2  and  C_4
REMARK    2  A    between atoms: C_9  and  C_12
REMARK    3  A    between atoms: C_17  and  C_19
REMARK                            x       y       z     vdW  Elec       q    Type
REMARK                         _______ _______ _______ _____ _____    ______ ____
ROOT
ATOM      1  O   UNL     1      -1.012   1.183  24.411  0.00  0.00    -0.439 OA
ATOM      3  N   UNL     1       0.624   2.708  24.778  0.00  0.00    -0.213 NA
ATOM     12  C   UNL     1      -0.620   2.348  25.000  0.00  0.00    +0.201 A 
ATOM     13  C   UNL     1       1.107   1.702  23.975  0.00  0.00    +0.110 A 
ATOM     14  C   UNL     1       0.108   0.767  23.749  0.00  0.00    +0.155 A 
ATOM     15  C   UNL     1       2.368   1.501  23.397  0.00  0.00    +0.035 A 
ATOM     16  C   UNL     1       0.257  -0.380  22.978  0.00  0.00    +0.049 A 
ATOM     17  C   UNL     1       2.557   0.354  22.611  0.00  0.00    -0.048 A 
ATOM     18  C   UNL     1       1.521  -0.565  22.408  0.00  0.00    +0.007 A 
ATOM     19  C   UNL     1       3.889   0.112  21.981  0.00  0.00    +0.044 C 
ENDROOT
BRANCH  12   9
ATOM      2  N   UNL     1      -3.957   3.582  25.886  0.00  0.00    -0.299 NA
ATOM      8  C   UNL     1      -3.067   2.436  25.674  0.00  0.00    +0.097 C 
ATOM      9  C   UNL     1      -1.672   3.057  25.822  0.00  0.00    +0.090 C 
ATOM     10  C   UNL     1      -3.346   4.676  25.128  0.00  0.00    +0.085 C 
ATOM     11  C   UNL     1      -1.868   4.543  25.474  0.00  0.00    +0.029 C 
BRANCH   2   4
ATOM      4  C   UNL     1      -5.306   3.293  25.386  0.00  0.00    +0.057 C 
ATOM      5  C   UNL     1      -5.954   2.195  26.256  0.00  0.00    +0.019 C 
ATOM      6  C   UNL     1      -5.226   2.244  24.258  0.00  0.00    +0.019 C 
ATOM      7  C   UNL     1      -6.412   1.531  24.940  0.00  0.00    +0.003 C 
ENDBRANCH   2   4
ENDBRANCH  12   9
TORSDOF 2
ENDMDL
MODEL 6
REMARK VINA RESULT:      -2.8     14.833     16.557
REMARK  Name = 45784185
REMARK  3 active torsions:
REMARK  status: ('A' for Active; 'I' for Inactive)
REMARK    1  A    between atoms: N_2  and  C_4
REMARK    2  A    between atoms: C_9  and  C_12
REMARK    3  A    between atoms: C_17  and  C_19
REMARK                            x       y       z     vdW  Elec       q    Type
REMARK                         _______ _______ _______ _____ _____    ______ ____
ROOT
ATOM      1  O   UNL     1      -0.100   1.854  24.367  0.00  0.00    -0.439 OA
ATOM      3  N   UNL     1      -1.935   0.579  23.983  0.00  0.00    -0.213 NA
ATOM     12  C   UNL     1      -0.625   0.674  23.930  0.00  0.00    +0.201 A 
ATOM     13  C   UNL     1      -2.321   1.794  24.499  0.00  0.00    +0.110 A 
ATOM     14  C   UNL     1      -1.200   2.576  24.735  0.00  0.00    +0.155 A 
ATOM     15  C   UNL     1      -3.587   2.315  24.798  0.00  0.00    +0.035 A 
ATOM     16  C   UNL     1      -1.229   3.865  25.254  0.00  0.00    +0.049 A 
ATOM     17  C   UNL     1      -3.657   3.613  25.323  0.00  0.00    -0.048 A 
ATOM     18  C   UNL     1      -2.501   4.370  25.547  0.00  0.00    +0.007 A 
ATOM     19  C   UNL     1      -4.992   4.197  25.652  0.00  0.00    +0.044 C 
ENDROOT
BRANCH  12   9
ATOM      2  N   UNL     1       2.547  -0.595  22.601  0.00  0.00    -0.299 NA
ATOM      8  C   UNL     1       1.829   0.064  23.696  0.00  0.00    +0.097 C 
ATOM      9  C   UNL     1       0.373  -0.352  23.447  0.00  0.00    +0.090 C 
ATOM     10  C   UNL     1       1.711  -0.376  21.419  0.00  0.00    +0.085 C 
ATOM     11  C   UNL     1       0.307  -0.658  21.940  0.00  0.00    +0.029 C 
BRANCH   2   4
ATOM      4  C   UNL     1       3.875   0.001  22.417  0.00  0.00    +0.057 C 
ATOM      5  C   UNL     1       4.859  -0.603  23.441  0.00  0.00    +0.019 C 
ATOM      6  C   UNL     1       3.968   1.316  23.218  0.00  0.00    +0.019 C 
ATOM      7  C   UNL     1       5.354   0.836  23.698  0.00  0.00    +0.003 C 
ENDBRANCH   2   4
ENDBRANCH  12   9
TORSDOF 2
ENDMDL
MODEL 7
REMARK VINA RESULT:      -2.3     14.544     16.025
REMARK  Name = 45784185
REMARK  3 active torsions:
REMARK  status: ('A' for Active; 'I' for Inactive)
REMARK    1  A    between atoms: N_2  and  C_4
REMARK    2  A    between atoms: C_9  and  C_12
REMARK    3  A    between atoms: C_17  and  C_19
REMARK                            x       y       z     vdW  Elec       q    Type
REMARK                         _______ _______ _______ _____ _____    ______ ____
ROOT
ATOM      1  O   UNL     1      -2.122  -0.550  24.253  0.00  0.00    -0.439 OA
ATOM      3  N   UNL     1      -1.209   1.488  23.869  0.00  0.00    -0.213 NA
ATOM     12  C   UNL     1      -1.053   0.184  23.835  0.00  0.00    +0.201 A 
ATOM     13  C   UNL     1      -2.488   1.642  24.348  0.00  0.00    +0.110 A 
ATOM     14  C   UNL     1      -3.050   0.397  24.583  0.00  0.00    +0.155 A 
ATOM     15  C   UNL     1      -3.247   2.790  24.612  0.00  0.00    +0.035 A 
ATOM     16  C   UNL     1      -4.334   0.187  25.072  0.00  0.00    +0.049 A 
ATOM     17  C   UNL     1      -4.549   2.620  25.107  0.00  0.00    -0.048 A 
ATOM     18  C   UNL     1      -5.079   1.343  25.330  0.00  0.00    +0.007 A 
ATOM     19  C   UNL     1      -5.383   3.823  25.398  0.00  0.00    +0.044 C 
ENDROOT
BRANCH  12   9
ATOM      2  N   UNL     1       2.498  -0.527  23.258  0.00  0.00    -0.299 NA
ATOM      8  C   UNL     1       1.413  -0.288  24.216  0.00  0.00    +0.097 C 
ATOM      9  C   UNL     1       0.157  -0.607  23.394  0.00  0.00    +0.090 C 
ATOM     10  C   UNL     1       2.032   0.076  22.007  0.00  0.00    +0.085 C 
ATOM     11  C   UNL     1       0.580  -0.379  21.932  0.00  0.00    +0.029 C 
BRANCH   2   4
ATOM      4  C   UNL     1       3.741   0.108  23.710  0.00  0.00    +0.057 C 
ATOM      5  C   UNL     1       4.539   0.608  22.488  0.00  0.00    +0.019 C 
ATOM      6  C   UNL     1       4.834  -0.965  23.889  0.00  0.00    +0.019 C 
ATOM      7  C   UNL     1       5.791  -0.004  23.152  0.00  0.00    +0.003 C 
ENDBRANCH   2   4
ENDBRANCH  12   9
TORSDOF 2
ENDMDL
MODEL 8
REMARK VINA RESULT:      -2.1     14.583     16.427
REMARK  Name = 45784185
REMARK  3 active torsions:
REMARK  status: ('A' for Active; 'I' for Inactive)
REMARK    1  A    between atoms: N_2  and  C_4
REMARK    2  A    between atoms: C_9  and  C_12
REMARK    3  A    between atoms: C_17  and  C_19
REMARK                            x       y       z     vdW  Elec       q    Type
REMARK                         _______ _______ _______ _____ _____    ______ ____
ROOT
ATOM      1  O   UNL     1      -1.083   0.949  24.101  0.00  0.00    -0.439 OA
ATOM      3  N   UNL     1      -0.517  -1.149  23.455  0.00  0.00    -0.213 NA
ATOM     12  C   UNL     1      -1.461  -0.343  23.890  0.00  0.00    +0.201 A 
ATOM     13  C   UNL     1       0.583  -0.330  23.366  0.00  0.00    +0.110 A 
ATOM     14  C   UNL     1       0.240   0.955  23.760  0.00  0.00    +0.155 A 
ATOM     15  C   UNL     1       1.900  -0.587  22.964  0.00  0.00    +0.035 A 
ATOM     16  C   UNL     1       1.116   2.034  23.792  0.00  0.00    +0.049 A 
ATOM     17  C   UNL     1       2.814   0.477  22.983  0.00  0.00    -0.048 A 
ATOM     18  C   UNL     1       2.427   1.760  23.388  0.00  0.00    +0.007 A 
ATOM     19  C   UNL     1       4.226   0.235  22.560  0.00  0.00    +0.044 C 
ENDROOT
BRANCH  12   9
ATOM      2  N   UNL     1      -4.966   0.316  24.739  0.00  0.00    -0.299 NA
ATOM      8  C   UNL     1      -3.866   0.463  23.780  0.00  0.00    +0.097 C 
ATOM      9  C   UNL     1      -2.908  -0.664  24.187  0.00  0.00    +0.090 C 
ATOM     10  C   UNL     1      -4.311   0.078  26.027  0.00  0.00    +0.085 C 
ATOM     11  C   UNL     1      -3.219  -0.923  25.671  0.00  0.00    +0.029 C 
BRANCH   2   4
ATOM      4  C   UNL     1      -5.781   1.535  24.787  0.00  0.00    +0.057 C 
ATOM      5  C   UNL     1      -4.907   2.755  24.429  0.00  0.00    +0.019 C 
ATOM      6  C   UNL     1      -5.815   2.079  26.230  0.00  0.00    +0.019 C 
ATOM      7  C   UNL     1      -5.558   3.476  25.628  0.00  0.00    +0.003 C 
ENDBRANCH   2   4
ENDBRANCH  12   9
TORSDOF 2
ENDMDL
MODEL 9
REMARK VINA RESULT:      -1.3     13.773     16.224
REMARK  Name = 45784185
REMARK  3 active torsions:
REMARK  status: ('A' for Active; 'I' for Inactive)
REMARK    1  A    between atoms: N_2  and  C_4
REMARK    2  A    between atoms: C_9  and  C_12
REMARK    3  A    between atoms: C_17  and  C_19
REMARK                            x       y       z     vdW  Elec       q    Type
REMARK                         _______ _______ _______ _____ _____    ______ ____
ROOT
ATOM      1  O   UNL     1       0.026   0.480  22.887  0.00  0.00    -0.439 OA
ATOM      3  N   UNL     1       1.044   1.696  24.507  0.00  0.00    -0.213 NA
ATOM     12  C   UNL     1      -0.089   1.288  23.979  0.00  0.00    +0.201 A 
ATOM     13  C   UNL     1       1.996   1.115  23.705  0.00  0.00    +0.110 A 
ATOM     14  C   UNL     1       1.376   0.369  22.713  0.00  0.00    +0.155 A 
ATOM     15  C   UNL     1       3.396   1.162  23.743  0.00  0.00    +0.035 A 
ATOM     16  C   UNL     1       2.045  -0.350  21.729  0.00  0.00    +0.049 A 
ATOM     17  C   UNL     1       4.106   0.449  22.767  0.00  0.00    -0.048 A 
ATOM     18  C   UNL     1       3.442  -0.292  21.782  0.00  0.00    +0.007 A 
ATOM     19  C   UNL     1       5.600   0.480  22.781  0.00  0.00    +0.044 C 
ENDROOT
BRANCH  12   9
ATOM      2  N   UNL     1      -3.595   0.620  24.816  0.00  0.00    -0.299 NA
ATOM      8  C   UNL     1      -2.178   0.416  25.131  0.00  0.00    +0.097 C 
ATOM      9  C   UNL     1      -1.499   1.598  24.424  0.00  0.00    +0.090 C 
ATOM     10  C   UNL     1      -3.616   0.986  23.398  0.00  0.00    +0.085 C 
ATOM     11  C   UNL     1      -2.465   1.979  23.288  0.00  0.00    +0.029 C 
BRANCH   2   4
ATOM      4  C   UNL     1      -4.362  -0.610  25.047  0.00  0.00    +0.057 C 
ATOM      5  C   UNL     1      -3.463  -1.655  25.740  0.00  0.00    +0.019 C 
ATOM      6  C   UNL     1      -4.300  -1.502  23.791  0.00  0.00    +0.019 C 
ATOM      7  C   UNL     1      -4.024  -2.687  24.739  0.00  0.00    +0.003 C 
ENDBRANCH   2   4
ENDBRANCH  12   9
TORSDOF 2
ENDMDL
MODEL 10
REMARK VINA RESULT:      -1.2     14.962     16.744
REMARK  Name = 45784185
REMARK  3 active torsions:
REMARK  status: ('A' for Active; 'I' for Inactive)
REMARK    1  A    between atoms: N_2  and  C_4
REMARK    2  A    between atoms: C_9  and  C_12
REMARK    3  A    between atoms: C_17  and  C_19
REMARK                            x       y       z     vdW  Elec       q    Type
REMARK                         _______ _______ _______ _____ _____    ______ ____
ROOT
ATOM      1  O   UNL     1       0.684   1.001  23.177  0.00  0.00    -0.439 OA
ATOM      3  N   UNL     1       1.039  -1.144  23.818  0.00  0.00    -0.213 NA
ATOM     12  C   UNL     1       0.164  -0.192  23.581  0.00  0.00    +0.201 A 
ATOM     13  C   UNL     1       2.244  -0.541  23.551  0.00  0.00    +0.110 A 
ATOM     14  C   UNL     1       2.031   0.772  23.158  0.00  0.00    +0.155 A 
ATOM     15  C   UNL     1       3.558  -1.025  23.614  0.00  0.00    +0.035 A 
ATOM     16  C   UNL     1       3.036   1.669  22.814  0.00  0.00    +0.049 A 
ATOM     17  C   UNL     1       4.600  -0.150  23.274  0.00  0.00    -0.048 A 
ATOM     18  C   UNL     1       4.341   1.169  22.882  0.00  0.00    +0.007 A 
ATOM     19  C   UNL     1       6.011  -0.636  23.331  0.00  0.00    +0.044 C 
ENDROOT
BRANCH  12   9
ATOM      2  N   UNL     1      -3.241   1.079  24.063  0.00  0.00    -0.299 NA
ATOM      8  C   UNL     1      -2.027   1.047  23.242  0.00  0.00    +0.097 C 
ATOM      9  C   UNL     1      -1.342  -0.249  23.698  0.00  0.00    +0.090 C 
ATOM     10  C   UNL     1      -2.798   0.689  25.403  0.00  0.00    +0.085 C 
ATOM     11  C   UNL     1      -1.870  -0.487  25.124  0.00  0.00    +0.029 C 
BRANCH   2   4
ATOM      4  C   UNL     1      -3.823   2.426  24.079  0.00  0.00    +0.057 C 
ATOM      5  C   UNL     1      -3.251   3.221  25.272  0.00  0.00    +0.019 C 
ATOM      6  C   UNL     1      -5.166   2.400  24.838  0.00  0.00    +0.019 C 
ATOM      7  C   UNL     1      -4.696   3.683  25.557  0.00  0.00    +0.003 C 
ENDBRANCH   2   4
ENDBRANCH  12   9
TORSDOF 2
ENDMDL
