MODEL 1
REMARK VINA RESULT:       5.3      0.000      0.000
REMARK  Name = 7144186
REMARK  4 active torsions:
REMARK  status: ('A' for Active; 'I' for Inactive)
REMARK    1  A    between atoms: O_6  and  C_30
REMARK    2  A    between atoms: O_6  and  C_33
REMARK    3  A    between atoms: C_17  and  C_22
REMARK    4  A    between atoms: C_19  and  C_23
REMARK                            x       y       z     vdW  Elec       q    Type
REMARK                         _______ _______ _______ _____ _____    ______ ____
ROOT
ATOM      4  O   UNL     1      -3.462   4.193  27.477  0.00  0.00    -0.268 OA
ATOM      5  O   UNL     1      -5.788   0.501  24.887  0.00  0.00    -0.270 OA
ATOM      7  N   UNL     1      -4.154   1.375  23.462  0.00  0.00    -0.297 N 
ATOM      8  N   UNL     1      -2.758   3.474  25.362  0.00  0.00    -0.311 N 
ATOM     10  C   UNL     1      -4.196   3.849  23.270  0.00  0.00    +0.027 C 
ATOM     11  C   UNL     1      -2.053   2.652  23.094  0.00  0.00    +0.054 C 
ATOM     12  C   UNL     1      -2.867   3.816  22.530  0.00  0.00    +0.018 C 
ATOM     13  C   UNL     1      -4.961   2.529  23.069  0.00  0.00    +0.113 C 
ATOM     14  C   UNL     1      -3.920   4.133  24.748  0.00  0.00    +0.130 C 
ATOM     15  C   UNL     1      -2.814   1.329  22.859  0.00  0.00    +0.117 C 
ATOM     16  C   UNL     1      -1.770   2.834  24.587  0.00  0.00    +0.034 A 
ATOM     17  C   UNL     1      -0.636   2.376  25.179  0.00  0.00    +0.002 A 
ATOM     18  C   UNL     1      -2.639   3.632  26.755  0.00  0.00    +0.252 A 
ATOM     19  C   UNL     1      -4.667   0.460  24.385  0.00  0.00    +0.247 C 
ATOM     20  C   UNL     1      -0.480   2.518  26.614  0.00  0.00    +0.015 A 
ATOM     21  C   UNL     1      -1.411   3.089  27.379  0.00  0.00    +0.071 A 
ENDROOT
BRANCH  19  23
ATOM      9  N   UNL     1      -2.162  -2.742  25.652  0.00  0.00    -0.263 NA
ATOM     23  C   UNL     1      -3.803  -0.644  24.821  0.00  0.00    +0.040 A 
ATOM     26  C   UNL     1      -2.855  -0.432  25.813  0.00  0.00    +0.033 A 
ATOM     27  C   UNL     1      -3.936  -1.898  24.243  0.00  0.00    +0.033 A 
ATOM     31  C   UNL     1      -2.064  -1.505  26.189  0.00  0.00    +0.111 A 
ATOM     32  C   UNL     1      -3.097  -2.907  24.689  0.00  0.00    +0.111 A 
ENDBRANCH  19  23
BRANCH  17  22
ATOM     22  C   UNL     1       0.438   1.720  24.402  0.00  0.00    -0.016 A 
ATOM     24  C   UNL     1       0.382   0.350  24.166  0.00  0.00    +0.012 A 
ATOM     25  C   UNL     1       1.498   2.479  23.913  0.00  0.00    +0.012 A 
ATOM     28  C   UNL     1       1.395  -0.268  23.434  0.00  0.00    +0.046 A 
ATOM     29  C   UNL     1       2.510   1.860  23.180  0.00  0.00    +0.046 A 
ATOM     30  C   UNL     1       2.460   0.486  22.940  0.00  0.00    +0.130 A 
BRANCH  30   6
ATOM      6  O   UNL     1       3.448  -0.117  22.226  0.00  0.00    -0.406 OA
BRANCH   6  33
ATOM      1  F   UNL     1       4.944   0.847  23.615  0.00  0.00    -0.133 F 
ATOM      2  F   UNL     1       4.827  -1.334  23.586  0.00  0.00    -0.133 F 
ATOM      3  F   UNL     1       5.706  -0.241  21.879  0.00  0.00    -0.133 F 
ATOM     33  C   UNL     1       4.738  -0.227  22.819  0.00  0.00    +0.575 C 
ENDBRANCH   6  33
ENDBRANCH  30   6
ENDBRANCH  17  22
TORSDOF 4
ENDMDL
