MODEL 1
REMARK VINA RESULT:      22.9      0.000      0.000
REMARK  Name = 44716291
REMARK  6 active torsions:
REMARK  status: ('A' for Active; 'I' for Inactive)
REMARK    1  A    between atoms: N_3  and  C_14
REMARK    2  A    between atoms: N_4  and  C_17
REMARK    3  A    between atoms: C_8  and  C_14
REMARK    4  A    between atoms: C_9  and  C_15
REMARK    5  A    between atoms: C_18  and  C_21
REMARK    6  A    between atoms: C_29  and  C_30
REMARK                            x       y       z     vdW  Elec       q    Type
REMARK                         _______ _______ _______ _____ _____    ______ ____
ROOT
ATOM      2  N   UNL     1       5.385   0.813  23.826  0.00  0.00    -0.297 NA
ATOM      7  C   UNL     1       3.960  -1.269  23.187  0.00  0.00    +0.005 C 
ATOM      8  C   UNL     1       6.214  -0.166  23.070  0.00  0.00    +0.078 C 
ATOM      9  C   UNL     1       3.483  -0.010  22.436  0.00  0.00    +0.092 C 
ATOM     10  C   UNL     1       5.442  -1.483  22.824  0.00  0.00    +0.025 C 
ATOM     11  C   UNL     1       3.916  -1.008  24.704  0.00  0.00    +0.020 C 
ATOM     12  C   UNL     1       4.244   1.219  22.966  0.00  0.00    +0.097 C 
ATOM     13  C   UNL     1       4.821   0.185  25.044  0.00  0.00    +0.085 C 
ENDROOT
BRANCH   9  15
ATOM      1  O   UNL     1       1.233  -0.385  21.776  0.00  0.00    -0.275 OA
ATOM      4  N   UNL     1       1.683   1.019  23.611  0.00  0.00    -0.285 N 
ATOM     15  C   UNL     1       1.999   0.174  22.555  0.00  0.00    +0.222 C 
ATOM     36  H   UNL     1       2.451   1.411  24.151  0.00  0.00    +0.155 HD
BRANCH   4  17
ATOM     17  C   UNL     1       0.394   1.426  24.031  0.00  0.00    +0.033 A 
ATOM     19  C   UNL     1      -0.737   0.954  23.366  0.00  0.00    +0.023 A 
ATOM     20  C   UNL     1       0.255   2.297  25.112  0.00  0.00    +0.023 A 
ATOM     22  C   UNL     1      -2.007   1.355  23.779  0.00  0.00    +0.002 A 
ATOM     23  C   UNL     1      -1.015   2.698  25.525  0.00  0.00    +0.002 A 
ATOM     26  C   UNL     1      -2.147   2.226  24.859  0.00  0.00    +0.000 A 
ENDBRANCH   4  17
ENDBRANCH   9  15
BRANCH   8  14
ATOM     14  C   UNL     1       7.565  -0.420  23.744  0.00  0.00    +0.164 C 
BRANCH  14   3
ATOM      3  N   UNL     1       8.672   0.333  23.062  0.00  0.00    -0.250 N 
ATOM      5  N   UNL     1       9.784  -0.300  22.655  0.00  0.00    -0.065 NA
ATOM      6  N   UNL     1      10.574   0.608  22.095  0.00  0.00    -0.130 NA
ATOM     16  C   UNL     1       8.719   1.664  22.774  0.00  0.00    +0.138 A 
ATOM     18  C   UNL     1       9.936   1.816  22.159  0.00  0.00    +0.113 A 
BRANCH  18  21
ATOM     21  C   UNL     1      10.467   3.044  21.659  0.00  0.00    +0.004 A 
ATOM     24  C   UNL     1      10.613   4.139  22.511  0.00  0.00    +0.011 A 
ATOM     25  C   UNL     1      10.839   3.148  20.319  0.00  0.00    +0.011 A 
ATOM     27  C   UNL     1      11.132   5.338  22.022  0.00  0.00    +0.009 A 
ATOM     28  C   UNL     1      11.357   4.347  19.830  0.00  0.00    +0.009 A 
ATOM     29  C   UNL     1      11.505   5.442  20.681  0.00  0.00    -0.018 A 
BRANCH  29  30
ATOM     30  C   UNL     1      12.041   6.686  20.172  0.00  0.00    -0.018 A 
ATOM     31  C   UNL     1      13.235   6.688  19.453  0.00  0.00    +0.008 A 
ATOM     32  C   UNL     1      11.364   7.883  20.402  0.00  0.00    +0.008 A 
ATOM     33  C   UNL     1      13.752   7.886  18.962  0.00  0.00    +0.001 A 
ATOM     34  C   UNL     1      11.880   9.082  19.912  0.00  0.00    +0.001 A 
ATOM     35  C   UNL     1      13.074   9.083  19.191  0.00  0.00    +0.000 A 
ENDBRANCH  29  30
ENDBRANCH  18  21
ENDBRANCH  14   3
ENDBRANCH   8  14
TORSDOF 6
ENDMDL
MODEL 2
REMARK VINA RESULT:      23.5      5.211      8.377
REMARK  Name = 44716291
REMARK  6 active torsions:
REMARK  status: ('A' for Active; 'I' for Inactive)
REMARK    1  A    between atoms: N_3  and  C_14
REMARK    2  A    between atoms: N_4  and  C_17
REMARK    3  A    between atoms: C_8  and  C_14
REMARK    4  A    between atoms: C_9  and  C_15
REMARK    5  A    between atoms: C_18  and  C_21
REMARK    6  A    between atoms: C_29  and  C_30
REMARK                            x       y       z     vdW  Elec       q    Type
REMARK                         _______ _______ _______ _____ _____    ______ ____
ROOT
ATOM      2  N   UNL     1      -3.563  -1.359  23.977  0.00  0.00    -0.297 NA
ATOM      7  C   UNL     1      -2.780   0.604  25.496  0.00  0.00    +0.005 C 
ATOM      8  C   UNL     1      -2.553  -1.840  24.958  0.00  0.00    +0.078 C 
ATOM      9  C   UNL     1      -4.255   0.245  25.759  0.00  0.00    +0.092 C 
ATOM     10  C   UNL     1      -1.947  -0.665  25.760  0.00  0.00    +0.025 C 
ATOM     11  C   UNL     1      -2.594   0.944  24.005  0.00  0.00    +0.020 C 
ATOM     12  C   UNL     1      -4.717  -0.803  24.730  0.00  0.00    +0.097 C 
ATOM     13  C   UNL     1      -3.005  -0.263  23.150  0.00  0.00    +0.085 C 
ENDROOT
BRANCH   9  15
ATOM      1  O   UNL     1      -6.261   1.433  26.213  0.00  0.00    -0.275 OA
ATOM      4  N   UNL     1      -4.492   2.526  25.110  0.00  0.00    -0.285 N 
ATOM     15  C   UNL     1      -5.133   1.461  25.730  0.00  0.00    +0.222 C 
ATOM     36  H   UNL     1      -3.553   2.370  24.750  0.00  0.00    +0.155 HD
BRANCH   4  17
ATOM     17  C   UNL     1      -5.000   3.830  24.897  0.00  0.00    +0.033 A 
ATOM     19  C   UNL     1      -4.412   4.658  23.941  0.00  0.00    +0.023 A 
ATOM     20  C   UNL     1      -6.088   4.286  25.641  0.00  0.00    +0.023 A 
ATOM     22  C   UNL     1      -4.912   5.943  23.730  0.00  0.00    +0.002 A 
ATOM     23  C   UNL     1      -6.587   5.571  25.431  0.00  0.00    +0.002 A 
ATOM     26  C   UNL     1      -6.000   6.400  24.474  0.00  0.00    +0.000 A 
ENDBRANCH   4  17
ENDBRANCH   9  15
BRANCH   8  14
ATOM     14  C   UNL     1      -1.467  -2.693  24.297  0.00  0.00    +0.164 C 
BRANCH  14   3
ATOM      3  N   UNL     1      -0.320  -1.849  23.815  0.00  0.00    -0.250 N 
ATOM      5  N   UNL     1      -0.525  -0.839  22.955  0.00  0.00    -0.065 NA
ATOM      6  N   UNL     1       0.655  -0.282  22.711  0.00  0.00    -0.130 NA
ATOM     16  C   UNL     1       0.996  -1.968  24.145  0.00  0.00    +0.138 A 
ATOM     18  C   UNL     1       1.598  -0.961  23.433  0.00  0.00    +0.113 A 
BRANCH  18  21
ATOM     21  C   UNL     1       2.993  -0.660  23.436  0.00  0.00    +0.004 A 
ATOM     24  C   UNL     1       3.444   0.561  22.933  0.00  0.00    +0.011 A 
ATOM     25  C   UNL     1       3.906  -1.585  23.941  0.00  0.00    +0.011 A 
ATOM     27  C   UNL     1       4.807   0.856  22.937  0.00  0.00    +0.009 A 
ATOM     28  C   UNL     1       5.269  -1.292  23.944  0.00  0.00    +0.009 A 
ATOM     29  C   UNL     1       5.720  -0.070  23.443  0.00  0.00    -0.018 A 
BRANCH  29  30
ATOM     30  C   UNL     1       7.135   0.233  23.446  0.00  0.00    -0.018 A 
ATOM     31  C   UNL     1       7.597   1.402  24.049  0.00  0.00    +0.008 A 
ATOM     32  C   UNL     1       8.037  -0.644  22.844  0.00  0.00    +0.008 A 
ATOM     33  C   UNL     1       8.960   1.694  24.052  0.00  0.00    +0.001 A 
ATOM     34  C   UNL     1       9.400  -0.352  22.846  0.00  0.00    +0.001 A 
ATOM     35  C   UNL     1       9.862   0.816  23.451  0.00  0.00    +0.000 A 
ENDBRANCH  29  30
ENDBRANCH  18  21
ENDBRANCH  14   3
ENDBRANCH   8  14
TORSDOF 6
ENDMDL
MODEL 3
REMARK VINA RESULT:      23.6      6.838     10.349
REMARK  Name = 44716291
REMARK  6 active torsions:
REMARK  status: ('A' for Active; 'I' for Inactive)
REMARK    1  A    between atoms: N_3  and  C_14
REMARK    2  A    between atoms: N_4  and  C_17
REMARK    3  A    between atoms: C_8  and  C_14
REMARK    4  A    between atoms: C_9  and  C_15
REMARK    5  A    between atoms: C_18  and  C_21
REMARK    6  A    between atoms: C_29  and  C_30
REMARK                            x       y       z     vdW  Elec       q    Type
REMARK                         _______ _______ _______ _____ _____    ______ ____
ROOT
ATOM      2  N   UNL     1      -5.208   0.289  23.567  0.00  0.00    -0.297 NA
ATOM      7  C   UNL     1      -4.179   1.162  25.792  0.00  0.00    +0.005 C 
ATOM      8  C   UNL     1      -5.480  -0.671  24.671  0.00  0.00    +0.078 C 
ATOM      9  C   UNL     1      -5.343   2.057  25.324  0.00  0.00    +0.092 C 
ATOM     10  C   UNL     1      -4.738  -0.263  25.965  0.00  0.00    +0.025 C 
ATOM     11  C   UNL     1      -3.116   1.081  24.681  0.00  0.00    +0.020 C 
ATOM     12  C   UNL     1      -5.809   1.598  23.929  0.00  0.00    +0.097 C 
ATOM     13  C   UNL     1      -3.750   0.500  23.408  0.00  0.00    +0.085 C 
ENDROOT
BRANCH   9  15
ATOM      1  O   UNL     1      -5.711   4.357  25.787  0.00  0.00    -0.275 OA
ATOM      4  N   UNL     1      -3.709   3.691  24.744  0.00  0.00    -0.285 N 
ATOM     15  C   UNL     1      -4.958   3.507  25.321  0.00  0.00    +0.222 C 
ATOM     36  H   UNL     1      -3.222   2.870  24.392  0.00  0.00    +0.155 HD
BRANCH   4  17
ATOM     17  C   UNL     1      -3.016   4.913  24.565  0.00  0.00    +0.033 A 
ATOM     19  C   UNL     1      -3.530   5.886  23.709  0.00  0.00    +0.023 A 
ATOM     20  C   UNL     1      -1.820   5.143  25.245  0.00  0.00    +0.023 A 
ATOM     22  C   UNL     1      -2.848   7.090  23.532  0.00  0.00    +0.002 A 
ATOM     23  C   UNL     1      -1.138   6.346  25.068  0.00  0.00    +0.002 A 
ATOM     26  C   UNL     1      -1.652   7.321  24.212  0.00  0.00    +0.000 A 
ENDBRANCH   4  17
ENDBRANCH   9  15
BRANCH   8  14
ATOM     14  C   UNL     1      -5.165  -2.115  24.270  0.00  0.00    +0.164 C 
BRANCH  14   3
ATOM      3  N   UNL     1      -3.691  -2.398  24.343  0.00  0.00    -0.250 N 
ATOM      5  N   UNL     1      -3.242  -3.601  24.737  0.00  0.00    -0.065 NA
ATOM      6  N   UNL     1      -1.915  -3.557  24.704  0.00  0.00    -0.130 NA
ATOM     16  C   UNL     1      -2.666  -1.552  24.046  0.00  0.00    +0.138 A 
ATOM     18  C   UNL     1      -1.546  -2.310  24.282  0.00  0.00    +0.113 A 
BRANCH  18  21
ATOM     21  C   UNL     1      -0.197  -1.873  24.117  0.00  0.00    +0.004 A 
ATOM     24  C   UNL     1       0.096  -0.837  23.229  0.00  0.00    +0.011 A 
ATOM     25  C   UNL     1       0.827  -2.482  24.841  0.00  0.00    +0.011 A 
ATOM     27  C   UNL     1       1.415  -0.411  23.068  0.00  0.00    +0.009 A 
ATOM     28  C   UNL     1       2.145  -2.056  24.680  0.00  0.00    +0.009 A 
ATOM     29  C   UNL     1       2.439  -1.020  23.793  0.00  0.00    -0.018 A 
BRANCH  29  30
ATOM     30  C   UNL     1       3.807  -0.579  23.626  0.00  0.00    -0.018 A 
ATOM     31  C   UNL     1       4.859  -1.401  24.029  0.00  0.00    +0.008 A 
ATOM     32  C   UNL     1       4.074   0.668  23.061  0.00  0.00    +0.008 A 
ATOM     33  C   UNL     1       6.177  -0.977  23.867  0.00  0.00    +0.001 A 
ATOM     34  C   UNL     1       5.392   1.093  22.900  0.00  0.00    +0.001 A 
ATOM     35  C   UNL     1       6.444   0.271  23.302  0.00  0.00    +0.000 A 
ENDBRANCH  29  30
ENDBRANCH  18  21
ENDBRANCH  14   3
ENDBRANCH   8  14
TORSDOF 6
ENDMDL
MODEL 4
REMARK VINA RESULT:      24.1      4.946      6.632
REMARK  Name = 44716291
REMARK  6 active torsions:
REMARK  status: ('A' for Active; 'I' for Inactive)
REMARK    1  A    between atoms: N_3  and  C_14
REMARK    2  A    between atoms: N_4  and  C_17
REMARK    3  A    between atoms: C_8  and  C_14
REMARK    4  A    between atoms: C_9  and  C_15
REMARK    5  A    between atoms: C_18  and  C_21
REMARK    6  A    between atoms: C_29  and  C_30
REMARK                            x       y       z     vdW  Elec       q    Type
REMARK                         _______ _______ _______ _____ _____    ______ ____
ROOT
ATOM      2  N   UNL     1       0.738  -0.293  23.068  0.00  0.00    -0.297 NA
ATOM      7  C   UNL     1      -0.212   1.832  24.231  0.00  0.00    +0.005 C 
ATOM      8  C   UNL     1       1.850   0.594  23.505  0.00  0.00    +0.078 C 
ATOM      9  C   UNL     1      -0.484   0.566  25.067  0.00  0.00    +0.092 C 
ATOM     10  C   UNL     1       1.314   1.939  24.047  0.00  0.00    +0.025 C 
ATOM     11  C   UNL     1      -0.809   1.654  22.822  0.00  0.00    +0.020 C 
ATOM     12  C   UNL     1      -0.052  -0.677  24.266  0.00  0.00    +0.097 C 
ATOM     13  C   UNL     1      -0.173   0.429  22.149  0.00  0.00    +0.085 C 
ENDROOT
BRANCH   9  15
ATOM      1  O   UNL     1      -2.331  -0.480  26.132  0.00  0.00    -0.275 OA
ATOM      4  N   UNL     1      -2.644   1.573  25.025  0.00  0.00    -0.285 N 
ATOM     15  C   UNL     1      -1.924   0.476  25.480  0.00  0.00    +0.222 C 
ATOM     36  H   UNL     1      -2.147   2.273  24.480  0.00  0.00    +0.155 HD
BRANCH   4  17
ATOM     17  C   UNL     1      -4.021   1.837  25.217  0.00  0.00    +0.033 A 
ATOM     19  C   UNL     1      -4.957   0.820  25.040  0.00  0.00    +0.023 A 
ATOM     20  C   UNL     1      -4.441   3.115  25.586  0.00  0.00    +0.023 A 
ATOM     22  C   UNL     1      -6.315   1.079  25.229  0.00  0.00    +0.002 A 
ATOM     23  C   UNL     1      -5.798   3.376  25.774  0.00  0.00    +0.002 A 
ATOM     26  C   UNL     1      -6.736   2.357  25.597  0.00  0.00    +0.000 A 
ENDBRANCH   4  17
ENDBRANCH   9  15
BRANCH   8  14
ATOM     14  C   UNL     1       2.890   0.803  22.401  0.00  0.00    +0.164 C 
BRANCH  14   3
ATOM      3  N   UNL     1       4.268   0.419  22.862  0.00  0.00    -0.250 N 
ATOM      5  N   UNL     1       4.637   0.595  24.141  0.00  0.00    -0.065 NA
ATOM      6  N   UNL     1       5.892   0.173  24.251  0.00  0.00    -0.130 NA
ATOM     16  C   UNL     1       5.274  -0.119  22.119  0.00  0.00    +0.138 A 
ATOM     18  C   UNL     1       6.296  -0.269  23.022  0.00  0.00    +0.113 A 
BRANCH  18  21
ATOM     21  C   UNL     1       7.589  -0.801  22.734  0.00  0.00    +0.004 A 
ATOM     24  C   UNL     1       8.733  -0.117  23.146  0.00  0.00    +0.011 A 
ATOM     25  C   UNL     1       7.709  -2.005  22.041  0.00  0.00    +0.011 A 
ATOM     27  C   UNL     1       9.996  -0.638  22.865  0.00  0.00    +0.009 A 
ATOM     28  C   UNL     1       8.971  -2.526  21.758  0.00  0.00    +0.009 A 
ATOM     29  C   UNL     1      10.115  -1.843  22.171  0.00  0.00    -0.018 A 
BRANCH  29  30
ATOM     30  C   UNL     1      11.425  -2.384  21.877  0.00  0.00    -0.018 A 
ATOM     31  C   UNL     1      12.570  -1.687  22.261  0.00  0.00    +0.008 A 
ATOM     32  C   UNL     1      11.541  -3.603  21.210  0.00  0.00    +0.008 A 
ATOM     33  C   UNL     1      13.831  -2.208  21.978  0.00  0.00    +0.001 A 
ATOM     34  C   UNL     1      12.803  -4.125  20.926  0.00  0.00    +0.001 A 
ATOM     35  C   UNL     1      13.948  -3.428  21.310  0.00  0.00    +0.000 A 
ENDBRANCH  29  30
ENDBRANCH  18  21
ENDBRANCH  14   3
ENDBRANCH   8  14
TORSDOF 6
ENDMDL
MODEL 5
REMARK VINA RESULT:      25.6      5.001      6.831
REMARK  Name = 44716291
REMARK  6 active torsions:
REMARK  status: ('A' for Active; 'I' for Inactive)
REMARK    1  A    between atoms: N_3  and  C_14
REMARK    2  A    between atoms: N_4  and  C_17
REMARK    3  A    between atoms: C_8  and  C_14
REMARK    4  A    between atoms: C_9  and  C_15
REMARK    5  A    between atoms: C_18  and  C_21
REMARK    6  A    between atoms: C_29  and  C_30
REMARK                            x       y       z     vdW  Elec       q    Type
REMARK                         _______ _______ _______ _____ _____    ______ ____
ROOT
ATOM      2  N   UNL     1       0.222   0.082  24.110  0.00  0.00    -0.297 NA
ATOM      7  C   UNL     1      -0.160   2.624  23.703  0.00  0.00    +0.005 C 
ATOM      8  C   UNL     1       1.509   0.747  23.769  0.00  0.00    +0.078 C 
ATOM      9  C   UNL     1      -0.399   2.251  25.179  0.00  0.00    +0.092 C 
ATOM     10  C   UNL     1       1.287   2.221  23.358  0.00  0.00    +0.025 C 
ATOM     11  C   UNL     1      -1.075   1.772  22.804  0.00  0.00    +0.020 C 
ATOM     12  C   UNL     1      -0.322   0.720  25.337  0.00  0.00    +0.097 C 
ATOM     13  C   UNL     1      -0.771   0.284  23.029  0.00  0.00    +0.085 C 
ENDROOT
BRANCH   9  15
ATOM      1  O   UNL     1      -1.743   3.639  26.559  0.00  0.00    -0.275 OA
ATOM      4  N   UNL     1      -2.776   2.187  25.022  0.00  0.00    -0.285 N 
ATOM     15  C   UNL     1      -1.709   2.785  25.679  0.00  0.00    +0.222 C 
ATOM     36  H   UNL     1      -2.566   1.481  24.321  0.00  0.00    +0.155 HD
BRANCH   4  17
ATOM     17  C   UNL     1      -4.156   2.434  25.221  0.00  0.00    +0.033 A 
ATOM     19  C   UNL     1      -4.600   3.727  25.493  0.00  0.00    +0.023 A 
ATOM     20  C   UNL     1      -5.071   1.384  25.142  0.00  0.00    +0.023 A 
ATOM     22  C   UNL     1      -5.960   3.971  25.689  0.00  0.00    +0.002 A 
ATOM     23  C   UNL     1      -6.430   1.627  25.339  0.00  0.00    +0.002 A 
ATOM     26  C   UNL     1      -6.875   2.921  25.612  0.00  0.00    +0.000 A 
ENDBRANCH   4  17
ENDBRANCH   9  15
BRANCH   8  14
ATOM     14  C   UNL     1       2.293  -0.024  22.705  0.00  0.00    +0.164 C 
BRANCH  14   3
ATOM      3  N   UNL     1       3.773   0.035  22.959  0.00  0.00    -0.250 N 
ATOM      5  N   UNL     1       4.285   0.922  23.828  0.00  0.00    -0.065 NA
ATOM      6  N   UNL     1       5.601   0.744  23.844  0.00  0.00    -0.130 NA
ATOM     16  C   UNL     1       4.745  -0.733  22.394  0.00  0.00    +0.138 A 
ATOM     18  C   UNL     1       5.899  -0.266  22.972  0.00  0.00    +0.113 A 
BRANCH  18  21
ATOM     21  C   UNL     1       7.215  -0.752  22.710  0.00  0.00    +0.004 A 
ATOM     24  C   UNL     1       7.395  -1.895  21.929  0.00  0.00    +0.011 A 
ATOM     25  C   UNL     1       8.322  -0.086  23.234  0.00  0.00    +0.011 A 
ATOM     27  C   UNL     1       8.681  -2.369  21.673  0.00  0.00    +0.009 A 
ATOM     28  C   UNL     1       9.609  -0.561  22.979  0.00  0.00    +0.009 A 
ATOM     29  C   UNL     1       9.789  -1.702  22.197  0.00  0.00    -0.018 A 
BRANCH  29  30
ATOM     30  C   UNL     1      11.124  -2.194  21.934  0.00  0.00    -0.018 A 
ATOM     31  C   UNL     1      12.230  -1.393  22.211  0.00  0.00    +0.008 A 
ATOM     32  C   UNL     1      11.303  -3.471  21.402  0.00  0.00    +0.008 A 
ATOM     33  C   UNL     1      13.516  -1.867  21.958  0.00  0.00    +0.001 A 
ATOM     34  C   UNL     1      12.589  -3.946  21.148  0.00  0.00    +0.001 A 
ATOM     35  C   UNL     1      13.696  -3.144  21.426  0.00  0.00    +0.000 A 
ENDBRANCH  29  30
ENDBRANCH  18  21
ENDBRANCH  14   3
ENDBRANCH   8  14
TORSDOF 6
ENDMDL
