MODEL 1
REMARK VINA RESULT:      -5.7      0.000      0.000
REMARK  Name = 26744244
REMARK  5 active torsions:
REMARK  status: ('A' for Active; 'I' for Inactive)
REMARK    1  A    between atoms: O_3  and  C_12
REMARK    2  A    between atoms: N_4  and  C_16
REMARK    3  A    between atoms: C_7  and  C_14
REMARK    4  A    between atoms: C_8  and  C_15
REMARK    5  A    between atoms: C_16  and  C_17
REMARK                            x       y       z     vdW  Elec       q    Type
REMARK                         _______ _______ _______ _____ _____    ______ ____
ROOT
ATOM      4  N   UNL     1      -0.260   1.714  25.664  0.00  0.00    -0.285 NA
ATOM      8  C   UNL     1      -0.402   1.588  24.198  0.00  0.00    +0.149 C 
ATOM     11  C   UNL     1      -0.715   3.014  23.709  0.00  0.00    +0.061 C 
ATOM     12  C   UNL     1      -0.775   3.861  24.975  0.00  0.00    +0.130 C 
ATOM     13  C   UNL     1      -1.087   2.852  26.063  0.00  0.00    +0.116 C 
ENDROOT
BRANCH   8  15
ATOM      2  O   UNL     1       0.623   0.006  22.643  0.00  0.00    -0.336 OA
ATOM      5  N   UNL     1       2.090   1.315  23.714  0.00  0.00    -0.194 NA
ATOM      6  N   UNL     1       1.889  -0.369  22.178  0.00  0.00    -0.061 NA
ATOM     14  C   UNL     1       2.701   0.448  22.856  0.00  0.00    +0.175 A 
ATOM     15  C   UNL     1       0.830   1.002  23.543  0.00  0.00    +0.245 A 
BRANCH  14   7
ATOM      7  C   UNL     1       4.222   0.411  22.678  0.00  0.00    +0.060 C 
ATOM      9  C   UNL     1       5.010  -0.626  23.422  0.00  0.00    +0.012 C 
ATOM     10  C   UNL     1       5.092   0.814  23.831  0.00  0.00    +0.012 C 
ENDBRANCH  14   7
ENDBRANCH   8  15
BRANCH  12   3
ATOM      3  O   UNL     1      -1.782   4.849  24.870  0.00  0.00    -0.390 OA
ATOM     23  H   UNL     1      -2.413   4.552  24.193  0.00  0.00    +0.210 HD
ENDBRANCH  12   3
BRANCH   4  16
ATOM     16  C   UNL     1      -0.618   0.498  26.382  0.00  0.00    +0.120 C 
BRANCH  16  17
ATOM      1 CL   UNL     1      -4.694  -2.760  23.387  0.00  0.00    -0.084 Cl
ATOM     17  C   UNL     1      -1.638  -0.317  25.632  0.00  0.00    -0.033 A 
ATOM     18  C   UNL     1      -1.302  -1.581  25.150  0.00  0.00    +0.006 A 
ATOM     19  C   UNL     1      -2.919   0.193  25.420  0.00  0.00    +0.006 A 
ATOM     20  C   UNL     1      -2.247  -2.337  24.455  0.00  0.00    +0.020 A 
ATOM     21  C   UNL     1      -3.864  -0.562  24.724  0.00  0.00    +0.020 A 
ATOM     22  C   UNL     1      -3.528  -1.826  24.242  0.00  0.00    +0.041 A 
ENDBRANCH  16  17
ENDBRANCH   4  16
TORSDOF 5
ENDMDL
MODEL 2
REMARK VINA RESULT:      -5.3      2.555      3.767
REMARK  Name = 26744244
REMARK  5 active torsions:
REMARK  status: ('A' for Active; 'I' for Inactive)
REMARK    1  A    between atoms: O_3  and  C_12
REMARK    2  A    between atoms: N_4  and  C_16
REMARK    3  A    between atoms: C_7  and  C_14
REMARK    4  A    between atoms: C_8  and  C_15
REMARK    5  A    between atoms: C_16  and  C_17
REMARK                            x       y       z     vdW  Elec       q    Type
REMARK                         _______ _______ _______ _____ _____    ______ ____
ROOT
ATOM      4  N   UNL     1      -4.542   1.568  25.302  0.00  0.00    -0.285 NA
ATOM      8  C   UNL     1      -3.893   2.384  24.255  0.00  0.00    +0.149 C 
ATOM     11  C   UNL     1      -4.353   3.826  24.538  0.00  0.00    +0.061 C 
ATOM     12  C   UNL     1      -5.294   3.713  25.732  0.00  0.00    +0.130 C 
ATOM     13  C   UNL     1      -5.767   2.273  25.675  0.00  0.00    +0.116 C 
ENDROOT
BRANCH   8  15
ATOM      2  O   UNL     1      -1.705   2.990  25.161  0.00  0.00    -0.336 OA
ATOM      5  N   UNL     1      -1.624   1.487  23.504  0.00  0.00    -0.194 NA
ATOM      6  N   UNL     1      -0.350   2.689  24.975  0.00  0.00    -0.061 NA
ATOM     14  C   UNL     1      -0.384   1.796  23.982  0.00  0.00    +0.175 A 
ATOM     15  C   UNL     1      -2.386   2.239  24.256  0.00  0.00    +0.245 A 
BRANCH  14   7
ATOM      7  C   UNL     1       0.891   1.162  23.418  0.00  0.00    +0.060 C 
ATOM      9  C   UNL     1       0.763   0.069  22.398  0.00  0.00    +0.012 C 
ATOM     10  C   UNL     1       1.217  -0.254  23.791  0.00  0.00    +0.012 C 
ENDBRANCH  14   7
ENDBRANCH   8  15
BRANCH  12   3
ATOM      3  O   UNL     1      -6.369   4.625  25.611  0.00  0.00    -0.390 OA
ATOM     23  H   UNL     1      -7.097   4.160  25.164  0.00  0.00    +0.210 HD
ENDBRANCH  12   3
BRANCH   4  16
ATOM     16  C   UNL     1      -4.805   0.197  24.882  0.00  0.00    +0.120 C 
BRANCH  16  17
ATOM      1 CL   UNL     1       0.083  -3.274  25.378  0.00  0.00    -0.084 Cl
ATOM     17  C   UNL     1      -3.583  -0.672  25.007  0.00  0.00    -0.033 A 
ATOM     18  C   UNL     1      -3.400  -1.747  24.138  0.00  0.00    +0.006 A 
ATOM     19  C   UNL     1      -2.632  -0.400  25.991  0.00  0.00    +0.006 A 
ATOM     20  C   UNL     1      -2.267  -2.553  24.254  0.00  0.00    +0.020 A 
ATOM     21  C   UNL     1      -1.499  -1.206  26.107  0.00  0.00    +0.020 A 
ATOM     22  C   UNL     1      -1.316  -2.282  25.239  0.00  0.00    +0.041 A 
ENDBRANCH  16  17
ENDBRANCH   4  16
TORSDOF 5
ENDMDL
MODEL 3
REMARK VINA RESULT:      -5.0      2.088      5.283
REMARK  Name = 26744244
REMARK  5 active torsions:
REMARK  status: ('A' for Active; 'I' for Inactive)
REMARK    1  A    between atoms: O_3  and  C_12
REMARK    2  A    between atoms: N_4  and  C_16
REMARK    3  A    between atoms: C_7  and  C_14
REMARK    4  A    between atoms: C_8  and  C_15
REMARK    5  A    between atoms: C_16  and  C_17
REMARK                            x       y       z     vdW  Elec       q    Type
REMARK                         _______ _______ _______ _____ _____    ______ ____
ROOT
ATOM      4  N   UNL     1      -0.471   0.400  24.587  0.00  0.00    -0.285 NA
ATOM      8  C   UNL     1      -0.255   1.685  25.284  0.00  0.00    +0.149 C 
ATOM     11  C   UNL     1       0.861   2.383  24.487  0.00  0.00    +0.061 C 
ATOM     12  C   UNL     1       1.241   1.393  23.391  0.00  0.00    +0.130 C 
ATOM     13  C   UNL     1       0.800   0.055  23.952  0.00  0.00    +0.116 C 
ENDROOT
BRANCH   8  15
ATOM      2  O   UNL     1      -1.364   3.813  25.751  0.00  0.00    -0.336 OA
ATOM      5  N   UNL     1      -2.758   2.170  25.141  0.00  0.00    -0.194 NA
ATOM      6  N   UNL     1      -2.649   4.369  25.762  0.00  0.00    -0.061 NA
ATOM     14  C   UNL     1      -3.415   3.340  25.391  0.00  0.00    +0.175 A 
ATOM     15  C   UNL     1      -1.517   2.516  25.375  0.00  0.00    +0.245 A 
BRANCH  14   7
ATOM      7  C   UNL     1      -4.935   3.468  25.255  0.00  0.00    +0.060 C 
ATOM      9  C   UNL     1      -5.811   2.669  26.175  0.00  0.00    +0.012 C 
ATOM     10  C   UNL     1      -5.712   2.299  24.725  0.00  0.00    +0.012 C 
ENDBRANCH  14   7
ENDBRANCH   8  15
BRANCH  12   3
ATOM      3  O   UNL     1       2.634   1.427  23.145  0.00  0.00    -0.390 OA
ATOM     23  H   UNL     1       2.929   2.345  23.266  0.00  0.00    +0.210 HD
ENDBRANCH  12   3
BRANCH   4  16
ATOM     16  C   UNL     1      -0.948  -0.659  25.469  0.00  0.00    +0.120 C 
BRANCH  16  17
ATOM      1 CL   UNL     1      -5.743  -3.486  23.188  0.00  0.00    -0.084 Cl
ATOM     17  C   UNL     1      -2.147  -1.366  24.897  0.00  0.00    -0.033 A 
ATOM     18  C   UNL     1      -2.141  -2.754  24.766  0.00  0.00    +0.006 A 
ATOM     19  C   UNL     1      -3.266  -0.633  24.500  0.00  0.00    +0.006 A 
ATOM     20  C   UNL     1      -3.253  -3.410  24.236  0.00  0.00    +0.020 A 
ATOM     21  C   UNL     1      -4.378  -1.289  23.970  0.00  0.00    +0.020 A 
ATOM     22  C   UNL     1      -4.371  -2.676  23.838  0.00  0.00    +0.041 A 
ENDBRANCH  16  17
ENDBRANCH   4  16
TORSDOF 5
ENDMDL
MODEL 4
REMARK VINA RESULT:      -5.0      3.649      6.741
REMARK  Name = 26744244
REMARK  5 active torsions:
REMARK  status: ('A' for Active; 'I' for Inactive)
REMARK    1  A    between atoms: O_3  and  C_12
REMARK    2  A    between atoms: N_4  and  C_16
REMARK    3  A    between atoms: C_7  and  C_14
REMARK    4  A    between atoms: C_8  and  C_15
REMARK    5  A    between atoms: C_16  and  C_17
REMARK                            x       y       z     vdW  Elec       q    Type
REMARK                         _______ _______ _______ _____ _____    ______ ____
ROOT
ATOM      4  N   UNL     1      -2.026  -1.124  24.811  0.00  0.00    -0.285 NA
ATOM      8  C   UNL     1      -2.987  -0.708  23.769  0.00  0.00    +0.149 C 
ATOM     11  C   UNL     1      -4.006  -1.859  23.691  0.00  0.00    +0.061 C 
ATOM     12  C   UNL     1      -3.508  -2.896  24.691  0.00  0.00    +0.130 C 
ATOM     13  C   UNL     1      -2.028  -2.586  24.815  0.00  0.00    +0.116 C 
ENDROOT
BRANCH   8  15
ATOM      2  O   UNL     1      -3.540   1.581  23.111  0.00  0.00    -0.336 OA
ATOM      5  N   UNL     1      -4.283   1.009  25.145  0.00  0.00    -0.194 NA
ATOM      6  N   UNL     1      -4.203   2.707  23.614  0.00  0.00    -0.061 NA
ATOM     14  C   UNL     1      -4.613   2.291  24.816  0.00  0.00    +0.175 A 
ATOM     15  C   UNL     1      -3.634   0.627  24.074  0.00  0.00    +0.245 A 
BRANCH  14   7
ATOM      7  C   UNL     1      -5.403   3.200  25.763  0.00  0.00    +0.060 C 
ATOM      9  C   UNL     1      -5.613   4.634  25.377  0.00  0.00    +0.012 C 
ATOM     10  C   UNL     1      -4.673   4.289  26.493  0.00  0.00    +0.012 C 
ENDBRANCH  14   7
ENDBRANCH   8  15
BRANCH  12   3
ATOM      3  O   UNL     1      -3.731  -4.207  24.208  0.00  0.00    -0.390 OA
ATOM     23  H   UNL     1      -4.665  -4.265  23.944  0.00  0.00    +0.210 HD
ENDBRANCH  12   3
BRANCH   4  16
ATOM     16  C   UNL     1      -0.688  -0.579  24.610  0.00  0.00    +0.120 C 
BRANCH  16  17
ATOM      1 CL   UNL     1      -0.644   5.426  24.963  0.00  0.00    -0.084 Cl
ATOM     17  C   UNL     1      -0.676   0.923  24.699  0.00  0.00    -0.033 A 
ATOM     18  C   UNL     1      -0.338   1.685  23.581  0.00  0.00    +0.006 A 
ATOM     19  C   UNL     1      -1.005   1.554  25.899  0.00  0.00    +0.006 A 
ATOM     20  C   UNL     1      -0.326   3.078  23.663  0.00  0.00    +0.020 A 
ATOM     21  C   UNL     1      -0.994   2.946  25.981  0.00  0.00    +0.020 A 
ATOM     22  C   UNL     1      -0.654   3.708  24.864  0.00  0.00    +0.041 A 
ENDBRANCH  16  17
ENDBRANCH   4  16
TORSDOF 5
ENDMDL
MODEL 5
REMARK VINA RESULT:      -4.5      2.153      5.080
REMARK  Name = 26744244
REMARK  5 active torsions:
REMARK  status: ('A' for Active; 'I' for Inactive)
REMARK    1  A    between atoms: O_3  and  C_12
REMARK    2  A    between atoms: N_4  and  C_16
REMARK    3  A    between atoms: C_7  and  C_14
REMARK    4  A    between atoms: C_8  and  C_15
REMARK    5  A    between atoms: C_16  and  C_17
REMARK                            x       y       z     vdW  Elec       q    Type
REMARK                         _______ _______ _______ _____ _____    ______ ____
ROOT
ATOM      4  N   UNL     1       0.015   0.087  23.570  0.00  0.00    -0.285 NA
ATOM      8  C   UNL     1       0.709   1.075  24.421  0.00  0.00    +0.149 C 
ATOM     11  C   UNL     1       2.040   1.352  23.698  0.00  0.00    +0.061 C 
ATOM     12  C   UNL     1       2.023   0.439  22.478  0.00  0.00    +0.130 C 
ATOM     13  C   UNL     1       1.058  -0.663  22.872  0.00  0.00    +0.116 C 
ENDROOT
BRANCH   8  15
ATOM      2  O   UNL     1       0.205   3.403  23.868  0.00  0.00    -0.336 OA
ATOM      5  N   UNL     1      -1.093   2.543  25.477  0.00  0.00    -0.194 NA
ATOM      6  N   UNL     1      -0.674   4.425  24.247  0.00  0.00    -0.061 NA
ATOM     14  C   UNL     1      -1.407   3.841  25.199  0.00  0.00    +0.175 A 
ATOM     15  C   UNL     1      -0.109   2.330  24.641  0.00  0.00    +0.245 A 
BRANCH  14   7
ATOM      7  C   UNL     1      -2.529   4.585  25.929  0.00  0.00    +0.060 C 
ATOM      9  C   UNL     1      -3.517   3.792  26.732  0.00  0.00    +0.012 C 
ATOM     10  C   UNL     1      -3.938   4.424  25.439  0.00  0.00    +0.012 C 
ENDBRANCH  14   7
ENDBRANCH   8  15
BRANCH  12   3
ATOM      3  O   UNL     1       3.318  -0.067  22.211  0.00  0.00    -0.390 OA
ATOM     23  H   UNL     1       3.578  -0.616  22.970  0.00  0.00    +0.210 HD
ENDBRANCH  12   3
BRANCH   4  16
ATOM     16  C   UNL     1      -0.880  -0.787  24.318  0.00  0.00    +0.120 C 
BRANCH  16  17
ATOM      1 CL   UNL     1      -6.369   1.604  24.904  0.00  0.00    -0.084 Cl
ATOM     17  C   UNL     1      -2.254  -0.190  24.464  0.00  0.00    -0.033 A 
ATOM     18  C   UNL     1      -3.079  -0.588  25.514  0.00  0.00    +0.006 A 
ATOM     19  C   UNL     1      -2.701   0.764  23.548  0.00  0.00    +0.006 A 
ATOM     20  C   UNL     1      -4.353  -0.034  25.650  0.00  0.00    +0.020 A 
ATOM     21  C   UNL     1      -3.974   1.318  23.684  0.00  0.00    +0.020 A 
ATOM     22  C   UNL     1      -4.800   0.919  24.734  0.00  0.00    +0.041 A 
ENDBRANCH  16  17
ENDBRANCH   4  16
TORSDOF 5
ENDMDL
MODEL 6
REMARK VINA RESULT:      -4.3      2.046      2.917
REMARK  Name = 26744244
REMARK  5 active torsions:
REMARK  status: ('A' for Active; 'I' for Inactive)
REMARK    1  A    between atoms: O_3  and  C_12
REMARK    2  A    between atoms: N_4  and  C_16
REMARK    3  A    between atoms: C_7  and  C_14
REMARK    4  A    between atoms: C_8  and  C_15
REMARK    5  A    between atoms: C_16  and  C_17
REMARK                            x       y       z     vdW  Elec       q    Type
REMARK                         _______ _______ _______ _____ _____    ______ ____
ROOT
ATOM      4  N   UNL     1      -3.422   2.505  25.153  0.00  0.00    -0.285 NA
ATOM      8  C   UNL     1      -2.374   3.204  24.381  0.00  0.00    +0.149 C 
ATOM     11  C   UNL     1      -2.075   4.480  25.188  0.00  0.00    +0.061 C 
ATOM     12  C   UNL     1      -3.037   4.434  26.370  0.00  0.00    +0.130 C 
ATOM     13  C   UNL     1      -4.158   3.538  25.880  0.00  0.00    +0.116 C 
ENDROOT
BRANCH   8  15
ATOM      2  O   UNL     1       0.011   2.794  24.721  0.00  0.00    -0.336 OA
ATOM      5  N   UNL     1      -1.023   1.222  23.506  0.00  0.00    -0.194 NA
ATOM      6  N   UNL     1       0.992   1.850  24.389  0.00  0.00    -0.061 NA
ATOM     14  C   UNL     1       0.305   0.955  23.674  0.00  0.00    +0.175 A 
ATOM     15  C   UNL     1      -1.144   2.348  24.163  0.00  0.00    +0.245 A 
BRANCH  14   7
ATOM      7  C   UNL     1       0.969  -0.291  23.080  0.00  0.00    +0.060 C 
ATOM      9  C   UNL     1       2.416  -0.219  22.689  0.00  0.00    +0.012 C 
ATOM     10  C   UNL     1       1.355  -0.280  21.630  0.00  0.00    +0.012 C 
ENDBRANCH  14   7
ENDBRANCH   8  15
BRANCH  12   3
ATOM      3  O   UNL     1      -3.502   5.731  26.689  0.00  0.00    -0.390 OA
ATOM     23  H   UNL     1      -2.742   6.336  26.632  0.00  0.00    +0.210 HD
ENDBRANCH  12   3
BRANCH   4  16
ATOM     16  C   UNL     1      -4.300   1.689  24.323  0.00  0.00    +0.120 C 
BRANCH  16  17
ATOM      1 CL   UNL     1      -3.327  -4.191  25.141  0.00  0.00    -0.084 Cl
ATOM     17  C   UNL     1      -4.055   0.218  24.527  0.00  0.00    -0.033 A 
ATOM     18  C   UNL     1      -3.489  -0.236  25.718  0.00  0.00    +0.006 A 
ATOM     19  C   UNL     1      -4.397  -0.692  23.526  0.00  0.00    +0.006 A 
ATOM     20  C   UNL     1      -3.263  -1.600  25.908  0.00  0.00    +0.020 A 
ATOM     21  C   UNL     1      -4.170  -2.055  23.715  0.00  0.00    +0.020 A 
ATOM     22  C   UNL     1      -3.603  -2.509  24.906  0.00  0.00    +0.041 A 
ENDBRANCH  16  17
ENDBRANCH   4  16
TORSDOF 5
ENDMDL
MODEL 7
REMARK VINA RESULT:      -4.2      2.982      4.996
REMARK  Name = 26744244
REMARK  5 active torsions:
REMARK  status: ('A' for Active; 'I' for Inactive)
REMARK    1  A    between atoms: O_3  and  C_12
REMARK    2  A    between atoms: N_4  and  C_16
REMARK    3  A    between atoms: C_7  and  C_14
REMARK    4  A    between atoms: C_8  and  C_15
REMARK    5  A    between atoms: C_16  and  C_17
REMARK                            x       y       z     vdW  Elec       q    Type
REMARK                         _______ _______ _______ _____ _____    ______ ____
ROOT
ATOM      4  N   UNL     1      -3.562  -0.229  24.344  0.00  0.00    -0.285 NA
ATOM      8  C   UNL     1      -2.417  -0.636  25.185  0.00  0.00    +0.149 C 
ATOM     11  C   UNL     1      -2.270  -2.150  24.943  0.00  0.00    +0.061 C 
ATOM     12  C   UNL     1      -3.405  -2.510  23.991  0.00  0.00    +0.130 C 
ATOM     13  C   UNL     1      -4.420  -1.406  24.216  0.00  0.00    +0.116 C 
ENDROOT
BRANCH   8  15
ATOM      2  O   UNL     1      -0.766   1.069  25.765  0.00  0.00    -0.336 OA
ATOM      5  N   UNL     1      -0.366   0.034  23.821  0.00  0.00    -0.194 NA
ATOM      6  N   UNL     1       0.407   1.639  25.255  0.00  0.00    -0.061 NA
ATOM     14  C   UNL     1       0.578   0.976  24.108  0.00  0.00    +0.175 A 
ATOM     15  C   UNL     1      -1.155   0.134  24.860  0.00  0.00    +0.245 A 
BRANCH  14   7
ATOM      7  C   UNL     1       1.761   1.259  23.176  0.00  0.00    +0.060 C 
ATOM      9  C   UNL     1       2.177   0.200  22.198  0.00  0.00    +0.012 C 
ATOM     10  C   UNL     1       3.040   0.504  23.387  0.00  0.00    +0.012 C 
ENDBRANCH  14   7
ENDBRANCH   8  15
BRANCH  12   3
ATOM      3  O   UNL     1      -3.935  -3.784  24.301  0.00  0.00    -0.390 OA
ATOM     23  H   UNL     1      -4.851  -3.653  24.602  0.00  0.00    +0.210 HD
ENDBRANCH  12   3
BRANCH   4  16
ATOM     16  C   UNL     1      -4.285   0.920  24.875  0.00  0.00    +0.120 C 
BRANCH  16  17
ATOM      1 CL   UNL     1      -0.930   5.913  24.777  0.00  0.00    -0.084 Cl
ATOM     17  C   UNL     1      -3.446   2.170  24.850  0.00  0.00    -0.033 A 
ATOM     18  C   UNL     1      -3.332   2.956  25.996  0.00  0.00    +0.006 A 
ATOM     19  C   UNL     1      -2.783   2.541  23.680  0.00  0.00    +0.006 A 
ATOM     20  C   UNL     1      -2.554   4.114  25.974  0.00  0.00    +0.020 A 
ATOM     21  C   UNL     1      -2.005   3.699  23.657  0.00  0.00    +0.020 A 
ATOM     22  C   UNL     1      -1.891   4.485  24.803  0.00  0.00    +0.041 A 
ENDBRANCH  16  17
ENDBRANCH   4  16
TORSDOF 5
ENDMDL
MODEL 8
REMARK VINA RESULT:      -4.1      2.295      5.243
REMARK  Name = 26744244
REMARK  5 active torsions:
REMARK  status: ('A' for Active; 'I' for Inactive)
REMARK    1  A    between atoms: O_3  and  C_12
REMARK    2  A    between atoms: N_4  and  C_16
REMARK    3  A    between atoms: C_7  and  C_14
REMARK    4  A    between atoms: C_8  and  C_15
REMARK    5  A    between atoms: C_16  and  C_17
REMARK                            x       y       z     vdW  Elec       q    Type
REMARK                         _______ _______ _______ _____ _____    ______ ____
ROOT
ATOM      4  N   UNL     1       0.859   1.862  24.044  0.00  0.00    -0.285 NA
ATOM      8  C   UNL     1       0.152   0.795  23.305  0.00  0.00    +0.149 C 
ATOM     11  C   UNL     1       1.270  -0.083  22.715  0.00  0.00    +0.061 C 
ATOM     12  C   UNL     1       2.568   0.596  23.134  0.00  0.00    +0.130 C 
ATOM     13  C   UNL     1       2.153   2.033  23.384  0.00  0.00    +0.116 C 
ENDROOT
BRANCH   8  15
ATOM      2  O   UNL     1      -0.510  -0.027  25.510  0.00  0.00    -0.336 OA
ATOM      5  N   UNL     1      -1.889  -0.637  23.855  0.00  0.00    -0.194 NA
ATOM      6  N   UNL     1      -1.520  -0.792  26.107  0.00  0.00    -0.061 NA
ATOM     14  C   UNL     1      -2.294  -1.115  25.067  0.00  0.00    +0.175 A 
ATOM     15  C   UNL     1      -0.803   0.015  24.184  0.00  0.00    +0.245 A 
BRANCH  14   7
ATOM      7  C   UNL     1      -3.556  -1.968  25.229  0.00  0.00    +0.060 C 
ATOM      9  C   UNL     1      -3.619  -3.300  24.544  0.00  0.00    +0.012 C 
ATOM     10  C   UNL     1      -4.453  -2.159  24.042  0.00  0.00    +0.012 C 
ENDBRANCH  14   7
ENDBRANCH   8  15
BRANCH  12   3
ATOM      3  O   UNL     1       3.539   0.500  22.109  0.00  0.00    -0.390 OA
ATOM     23  H   UNL     1       3.139   0.852  21.296  0.00  0.00    +0.210 HD
ENDBRANCH  12   3
BRANCH   4  16
ATOM     16  C   UNL     1       0.109   3.110  24.110  0.00  0.00    +0.120 C 
BRANCH  16  17
ATOM      1 CL   UNL     1      -5.788   2.140  24.800  0.00  0.00    -0.084 Cl
ATOM     17  C   UNL     1      -1.367   2.868  24.283  0.00  0.00    -0.033 A 
ATOM     18  C   UNL     1      -2.167   2.620  23.169  0.00  0.00    +0.006 A 
ATOM     19  C   UNL     1      -1.932   2.891  25.558  0.00  0.00    +0.006 A 
ATOM     20  C   UNL     1      -3.535   2.396  23.328  0.00  0.00    +0.020 A 
ATOM     21  C   UNL     1      -3.300   2.667  25.717  0.00  0.00    +0.020 A 
ATOM     22  C   UNL     1      -4.101   2.420  24.603  0.00  0.00    +0.041 A 
ENDBRANCH  16  17
ENDBRANCH   4  16
TORSDOF 5
ENDMDL
MODEL 9
REMARK VINA RESULT:      -4.0      2.806      3.935
REMARK  Name = 26744244
REMARK  5 active torsions:
REMARK  status: ('A' for Active; 'I' for Inactive)
REMARK    1  A    between atoms: O_3  and  C_12
REMARK    2  A    between atoms: N_4  and  C_16
REMARK    3  A    between atoms: C_7  and  C_14
REMARK    4  A    between atoms: C_8  and  C_15
REMARK    5  A    between atoms: C_16  and  C_17
REMARK                            x       y       z     vdW  Elec       q    Type
REMARK                         _______ _______ _______ _____ _____    ______ ____
ROOT
ATOM      4  N   UNL     1      -5.000   1.819  25.393  0.00  0.00    -0.285 NA
ATOM      8  C   UNL     1      -4.589   2.463  24.128  0.00  0.00    +0.149 C 
ATOM     11  C   UNL     1      -4.778   3.971  24.373  0.00  0.00    +0.061 C 
ATOM     12  C   UNL     1      -5.344   4.073  25.785  0.00  0.00    +0.130 C 
ATOM     13  C   UNL     1      -5.977   2.714  26.013  0.00  0.00    +0.116 C 
ENDROOT
BRANCH   8  15
ATOM      2  O   UNL     1      -2.860   2.241  22.414  0.00  0.00    -0.336 OA
ATOM      5  N   UNL     1      -2.181   1.685  24.474  0.00  0.00    -0.194 NA
ATOM      6  N   UNL     1      -1.518   1.862  22.292  0.00  0.00    -0.061 NA
ATOM     14  C   UNL     1      -1.188   1.548  23.548  0.00  0.00    +0.175 A 
ATOM     15  C   UNL     1      -3.172   2.108  23.729  0.00  0.00    +0.245 A 
BRANCH  14   7
ATOM      7  C   UNL     1       0.217   1.067  23.922  0.00  0.00    +0.060 C 
ATOM      9  C   UNL     1       1.015   0.311  22.901  0.00  0.00    +0.012 C 
ATOM     10  C   UNL     1       0.452  -0.405  24.093  0.00  0.00    +0.012 C 
ENDBRANCH  14   7
ENDBRANCH   8  15
BRANCH  12   3
ATOM      3  O   UNL     1      -6.295   5.117  25.870  0.00  0.00    -0.390 OA
ATOM     23  H   UNL     1      -7.103   4.743  26.262  0.00  0.00    +0.210 HD
ENDBRANCH  12   3
BRANCH   4  16
ATOM     16  C   UNL     1      -5.530   0.474  25.208  0.00  0.00    +0.120 C 
BRANCH  16  17
ATOM      1 CL   UNL     1      -1.145  -3.590  24.533  0.00  0.00    -0.084 Cl
ATOM     17  C   UNL     1      -4.432  -0.542  25.038  0.00  0.00    -0.033 A 
ATOM     18  C   UNL     1      -3.444  -0.670  26.014  0.00  0.00    +0.006 A 
ATOM     19  C   UNL     1      -4.405  -1.357  23.906  0.00  0.00    +0.006 A 
ATOM     20  C   UNL     1      -2.427  -1.612  25.857  0.00  0.00    +0.020 A 
ATOM     21  C   UNL     1      -3.387  -2.298  23.749  0.00  0.00    +0.020 A 
ATOM     22  C   UNL     1      -2.399  -2.426  24.724  0.00  0.00    +0.041 A 
ENDBRANCH  16  17
ENDBRANCH   4  16
TORSDOF 5
ENDMDL
MODEL 10
REMARK VINA RESULT:      -3.9      3.422      5.573
REMARK  Name = 26744244
REMARK  5 active torsions:
REMARK  status: ('A' for Active; 'I' for Inactive)
REMARK    1  A    between atoms: O_3  and  C_12
REMARK    2  A    between atoms: N_4  and  C_16
REMARK    3  A    between atoms: C_7  and  C_14
REMARK    4  A    between atoms: C_8  and  C_15
REMARK    5  A    between atoms: C_16  and  C_17
REMARK                            x       y       z     vdW  Elec       q    Type
REMARK                         _______ _______ _______ _____ _____    ______ ____
ROOT
ATOM      4  N   UNL     1      -3.812  -0.619  24.478  0.00  0.00    -0.285 NA
ATOM      8  C   UNL     1      -2.604  -0.784  25.313  0.00  0.00    +0.149 C 
ATOM     11  C   UNL     1      -2.077  -2.189  24.969  0.00  0.00    +0.061 C 
ATOM     12  C   UNL     1      -3.079  -2.753  23.969  0.00  0.00    +0.130 C 
ATOM     13  C   UNL     1      -4.343  -1.961  24.248  0.00  0.00    +0.116 C 
ENDROOT
BRANCH   8  15
ATOM      2  O   UNL     1      -0.475  -0.053  24.361  0.00  0.00    -0.336 OA
ATOM      5  N   UNL     1      -1.589   1.555  25.451  0.00  0.00    -0.194 NA
ATOM      6  N   UNL     1       0.315   1.100  24.268  0.00  0.00    -0.061 NA
ATOM     14  C   UNL     1      -0.409   2.003  24.935  0.00  0.00    +0.175 A 
ATOM     15  C   UNL     1      -1.577   0.302  25.072  0.00  0.00    +0.245 A 
BRANCH  14   7
ATOM      7  C   UNL     1       0.060   3.451  25.106  0.00  0.00    +0.060 C 
ATOM      9  C   UNL     1      -0.964   4.513  25.381  0.00  0.00    +0.012 C 
ATOM     10  C   UNL     1      -0.288   4.452  24.044  0.00  0.00    +0.012 C 
ENDBRANCH  14   7
ENDBRANCH   8  15
BRANCH  12   3
ATOM      3  O   UNL     1      -3.271  -4.139  24.177  0.00  0.00    -0.390 OA
ATOM     23  H   UNL     1      -3.703  -4.496  23.383  0.00  0.00    +0.210 HD
ENDBRANCH  12   3
BRANCH   4  16
ATOM     16  C   UNL     1      -4.804   0.268  25.072  0.00  0.00    +0.120 C 
BRANCH  16  17
ATOM      1 CL   UNL     1      -3.921   6.002  23.478  0.00  0.00    -0.084 Cl
ATOM     17  C   UNL     1      -4.584   1.703  24.673  0.00  0.00    -0.033 A 
ATOM     18  C   UNL     1      -4.987   2.733  25.522  0.00  0.00    +0.006 A 
ATOM     19  C   UNL     1      -3.976   2.002  23.453  0.00  0.00    +0.006 A 
ATOM     20  C   UNL     1      -4.783   4.063  25.152  0.00  0.00    +0.020 A 
ATOM     21  C   UNL     1      -3.772   3.332  23.083  0.00  0.00    +0.020 A 
ATOM     22  C   UNL     1      -4.175   4.361  23.932  0.00  0.00    +0.041 A 
ENDBRANCH  16  17
ENDBRANCH   4  16
TORSDOF 5
ENDMDL
