MODEL 1
REMARK VINA RESULT:      -2.3      0.000      0.000
REMARK  Name = 45361601
REMARK  10 active torsions:
REMARK  status: ('A' for Active; 'I' for Inactive)
REMARK    1  A    between atoms: O_1  and  C_10
REMARK    2  A    between atoms: N_4  and  C_14
REMARK    3  A    between atoms: N_5  and  C_24
REMARK    4  A    between atoms: C_7  and  C_17
REMARK    5  A    between atoms: C_9  and  C_19
REMARK    6  A    between atoms: C_13  and  C_18
REMARK    7  A    between atoms: C_18  and  C_20
REMARK    8  A    between atoms: C_18  and  C_21
REMARK    9  A    between atoms: C_22  and  C_23
REMARK   10  A    between atoms: C_24  and  C_26
REMARK                            x       y       z     vdW  Elec       q    Type
REMARK                         _______ _______ _______ _____ _____    ______ ____
ROOT
ATOM      7  C   UNL     1      -3.000  -1.365  24.854  0.00  0.00    -0.027 C 
ATOM      8  C   UNL     1      -2.632  -0.028  24.126  0.00  0.00    +0.028 C 
ATOM      9  C   UNL     1      -1.090   0.254  24.223  0.00  0.00    +0.012 C 
ATOM     10  C   UNL     1      -3.555   1.136  24.586  0.00  0.00    +0.122 C 
ATOM     11  C   UNL     1      -4.502  -1.670  24.642  0.00  0.00    +0.007 C 
ATOM     12  C   UNL     1      -2.192  -2.522  24.223  0.00  0.00    +0.009 C 
ATOM     13  C   UNL     1      -5.057   0.786  24.470  0.00  0.00    +0.029 C 
ATOM     14  C   UNL     1      -0.285  -0.948  23.654  0.00  0.00    +0.076 C 
ATOM     15  C   UNL     1      -5.410  -0.548  25.128  0.00  0.00    +0.007 C 
ATOM     16  C   UNL     1      -0.688  -2.291  24.263  0.00  0.00    +0.023 C 
ATOM     17  C   UNL     1      -2.711  -1.311  26.375  0.00  0.00    +0.011 C 
ATOM     19  C   UNL     1      -0.653   1.540  23.502  0.00  0.00    +0.010 C 
ENDROOT
BRANCH  14   4
ATOM      3  O   UNL     1       1.623  -0.242  21.628  0.00  0.00    -0.269 OA
ATOM      4  N   UNL     1       1.140  -0.773  23.833  0.00  0.00    -0.307 N 
ATOM     22  C   UNL     1       1.982  -0.430  22.788  0.00  0.00    +0.263 C 
ATOM     35  H   UNL     1       1.539  -0.966  24.748  0.00  0.00    +0.149 HD
BRANCH  22  23
ATOM      6  N   UNL     1       3.982  -1.410  23.690  0.00  0.00    -0.250 NA
ATOM     23  C   UNL     1       3.423  -0.314  23.131  0.00  0.00    +0.125 A 
ATOM     25  C   UNL     1       4.110   0.862  22.874  0.00  0.00    +0.033 A 
ATOM     27  C   UNL     1       5.456   0.917  23.213  0.00  0.00    +0.004 A 
ATOM     28  C   UNL     1       5.294  -1.320  24.006  0.00  0.00    +0.111 A 
ATOM     31  C   UNL     1       6.068  -0.192  23.790  0.00  0.00    +0.020 A 
ENDBRANCH  22  23
ENDBRANCH  14   4
BRANCH  10   1
ATOM      1  O   UNL     1      -3.336   2.276  23.751  0.00  0.00    -0.391 OA
ATOM     36  H   UNL     1      -2.791   1.997  22.996  0.00  0.00    +0.210 HD
ENDBRANCH  10   1
BRANCH  13  18
ATOM     18  C   UNL     1      -5.946   1.894  25.048  0.00  0.00    +0.077 C 
ATOM     20  C   UNL     1      -7.168   2.102  24.160  0.00  0.00    +0.017 C 
BRANCH  18  21
ATOM      2  O   UNL     1      -5.117   4.054  24.332  0.00  0.00    -0.276 OA
ATOM      5  N   UNL     1      -4.455   3.242  26.402  0.00  0.00    -0.311 N 
ATOM     21  C   UNL     1      -5.141   3.181  25.197  0.00  0.00    +0.216 C 
ATOM     37  H   UNL     1      -4.568   2.503  27.087  0.00  0.00    +0.149 HD
BRANCH   5  24
ATOM     24  C   UNL     1      -3.623   4.364  26.770  0.00  0.00    +0.139 C 
BRANCH  24  26
ATOM     26  C   UNL     1      -2.270   4.297  26.122  0.00  0.00    -0.030 A 
ATOM     29  C   UNL     1      -1.890   5.272  25.200  0.00  0.00    +0.005 A 
ATOM     30  C   UNL     1      -1.393   3.261  26.442  0.00  0.00    +0.005 A 
ATOM     32  C   UNL     1      -0.633   5.211  24.598  0.00  0.00    +0.000 A 
ATOM     33  C   UNL     1      -0.137   3.198  25.840  0.00  0.00    +0.000 A 
ATOM     34  C   UNL     1       0.243   4.173  24.918  0.00  0.00    +0.000 A 
ENDBRANCH  24  26
ENDBRANCH   5  24
ENDBRANCH  18  21
ENDBRANCH  13  18
TORSDOF 7
ENDMDL
