MODEL 1
REMARK VINA RESULT:       6.8      0.000      0.000
REMARK  Name = 11887626
REMARK  8 active torsions:
REMARK  status: ('A' for Active; 'I' for Inactive)
REMARK    1  A    between atoms: S_1  and  N_8
REMARK    2  A    between atoms: S_1  and  C_20
REMARK    3  A    between atoms: N_10  and  C_19
REMARK    4  A    between atoms: C_13  and  C_17
REMARK    5  A    between atoms: C_18  and  C_23
REMARK    6  A    between atoms: C_19  and  C_21
REMARK    7  A    between atoms: C_19  and  C_26
REMARK    8  A    between atoms: C_21  and  C_22
REMARK                            x       y       z     vdW  Elec       q    Type
REMARK                         _______ _______ _______ _____ _____    ______ ____
ROOT
ATOM      6  O   UNL     1       1.771  -0.190  21.034  0.00  0.00    -0.270 OA
ATOM      8  N   UNL     1      -1.385  -0.338  24.996  0.00  0.00    -0.162 NA
ATOM      9  N   UNL     1       0.843  -0.472  23.163  0.00  0.00    -0.294 N 
ATOM     13  C   UNL     1      -1.588  -0.044  23.551  0.00  0.00    +0.183 C 
ATOM     14  C   UNL     1      -0.517  -0.662  22.655  0.00  0.00    +0.138 C 
ATOM     15  C   UNL     1      -0.195  -1.170  25.307  0.00  0.00    +0.129 C 
ATOM     16  C   UNL     1       1.024  -0.577  24.614  0.00  0.00    +0.125 C 
ATOM     18  C   UNL     1       1.891  -0.283  22.255  0.00  0.00    +0.247 C 
ENDROOT
BRANCH  18  23
ATOM      2  F   UNL     1       5.745  -2.298  24.403  0.00  0.00    -0.205 F 
ATOM     23  C   UNL     1       3.257  -0.188  22.792  0.00  0.00    +0.040 A 
ATOM     30  C   UNL     1       3.865  -1.310  23.355  0.00  0.00    +0.051 A 
ATOM     31  C   UNL     1       3.944   1.025  22.741  0.00  0.00    +0.013 A 
ATOM     37  C   UNL     1       5.161  -1.220  23.864  0.00  0.00    +0.124 A 
ATOM     38  C   UNL     1       5.238   1.115  23.251  0.00  0.00    +0.004 A 
ATOM     41  C   UNL     1       5.848  -0.007  23.812  0.00  0.00    +0.038 A 
ENDBRANCH  18  23
BRANCH  13  17
ATOM      5  O   UNL     1      -1.992   2.048  22.482  0.00  0.00    -0.274 OA
ATOM     10  N   UNL     1      -1.021   2.030  24.597  0.00  0.00    -0.302 N 
ATOM     17  C   UNL     1      -1.572   1.449  23.469  0.00  0.00    +0.234 C 
ATOM     42  H   UNL     1      -0.816   1.442  25.399  0.00  0.00    +0.150 HD
BRANCH  10  19
ATOM     19  C   UNL     1      -0.868   3.458  24.758  0.00  0.00    +0.163 C 
BRANCH  19  26
ATOM      7  O   UNL     1       0.309   4.994  23.289  0.00  0.00    -0.274 OA
ATOM     12  N   UNL     1       1.249   2.942  23.712  0.00  0.00    -0.328 N 
ATOM     26  C   UNL     1       0.259   3.895  23.833  0.00  0.00    +0.231 C 
ATOM     44  H   UNL     1       1.205   2.046  24.188  0.00  0.00    +0.145 HD
ATOM     45  H   UNL     1       2.066   3.112  23.135  0.00  0.00    +0.145 HD
ENDBRANCH  19  26
BRANCH  19  21
ATOM     21  C   UNL     1      -2.158   4.221  24.429  0.00  0.00    +0.069 C 
BRANCH  21  22
ATOM     11  N   UNL     1      -4.545   3.887  27.204  0.00  0.00    -0.360 N 
ATOM     22  C   UNL     1      -3.281   3.918  25.381  0.00  0.00    -0.020 A 
ATOM     27  C   UNL     1      -4.418   3.104  25.119  0.00  0.00    +0.003 A 
ATOM     28  C   UNL     1      -3.388   4.385  26.671  0.00  0.00    +0.087 A 
ATOM     29  C   UNL     1      -5.195   3.100  26.278  0.00  0.00    +0.047 A 
ATOM     34  C   UNL     1      -4.861   2.367  24.002  0.00  0.00    +0.010 A 
ATOM     36  C   UNL     1      -6.399   2.395  26.379  0.00  0.00    +0.026 A 
ATOM     39  C   UNL     1      -6.063   1.656  24.088  0.00  0.00    +0.001 A 
ATOM     40  C   UNL     1      -6.819   1.671  25.259  0.00  0.00    +0.002 A 
ATOM     43  H   UNL     1      -4.876   4.068  28.141  0.00  0.00    +0.165 HD
ENDBRANCH  21  22
ENDBRANCH  19  21
ENDBRANCH  10  19
ENDBRANCH  13  17
BRANCH   8   1
ATOM      1  S   UNL     1      -2.787  -0.650  25.923  0.00  0.00    +0.062 S 
ATOM      3  O   UNL     1      -3.616   0.536  25.944  0.00  0.00    -0.153 OA
ATOM      4  O   UNL     1      -2.403  -1.312  27.152  0.00  0.00    -0.153 OA
BRANCH   1  20
ATOM     20  C   UNL     1      -3.581  -1.843  24.890  0.00  0.00    +0.106 A 
ATOM     24  C   UNL     1      -3.235  -3.191  24.988  0.00  0.00    +0.028 A 
ATOM     25  C   UNL     1      -4.552  -1.437  23.975  0.00  0.00    +0.028 A 
ATOM     32  C   UNL     1      -3.862  -4.132  24.172  0.00  0.00    +0.002 A 
ATOM     33  C   UNL     1      -5.179  -2.379  23.159  0.00  0.00    +0.002 A 
ATOM     35  C   UNL     1      -4.833  -3.727  23.257  0.00  0.00    +0.000 A 
ENDBRANCH   1  20
ENDBRANCH   8   1
TORSDOF 8
ENDMDL
MODEL 2
REMARK VINA RESULT:       9.2      2.052      3.613
REMARK  Name = 11887626
REMARK  8 active torsions:
REMARK  status: ('A' for Active; 'I' for Inactive)
REMARK    1  A    between atoms: S_1  and  N_8
REMARK    2  A    between atoms: S_1  and  C_20
REMARK    3  A    between atoms: N_10  and  C_19
REMARK    4  A    between atoms: C_13  and  C_17
REMARK    5  A    between atoms: C_18  and  C_23
REMARK    6  A    between atoms: C_19  and  C_21
REMARK    7  A    between atoms: C_19  and  C_26
REMARK    8  A    between atoms: C_21  and  C_22
REMARK                            x       y       z     vdW  Elec       q    Type
REMARK                         _______ _______ _______ _____ _____    ______ ____
ROOT
ATOM      6  O   UNL     1       1.613  -0.023  21.071  0.00  0.00    -0.270 OA
ATOM      8  N   UNL     1      -1.601  -0.438  24.966  0.00  0.00    -0.162 NA
ATOM      9  N   UNL     1       0.654  -0.445  23.162  0.00  0.00    -0.294 N 
ATOM     13  C   UNL     1      -1.784  -0.052  23.539  0.00  0.00    +0.183 C 
ATOM     14  C   UNL     1      -0.696  -0.607  22.622  0.00  0.00    +0.138 C 
ATOM     15  C   UNL     1      -0.412  -1.284  25.241  0.00  0.00    +0.129 C 
ATOM     16  C   UNL     1       0.815  -0.643  24.606  0.00  0.00    +0.125 C 
ATOM     18  C   UNL     1       1.715  -0.194  22.285  0.00  0.00    +0.247 C 
ENDROOT
BRANCH  18  23
ATOM      2  F   UNL     1       5.536  -2.323  24.382  0.00  0.00    -0.205 F 
ATOM     23  C   UNL     1       3.073  -0.129  22.848  0.00  0.00    +0.040 A 
ATOM     30  C   UNL     1       3.672  -1.280  23.359  0.00  0.00    +0.051 A 
ATOM     31  C   UNL     1       3.760   1.085  22.873  0.00  0.00    +0.013 A 
ATOM     37  C   UNL     1       4.960  -1.218  23.893  0.00  0.00    +0.124 A 
ATOM     38  C   UNL     1       5.046   1.147  23.407  0.00  0.00    +0.004 A 
ATOM     41  C   UNL     1       5.647  -0.004  23.917  0.00  0.00    +0.038 A 
ENDBRANCH  18  23
BRANCH  13  17
ATOM      5  O   UNL     1      -1.284   2.097  22.636  0.00  0.00    -0.274 OA
ATOM     10  N   UNL     1      -2.344   1.960  24.704  0.00  0.00    -0.302 N 
ATOM     17  C   UNL     1      -1.773   1.443  23.554  0.00  0.00    +0.234 C 
ATOM     42  H   UNL     1      -2.822   1.328  25.338  0.00  0.00    +0.150 HD
BRANCH  10  19
ATOM     19  C   UNL     1      -2.437   3.377  24.973  0.00  0.00    +0.163 C 
BRANCH  19  26
ATOM      7  O   UNL     1      -4.349   4.328  23.815  0.00  0.00    -0.274 OA
ATOM     12  N   UNL     1      -4.677   3.378  25.880  0.00  0.00    -0.328 N 
ATOM     26  C   UNL     1      -3.898   3.768  24.810  0.00  0.00    +0.231 C 
ATOM     44  H   UNL     1      -4.295   2.894  26.686  0.00  0.00    +0.145 HD
ATOM     45  H   UNL     1      -5.674   3.565  25.892  0.00  0.00    +0.145 HD
ENDBRANCH  19  26
BRANCH  19  21
ATOM     21  C   UNL     1      -1.939   3.736  26.378  0.00  0.00    +0.069 C 
BRANCH  21  22
ATOM     11  N   UNL     1       1.482   2.388  26.398  0.00  0.00    -0.360 N 
ATOM     22  C   UNL     1      -0.566   3.200  26.672  0.00  0.00    -0.020 A 
ATOM     27  C   UNL     1       0.006   2.993  27.959  0.00  0.00    +0.003 A 
ATOM     28  C   UNL     1       0.365   2.819  25.733  0.00  0.00    +0.087 A 
ATOM     29  C   UNL     1       1.290   2.483  27.758  0.00  0.00    +0.047 A 
ATOM     34  C   UNL     1      -0.447   3.190  29.278  0.00  0.00    +0.010 A 
ATOM     36  C   UNL     1       2.148   2.160  28.815  0.00  0.00    +0.026 A 
ATOM     39  C   UNL     1       0.399   2.872  30.345  0.00  0.00    +0.001 A 
ATOM     40  C   UNL     1       1.677   2.365  30.116  0.00  0.00    +0.002 A 
ATOM     43  H   UNL     1       2.324   2.049  25.955  0.00  0.00    +0.165 HD
ENDBRANCH  21  22
ENDBRANCH  19  21
ENDBRANCH  10  19
ENDBRANCH  13  17
BRANCH   8   1
ATOM      1  S   UNL     1      -3.016  -0.815  25.849  0.00  0.00    +0.062 S 
ATOM      3  O   UNL     1      -3.895   0.336  25.850  0.00  0.00    -0.153 OA
ATOM      4  O   UNL     1      -2.640  -1.466  27.086  0.00  0.00    -0.153 OA
BRANCH   1  20
ATOM     20  C   UNL     1      -3.727  -2.034  24.788  0.00  0.00    +0.106 A 
ATOM     24  C   UNL     1      -3.265  -3.349  24.828  0.00  0.00    +0.028 A 
ATOM     25  C   UNL     1      -4.750  -1.681  23.907  0.00  0.00    +0.028 A 
ATOM     32  C   UNL     1      -3.826  -4.312  23.990  0.00  0.00    +0.002 A 
ATOM     33  C   UNL     1      -5.311  -2.645  23.068  0.00  0.00    +0.002 A 
ATOM     35  C   UNL     1      -4.849  -3.961  23.110  0.00  0.00    +0.000 A 
ENDBRANCH   1  20
ENDBRANCH   8   1
TORSDOF 8
ENDMDL
