MODEL 1
REMARK VINA RESULT:       6.9      0.000      0.000
REMARK  Name = 38028891
REMARK  11 active torsions:
REMARK  status: ('A' for Active; 'I' for Inactive)
REMARK    1  A    between atoms: S_1  and  N_5
REMARK    2  A    between atoms: S_1  and  C_26
REMARK    3  A    between atoms: N_5  and  C_16
REMARK    4  A    between atoms: C_9  and  C_13
REMARK    5  A    between atoms: C_10  and  C_16
REMARK    6  A    between atoms: C_12  and  C_17
REMARK    7  A    between atoms: C_13  and  C_18
REMARK    8  A    between atoms: C_13  and  C_19
REMARK    9  A    between atoms: C_14  and  C_20
REMARK   10  A    between atoms: C_17  and  C_21
REMARK   11  A    between atoms: C_26  and  C_28
REMARK                            x       y       z     vdW  Elec       q    Type
REMARK                         _______ _______ _______ _____ _____    ______ ____
ROOT
ATOM      9  C   UNL     1      -3.523   2.190  24.104  0.00  0.00    +0.000 C 
ATOM     10  C   UNL     1      -4.208   3.364  24.848  0.00  0.00    +0.030 C 
ATOM     11  C   UNL     1      -4.530   1.059  23.845  0.00  0.00    +0.012 C 
ATOM     12  C   UNL     1      -5.148   0.519  25.149  0.00  0.00    +0.023 C 
ATOM     14  C   UNL     1      -5.607   1.639  26.061  0.00  0.00    -0.073 C 
ATOM     15  C   UNL     1      -5.186   2.906  25.903  0.00  0.00    -0.023 C 
ATOM     20  C   UNL     1      -6.597   1.275  27.132  0.00  0.00    +0.039 C 
ENDROOT
BRANCH   9  13
ATOM     13  C   UNL     1      -2.898   2.642  22.782  0.00  0.00    -0.013 C 
ATOM     18  C   UNL     1      -2.361   1.441  22.009  0.00  0.00    +0.007 C 
ATOM     19  C   UNL     1      -3.918   3.409  21.946  0.00  0.00    +0.007 C 
ENDBRANCH   9  13
BRANCH  10  16
ATOM     16  C   UNL     1      -3.170   4.296  25.484  0.00  0.00    +0.113 C 
BRANCH  16   5
ATOM      5  N   UNL     1      -2.001   4.392  24.595  0.00  0.00    -0.194 NA
ATOM     38  H   UNL     1      -2.215   4.203  23.607  0.00  0.00    +0.148 HD
BRANCH   5   1
ATOM      1  S   UNL     1      -0.487   3.822  25.143  0.00  0.00    +0.033 S 
ATOM      3  O   UNL     1       0.279   4.920  25.699  0.00  0.00    -0.158 OA
ATOM      4  O   UNL     1       0.081   2.965  24.120  0.00  0.00    -0.158 OA
BRANCH   1  26
ATOM     26  C   UNL     1      -1.000   2.777  26.487  0.00  0.00    +0.220 C 
BRANCH  26  28
ATOM     28  C   UNL     1       0.107   2.754  27.496  0.00  0.00    -0.025 A 
ATOM     30  C   UNL     1       1.435   2.817  27.075  0.00  0.00    +0.005 A 
ATOM     31  C   UNL     1      -0.191   2.670  28.856  0.00  0.00    +0.005 A 
ATOM     34  C   UNL     1       2.466   2.795  28.015  0.00  0.00    +0.000 A 
ATOM     35  C   UNL     1       0.840   2.648  29.795  0.00  0.00    +0.000 A 
ATOM     37  C   UNL     1       2.169   2.711  29.374  0.00  0.00    +0.000 A 
ENDBRANCH  26  28
ENDBRANCH   1  26
ENDBRANCH   5   1
ENDBRANCH  16   5
ENDBRANCH  10  16
BRANCH  12  17
ATOM     17  C   UNL     1      -4.174  -0.416  25.875  0.00  0.00    +0.103 C 
BRANCH  17  21
ATOM      2  O   UNL     1      -4.209  -2.299  24.428  0.00  0.00    -0.276 OA
ATOM      6  N   UNL     1      -2.211  -1.120  24.558  0.00  0.00    -0.298 N 
ATOM      7  N   UNL     1       0.480  -0.575  23.640  0.00  0.00    -0.312 N 
ATOM      8  N   UNL     1       2.781  -0.257  24.063  0.00  0.00    -0.240 NA
ATOM     21  C   UNL     1      -3.544  -1.368  24.888  0.00  0.00    +0.216 C 
ATOM     22  C   UNL     1      -1.528  -2.000  23.613  0.00  0.00    +0.126 C 
ATOM     23  C   UNL     1      -1.426  -0.007  25.096  0.00  0.00    +0.126 C 
ATOM     24  C   UNL     1      -0.495  -1.247  22.777  0.00  0.00    +0.125 C 
ATOM     25  C   UNL     1       0.081  -0.252  25.013  0.00  0.00    +0.125 C 
ATOM     27  C   UNL     1       1.761  -0.287  23.177  0.00  0.00    +0.121 A 
ATOM     29  C   UNL     1       1.904  -0.046  21.819  0.00  0.00    +0.043 A 
ATOM     32  C   UNL     1       3.178   0.243  21.341  0.00  0.00    +0.005 A 
ATOM     33  C   UNL     1       4.004   0.028  23.560  0.00  0.00    +0.113 A 
ATOM     36  C   UNL     1       4.252   0.283  22.221  0.00  0.00    +0.020 A 
ENDBRANCH  17  21
ENDBRANCH  12  17
TORSDOF 8
ENDMDL
MODEL 2
REMARK VINA RESULT:       7.9      2.627      4.846
REMARK  Name = 38028891
REMARK  11 active torsions:
REMARK  status: ('A' for Active; 'I' for Inactive)
REMARK    1  A    between atoms: S_1  and  N_5
REMARK    2  A    between atoms: S_1  and  C_26
REMARK    3  A    between atoms: N_5  and  C_16
REMARK    4  A    between atoms: C_9  and  C_13
REMARK    5  A    between atoms: C_10  and  C_16
REMARK    6  A    between atoms: C_12  and  C_17
REMARK    7  A    between atoms: C_13  and  C_18
REMARK    8  A    between atoms: C_13  and  C_19
REMARK    9  A    between atoms: C_14  and  C_20
REMARK   10  A    between atoms: C_17  and  C_21
REMARK   11  A    between atoms: C_26  and  C_28
REMARK                            x       y       z     vdW  Elec       q    Type
REMARK                         _______ _______ _______ _____ _____    ______ ____
ROOT
ATOM      9  C   UNL     1      -2.138   3.356  24.973  0.00  0.00    +0.000 C 
ATOM     10  C   UNL     1      -3.419   4.227  24.990  0.00  0.00    +0.030 C 
ATOM     11  C   UNL     1      -1.505   3.361  23.572  0.00  0.00    +0.012 C 
ATOM     12  C   UNL     1      -2.470   2.831  22.496  0.00  0.00    +0.023 C 
ATOM     14  C   UNL     1      -3.847   3.453  22.618  0.00  0.00    -0.073 C 
ATOM     15  C   UNL     1      -4.248   4.083  23.736  0.00  0.00    -0.023 C 
ATOM     20  C   UNL     1      -4.736   3.371  21.408  0.00  0.00    +0.039 C 
ENDROOT
BRANCH   9  13
ATOM     13  C   UNL     1      -1.113   3.832  26.007  0.00  0.00    -0.013 C 
ATOM     18  C   UNL     1      -0.223   2.674  26.446  0.00  0.00    +0.007 C 
ATOM     19  C   UNL     1      -0.275   4.973  25.439  0.00  0.00    +0.007 C 
ENDBRANCH   9  13
BRANCH  10  16
ATOM     16  C   UNL     1      -4.286   3.912  26.214  0.00  0.00    +0.113 C 
BRANCH  16   5
ATOM      5  N   UNL     1      -5.567   3.344  25.762  0.00  0.00    -0.194 NA
ATOM     38  H   UNL     1      -6.391   3.848  26.116  0.00  0.00    +0.148 HD
BRANCH   5   1
ATOM      1  S   UNL     1      -5.734   1.648  25.646  0.00  0.00    +0.033 S 
ATOM      3  O   UNL     1      -6.220   1.292  24.328  0.00  0.00    -0.158 OA
ATOM      4  O   UNL     1      -6.405   1.168  26.839  0.00  0.00    -0.158 OA
BRANCH   1  26
ATOM     26  C   UNL     1      -4.032   1.145  25.755  0.00  0.00    +0.220 C 
BRANCH  26  28
ATOM     28  C   UNL     1      -3.944  -0.273  25.283  0.00  0.00    -0.025 A 
ATOM     30  C   UNL     1      -3.318  -1.234  26.076  0.00  0.00    +0.005 A 
ATOM     31  C   UNL     1      -4.487  -0.632  24.049  0.00  0.00    +0.005 A 
ATOM     34  C   UNL     1      -3.235  -2.556  25.637  0.00  0.00    +0.000 A 
ATOM     35  C   UNL     1      -4.404  -1.954  23.610  0.00  0.00    +0.000 A 
ATOM     37  C   UNL     1      -3.778  -2.916  24.404  0.00  0.00    +0.000 A 
ENDBRANCH  26  28
ENDBRANCH   1  26
ENDBRANCH   5   1
ENDBRANCH  16   5
ENDBRANCH  10  16
BRANCH  12  17
ATOM     17  C   UNL     1      -2.554   1.301  22.533  0.00  0.00    +0.103 C 
BRANCH  17  21
ATOM      2  O   UNL     1      -1.974   0.574  20.348  0.00  0.00    -0.276 OA
ATOM      6  N   UNL     1      -0.345   0.348  21.989  0.00  0.00    -0.298 N 
ATOM      7  N   UNL     1       2.368  -0.242  22.809  0.00  0.00    -0.312 N 
ATOM      8  N   UNL     1       3.906  -1.386  24.188  0.00  0.00    -0.240 NA
ATOM     21  C   UNL     1      -1.607   0.711  21.517  0.00  0.00    +0.216 C 
ATOM     22  C   UNL     1       0.627  -0.236  21.068  0.00  0.00    +0.126 C 
ATOM     23  C   UNL     1       0.094   0.521  23.375  0.00  0.00    +0.126 C 
ATOM     24  C   UNL     1       2.060   0.149  21.431  0.00  0.00    +0.125 C 
ATOM     25  C   UNL     1       1.254  -0.402  23.748  0.00  0.00    +0.125 C 
ATOM     27  C   UNL     1       3.681  -0.490  23.202  0.00  0.00    +0.121 A 
ATOM     29  C   UNL     1       4.682   0.210  22.545  0.00  0.00    +0.043 A 
ATOM     32  C   UNL     1       5.998  -0.026  22.926  0.00  0.00    +0.005 A 
ATOM     33  C   UNL     1       5.199  -1.588  24.531  0.00  0.00    +0.113 A 
ATOM     36  C   UNL     1       6.269  -0.940  23.937  0.00  0.00    +0.020 A 
ENDBRANCH  17  21
ENDBRANCH  12  17
TORSDOF 8
ENDMDL
MODEL 3
REMARK VINA RESULT:       8.9      2.325      3.722
REMARK  Name = 38028891
REMARK  11 active torsions:
REMARK  status: ('A' for Active; 'I' for Inactive)
REMARK    1  A    between atoms: S_1  and  N_5
REMARK    2  A    between atoms: S_1  and  C_26
REMARK    3  A    between atoms: N_5  and  C_16
REMARK    4  A    between atoms: C_9  and  C_13
REMARK    5  A    between atoms: C_10  and  C_16
REMARK    6  A    between atoms: C_12  and  C_17
REMARK    7  A    between atoms: C_13  and  C_18
REMARK    8  A    between atoms: C_13  and  C_19
REMARK    9  A    between atoms: C_14  and  C_20
REMARK   10  A    between atoms: C_17  and  C_21
REMARK   11  A    between atoms: C_26  and  C_28
REMARK                            x       y       z     vdW  Elec       q    Type
REMARK                         _______ _______ _______ _____ _____    ______ ____
ROOT
ATOM      9  C   UNL     1      -2.503   0.888  22.986  0.00  0.00    +0.000 C 
ATOM     10  C   UNL     1      -2.440   1.579  24.371  0.00  0.00    +0.030 C 
ATOM     11  C   UNL     1      -3.805   0.084  22.845  0.00  0.00    +0.012 C 
ATOM     12  C   UNL     1      -3.945  -0.994  23.937  0.00  0.00    +0.023 C 
ATOM     14  C   UNL     1      -3.634  -0.445  25.315  0.00  0.00    -0.073 C 
ATOM     15  C   UNL     1      -2.972   0.713  25.488  0.00  0.00    -0.023 C 
ATOM     20  C   UNL     1      -4.141  -1.236  26.488  0.00  0.00    +0.039 C 
ENDROOT
BRANCH   9  13
ATOM     13  C   UNL     1      -2.391   1.898  21.841  0.00  0.00    -0.013 C 
ATOM     18  C   UNL     1      -2.118   1.180  20.522  0.00  0.00    +0.007 C 
ATOM     19  C   UNL     1      -3.660   2.738  21.746  0.00  0.00    +0.007 C 
ENDBRANCH   9  13
BRANCH  10  16
ATOM     16  C   UNL     1      -1.011   2.022  24.704  0.00  0.00    +0.113 C 
BRANCH  16   5
ATOM      5  N   UNL     1      -0.880   3.463  24.430  0.00  0.00    -0.194 NA
ATOM     38  H   UNL     1       0.089   3.765  24.260  0.00  0.00    +0.148 HD
BRANCH   5   1
ATOM      1  S   UNL     1      -1.857   4.568  25.292  0.00  0.00    +0.033 S 
ATOM      3  O   UNL     1      -1.257   5.887  25.252  0.00  0.00    -0.158 OA
ATOM      4  O   UNL     1      -2.235   3.963  26.554  0.00  0.00    -0.158 OA
BRANCH   1  26
ATOM     26  C   UNL     1      -3.305   4.595  24.260  0.00  0.00    +0.220 C 
BRANCH  26  28
ATOM     28  C   UNL     1      -4.351   3.751  24.920  0.00  0.00    -0.025 A 
ATOM     30  C   UNL     1      -4.522   3.807  26.303  0.00  0.00    +0.005 A 
ATOM     31  C   UNL     1      -5.154   2.908  24.152  0.00  0.00    +0.005 A 
ATOM     34  C   UNL     1      -5.497   3.021  26.918  0.00  0.00    +0.000 A 
ATOM     35  C   UNL     1      -6.129   2.122  24.767  0.00  0.00    +0.000 A 
ATOM     37  C   UNL     1      -6.299   2.179  26.151  0.00  0.00    +0.000 A 
ENDBRANCH  26  28
ENDBRANCH   1  26
ENDBRANCH   5   1
ENDBRANCH  16   5
ENDBRANCH  10  16
BRANCH  12  17
ATOM     17  C   UNL     1      -3.073  -2.214  23.622  0.00  0.00    +0.103 C 
BRANCH  17  21
ATOM      2  O   UNL     1      -2.342  -2.994  25.743  0.00  0.00    -0.276 OA
ATOM      6  N   UNL     1      -0.776  -1.865  24.450  0.00  0.00    -0.298 N 
ATOM      7  N   UNL     1       1.934  -0.987  23.937  0.00  0.00    -0.312 N 
ATOM      8  N   UNL     1       3.492   0.710  23.416  0.00  0.00    -0.240 NA
ATOM     21  C   UNL     1      -2.040  -2.400  24.705  0.00  0.00    +0.216 C 
ATOM     22  C   UNL     1       0.278  -1.999  25.452  0.00  0.00    +0.126 C 
ATOM     23  C   UNL     1      -0.414  -1.169  23.213  0.00  0.00    +0.126 C 
ATOM     24  C   UNL     1       1.660  -2.128  24.814  0.00  0.00    +0.125 C 
ATOM     25  C   UNL     1       0.795  -0.250  23.383  0.00  0.00    +0.125 C 
ATOM     27  C   UNL     1       3.243  -0.594  23.670  0.00  0.00    +0.121 A 
ATOM     29  C   UNL     1       4.216  -1.582  23.682  0.00  0.00    +0.043 A 
ATOM     32  C   UNL     1       5.528  -1.205  23.417  0.00  0.00    +0.005 A 
ATOM     33  C   UNL     1       4.779   1.038  23.162  0.00  0.00    +0.113 A 
ATOM     36  C   UNL     1       5.823   0.127  23.151  0.00  0.00    +0.020 A 
ENDBRANCH  17  21
ENDBRANCH  12  17
TORSDOF 8
ENDMDL
MODEL 4
REMARK VINA RESULT:       9.4      2.183      3.422
REMARK  Name = 38028891
REMARK  11 active torsions:
REMARK  status: ('A' for Active; 'I' for Inactive)
REMARK    1  A    between atoms: S_1  and  N_5
REMARK    2  A    between atoms: S_1  and  C_26
REMARK    3  A    between atoms: N_5  and  C_16
REMARK    4  A    between atoms: C_9  and  C_13
REMARK    5  A    between atoms: C_10  and  C_16
REMARK    6  A    between atoms: C_12  and  C_17
REMARK    7  A    between atoms: C_13  and  C_18
REMARK    8  A    between atoms: C_13  and  C_19
REMARK    9  A    between atoms: C_14  and  C_20
REMARK   10  A    between atoms: C_17  and  C_21
REMARK   11  A    between atoms: C_26  and  C_28
REMARK                            x       y       z     vdW  Elec       q    Type
REMARK                         _______ _______ _______ _____ _____    ______ ____
ROOT
ATOM      9  C   UNL     1      -3.754   0.313  24.444  0.00  0.00    +0.000 C 
ATOM     10  C   UNL     1      -2.580   1.246  24.832  0.00  0.00    +0.030 C 
ATOM     11  C   UNL     1      -4.301  -0.407  25.686  0.00  0.00    +0.012 C 
ATOM     12  C   UNL     1      -3.222  -1.248  26.394  0.00  0.00    +0.023 C 
ATOM     14  C   UNL     1      -1.932  -0.473  26.574  0.00  0.00    -0.073 C 
ATOM     15  C   UNL     1      -1.668   0.646  25.877  0.00  0.00    -0.023 C 
ATOM     20  C   UNL     1      -0.971  -0.991  27.608  0.00  0.00    +0.039 C 
ENDROOT
BRANCH   9  13
ATOM     13  C   UNL     1      -4.883   1.079  23.748  0.00  0.00    -0.013 C 
ATOM     18  C   UNL     1      -6.004   1.386  24.735  0.00  0.00    +0.007 C 
ATOM     19  C   UNL     1      -4.347   2.362  23.122  0.00  0.00    +0.007 C 
ENDBRANCH   9  13
BRANCH  10  16
ATOM     16  C   UNL     1      -1.755   1.640  23.602  0.00  0.00    +0.113 C 
BRANCH  16   5
ATOM      5  N   UNL     1      -1.657   3.108  23.540  0.00  0.00    -0.194 NA
ATOM     38  H   UNL     1      -1.981   3.508  22.649  0.00  0.00    +0.148 HD
BRANCH   5   1
ATOM      1  S   UNL     1      -0.312   3.885  24.250  0.00  0.00    +0.033 S 
ATOM      3  O   UNL     1       0.534   4.446  23.216  0.00  0.00    -0.158 OA
ATOM      4  O   UNL     1       0.241   3.012  25.268  0.00  0.00    -0.158 OA
BRANCH   1  26
ATOM     26  C   UNL     1      -1.118   5.231  25.087  0.00  0.00    +0.220 C 
BRANCH  26  28
ATOM     28  C   UNL     1      -2.508   4.791  25.427  0.00  0.00    -0.025 A 
ATOM     30  C   UNL     1      -3.569   5.114  24.582  0.00  0.00    +0.005 A 
ATOM     31  C   UNL     1      -2.742   4.057  26.591  0.00  0.00    +0.005 A 
ATOM     34  C   UNL     1      -4.864   4.704  24.899  0.00  0.00    +0.000 A 
ATOM     35  C   UNL     1      -4.037   3.647  26.907  0.00  0.00    +0.000 A 
ATOM     37  C   UNL     1      -5.098   3.971  26.061  0.00  0.00    +0.000 A 
ENDBRANCH  26  28
ENDBRANCH   1  26
ENDBRANCH   5   1
ENDBRANCH  16   5
ENDBRANCH  10  16
BRANCH  12  17
ATOM     17  C   UNL     1      -2.972  -2.565  25.651  0.00  0.00    +0.103 C 
BRANCH  17  21
ATOM      2  O   UNL     1      -3.318  -2.342  23.313  0.00  0.00    -0.276 OA
ATOM      6  N   UNL     1      -1.161  -1.962  24.089  0.00  0.00    -0.298 N 
ATOM      7  N   UNL     1       1.566  -1.083  23.681  0.00  0.00    -0.312 N 
ATOM      8  N   UNL     1       3.896  -1.429  23.855  0.00  0.00    -0.240 NA
ATOM     21  C   UNL     1      -2.511  -2.281  24.243  0.00  0.00    +0.216 C 
ATOM     22  C   UNL     1      -0.636  -1.679  22.756  0.00  0.00    +0.126 C 
ATOM     23  C   UNL     1      -0.206  -1.879  25.196  0.00  0.00    +0.126 C 
ATOM     24  C   UNL     1       0.487  -0.644  22.793  0.00  0.00    +0.125 C 
ATOM     25  C   UNL     1       1.244  -2.042  24.741  0.00  0.00    +0.125 C 
ATOM     27  C   UNL     1       2.869  -0.626  23.496  0.00  0.00    +0.121 A 
ATOM     29  C   UNL     1       3.026   0.638  22.950  0.00  0.00    +0.043 A 
ATOM     32  C   UNL     1       4.321   1.108  22.759  0.00  0.00    +0.005 A 
ATOM     33  C   UNL     1       5.140  -0.937  23.655  0.00  0.00    +0.113 A 
ATOM     36  C   UNL     1       5.402   0.312  23.116  0.00  0.00    +0.020 A 
ENDBRANCH  17  21
ENDBRANCH  12  17
TORSDOF 8
ENDMDL
MODEL 5
REMARK VINA RESULT:       9.5      2.919      5.789
REMARK  Name = 38028891
REMARK  11 active torsions:
REMARK  status: ('A' for Active; 'I' for Inactive)
REMARK    1  A    between atoms: S_1  and  N_5
REMARK    2  A    between atoms: S_1  and  C_26
REMARK    3  A    between atoms: N_5  and  C_16
REMARK    4  A    between atoms: C_9  and  C_13
REMARK    5  A    between atoms: C_10  and  C_16
REMARK    6  A    between atoms: C_12  and  C_17
REMARK    7  A    between atoms: C_13  and  C_18
REMARK    8  A    between atoms: C_13  and  C_19
REMARK    9  A    between atoms: C_14  and  C_20
REMARK   10  A    between atoms: C_17  and  C_21
REMARK   11  A    between atoms: C_26  and  C_28
REMARK                            x       y       z     vdW  Elec       q    Type
REMARK                         _______ _______ _______ _____ _____    ______ ____
ROOT
ATOM      9  C   UNL     1      -2.413   2.809  23.733  0.00  0.00    +0.000 C 
ATOM     10  C   UNL     1      -0.902   3.136  23.639  0.00  0.00    +0.030 C 
ATOM     11  C   UNL     1      -3.251   4.087  23.569  0.00  0.00    +0.012 C 
ATOM     12  C   UNL     1      -2.912   5.145  24.636  0.00  0.00    +0.023 C 
ATOM     14  C   UNL     1      -1.416   5.332  24.790  0.00  0.00    -0.073 C 
ATOM     15  C   UNL     1      -0.533   4.429  24.327  0.00  0.00    -0.023 C 
ATOM     20  C   UNL     1      -0.957   6.602  25.451  0.00  0.00    +0.039 C 
ENDROOT
BRANCH   9  13
ATOM     13  C   UNL     1      -2.838   1.774  22.688  0.00  0.00    -0.013 C 
ATOM     18  C   UNL     1      -2.531   2.280  21.282  0.00  0.00    +0.007 C 
ATOM     19  C   UNL     1      -2.141   0.441  22.946  0.00  0.00    +0.007 C 
ENDBRANCH   9  13
BRANCH  10  16
ATOM     16  C   UNL     1      -0.052   1.994  24.207  0.00  0.00    +0.113 C 
BRANCH  16   5
ATOM      5  N   UNL     1       0.993   1.642  23.233  0.00  0.00    -0.194 NA
ATOM     38  H   UNL     1       1.131   2.349  22.498  0.00  0.00    +0.148 HD
BRANCH   5   1
ATOM      1  S   UNL     1       1.152   0.017  22.729  0.00  0.00    +0.033 S 
ATOM      3  O   UNL     1       0.084  -0.318  21.809  0.00  0.00    -0.158 OA
ATOM      4  O   UNL     1       1.409  -0.804  23.897  0.00  0.00    -0.158 OA
BRANCH   1  26
ATOM     26  C   UNL     1       2.665   0.110  21.801  0.00  0.00    +0.220 C 
BRANCH  26  28
ATOM     28  C   UNL     1       3.800  -0.108  22.754  0.00  0.00    -0.025 A 
ATOM     30  C   UNL     1       4.008  -1.368  23.313  0.00  0.00    +0.005 A 
ATOM     31  C   UNL     1       4.647   0.950  23.082  0.00  0.00    +0.005 A 
ATOM     34  C   UNL     1       5.065  -1.571  24.201  0.00  0.00    +0.000 A 
ATOM     35  C   UNL     1       5.704   0.747  23.969  0.00  0.00    +0.000 A 
ATOM     37  C   UNL     1       5.912  -0.514  24.530  0.00  0.00    +0.000 A 
ENDBRANCH  26  28
ENDBRANCH   1  26
ENDBRANCH   5   1
ENDBRANCH  16   5
ENDBRANCH  10  16
BRANCH  12  17
ATOM     17  C   UNL     1      -3.565   4.804  25.980  0.00  0.00    +0.103 C 
BRANCH  17  21
ATOM      2  O   UNL     1      -5.900   4.480  25.700  0.00  0.00    -0.276 OA
ATOM      6  N   UNL     1      -4.567   2.579  25.621  0.00  0.00    -0.298 N 
ATOM      7  N   UNL     1      -4.205  -0.249  25.119  0.00  0.00    -0.312 N 
ATOM      8  N   UNL     1      -3.437  -2.382  25.778  0.00  0.00    -0.240 NA
ATOM     21  C   UNL     1      -4.788   3.951  25.754  0.00  0.00    +0.216 C 
ATOM     22  C   UNL     1      -5.702   1.685  25.405  0.00  0.00    +0.126 C 
ATOM     23  C   UNL     1      -3.245   1.952  25.674  0.00  0.00    +0.126 C 
ATOM     24  C   UNL     1      -5.328   0.488  24.533  0.00  0.00    +0.125 C 
ATOM     25  C   UNL     1      -3.308   0.467  26.030  0.00  0.00    +0.125 C 
ATOM     27  C   UNL     1      -4.021  -1.601  24.842  0.00  0.00    +0.121 A 
ATOM     29  C   UNL     1      -4.454  -2.061  23.608  0.00  0.00    +0.043 A 
ATOM     32  C   UNL     1      -4.277  -3.409  23.318  0.00  0.00    +0.005 A 
ATOM     33  C   UNL     1      -3.281  -3.687  25.460  0.00  0.00    +0.113 A 
ATOM     36  C   UNL     1      -3.680  -4.244  24.255  0.00  0.00    +0.020 A 
ENDBRANCH  17  21
ENDBRANCH  12  17
TORSDOF 8
ENDMDL
MODEL 6
REMARK VINA RESULT:       9.6      2.144      5.721
REMARK  Name = 38028891
REMARK  11 active torsions:
REMARK  status: ('A' for Active; 'I' for Inactive)
REMARK    1  A    between atoms: S_1  and  N_5
REMARK    2  A    between atoms: S_1  and  C_26
REMARK    3  A    between atoms: N_5  and  C_16
REMARK    4  A    between atoms: C_9  and  C_13
REMARK    5  A    between atoms: C_10  and  C_16
REMARK    6  A    between atoms: C_12  and  C_17
REMARK    7  A    between atoms: C_13  and  C_18
REMARK    8  A    between atoms: C_13  and  C_19
REMARK    9  A    between atoms: C_14  and  C_20
REMARK   10  A    between atoms: C_17  and  C_21
REMARK   11  A    between atoms: C_26  and  C_28
REMARK                            x       y       z     vdW  Elec       q    Type
REMARK                         _______ _______ _______ _____ _____    ______ ____
ROOT
ATOM      9  C   UNL     1      -4.480   1.759  24.762  0.00  0.00    +0.000 C 
ATOM     10  C   UNL     1      -3.781   0.397  24.526  0.00  0.00    +0.030 C 
ATOM     11  C   UNL     1      -5.015   2.324  23.438  0.00  0.00    +0.012 C 
ATOM     12  C   UNL     1      -3.898   2.522  22.396  0.00  0.00    +0.023 C 
ATOM     14  C   UNL     1      -2.996   1.308  22.299  0.00  0.00    -0.073 C 
ATOM     15  C   UNL     1      -2.967   0.363  23.254  0.00  0.00    -0.023 C 
ATOM     20  C   UNL     1      -2.160   1.184  21.055  0.00  0.00    +0.039 C 
ENDROOT
BRANCH   9  13
ATOM     13  C   UNL     1      -5.622   1.644  25.776  0.00  0.00    -0.013 C 
ATOM     18  C   UNL     1      -5.583   2.811  26.757  0.00  0.00    +0.007 C 
ATOM     19  C   UNL     1      -6.967   1.586  25.058  0.00  0.00    +0.007 C 
ENDBRANCH   9  13
BRANCH  10  16
ATOM     16  C   UNL     1      -2.888   0.020  25.714  0.00  0.00    +0.113 C 
BRANCH  16   5
ATOM      5  N   UNL     1      -2.374  -1.345  25.515  0.00  0.00    -0.194 NA
ATOM     38  H   UNL     1      -2.612  -1.993  26.277  0.00  0.00    +0.148 HD
BRANCH   5   1
ATOM      1  S   UNL     1      -0.828  -1.561  24.820  0.00  0.00    +0.033 S 
ATOM      3  O   UNL     1      -0.957  -2.192  23.521  0.00  0.00    -0.158 OA
ATOM      4  O   UNL     1       0.057  -2.112  25.827  0.00  0.00    -0.158 OA
BRANCH   1  26
ATOM     26  C   UNL     1      -0.348   0.131  24.560  0.00  0.00    +0.220 C 
BRANCH  26  28
ATOM     28  C   UNL     1       0.773   0.141  23.568  0.00  0.00    -0.025 A 
ATOM     30  C   UNL     1       1.939   0.857  23.840  0.00  0.00    +0.005 A 
ATOM     31  C   UNL     1       0.652  -0.566  22.372  0.00  0.00    +0.005 A 
ATOM     34  C   UNL     1       2.984   0.866  22.917  0.00  0.00    +0.000 A 
ATOM     35  C   UNL     1       1.698  -0.557  21.448  0.00  0.00    +0.000 A 
ATOM     37  C   UNL     1       2.864   0.160  21.720  0.00  0.00    +0.000 A 
ENDBRANCH  26  28
ENDBRANCH   1  26
ENDBRANCH   5   1
ENDBRANCH  16   5
ENDBRANCH  10  16
BRANCH  12  17
ATOM     17  C   UNL     1      -3.085   3.788  22.692  0.00  0.00    +0.103 C 
BRANCH  17  21
ATOM      2  O   UNL     1      -4.338   4.740  24.470  0.00  0.00    -0.276 OA
ATOM      6  N   UNL     1      -2.222   3.937  24.998  0.00  0.00    -0.298 N 
ATOM      7  N   UNL     1      -0.177   3.245  26.926  0.00  0.00    -0.312 N 
ATOM      8  N   UNL     1       2.049   3.361  27.707  0.00  0.00    -0.240 NA
ATOM     21  C   UNL     1      -3.283   4.200  24.129  0.00  0.00    +0.216 C 
ATOM     22  C   UNL     1      -2.335   4.311  26.405  0.00  0.00    +0.126 C 
ATOM     23  C   UNL     1      -0.974   3.286  24.594  0.00  0.00    +0.126 C 
ATOM     24  C   UNL     1      -1.586   3.339  27.316  0.00  0.00    +0.125 C 
ATOM     25  C   UNL     1       0.184   3.585  25.547  0.00  0.00    +0.125 C 
ATOM     27  C   UNL     1       0.794   2.878  27.854  0.00  0.00    +0.121 A 
ATOM     29  C   UNL     1       0.404   2.031  28.879  0.00  0.00    +0.043 A 
ATOM     32  C   UNL     1       1.363   1.655  29.813  0.00  0.00    +0.005 A 
ATOM     33  C   UNL     1       2.953   2.973  28.635  0.00  0.00    +0.113 A 
ATOM     36  C   UNL     1       2.663   2.130  29.696  0.00  0.00    +0.020 A 
ENDBRANCH  17  21
ENDBRANCH  12  17
TORSDOF 8
ENDMDL
MODEL 7
REMARK VINA RESULT:       9.6      2.743      5.509
REMARK  Name = 38028891
REMARK  11 active torsions:
REMARK  status: ('A' for Active; 'I' for Inactive)
REMARK    1  A    between atoms: S_1  and  N_5
REMARK    2  A    between atoms: S_1  and  C_26
REMARK    3  A    between atoms: N_5  and  C_16
REMARK    4  A    between atoms: C_9  and  C_13
REMARK    5  A    between atoms: C_10  and  C_16
REMARK    6  A    between atoms: C_12  and  C_17
REMARK    7  A    between atoms: C_13  and  C_18
REMARK    8  A    between atoms: C_13  and  C_19
REMARK    9  A    between atoms: C_14  and  C_20
REMARK   10  A    between atoms: C_17  and  C_21
REMARK   11  A    between atoms: C_26  and  C_28
REMARK                            x       y       z     vdW  Elec       q    Type
REMARK                         _______ _______ _______ _____ _____    ______ ____
ROOT
ATOM      9  C   UNL     1      -2.628  -1.536  24.687  0.00  0.00    +0.000 C 
ATOM     10  C   UNL     1      -3.125  -0.096  24.967  0.00  0.00    +0.030 C 
ATOM     11  C   UNL     1      -1.305  -1.799  25.422  0.00  0.00    +0.012 C 
ATOM     12  C   UNL     1      -0.200  -0.810  25.006  0.00  0.00    +0.023 C 
ATOM     14  C   UNL     1      -0.698   0.622  25.000  0.00  0.00    -0.073 C 
ATOM     15  C   UNL     1      -2.009   0.921  24.996  0.00  0.00    -0.023 C 
ATOM     20  C   UNL     1       0.347   1.701  25.044  0.00  0.00    +0.039 C 
ENDROOT
BRANCH   9  13
ATOM     13  C   UNL     1      -3.666  -2.586  25.093  0.00  0.00    -0.013 C 
ATOM     18  C   UNL     1      -4.280  -3.235  23.857  0.00  0.00    +0.007 C 
ATOM     19  C   UNL     1      -3.031  -3.638  25.997  0.00  0.00    +0.007 C 
ENDBRANCH   9  13
BRANCH  10  16
ATOM     16  C   UNL     1      -4.181   0.334  23.943  0.00  0.00    +0.113 C 
BRANCH  16   5
ATOM      5  N   UNL     1      -4.569   1.729  24.209  0.00  0.00    -0.194 NA
ATOM     38  H   UNL     1      -3.771   2.360  24.361  0.00  0.00    +0.148 HD
BRANCH   5   1
ATOM      1  S   UNL     1      -5.950   2.043  25.166  0.00  0.00    +0.033 S 
ATOM      3  O   UNL     1      -5.869   1.296  26.405  0.00  0.00    -0.158 OA
ATOM      4  O   UNL     1      -7.125   1.954  24.322  0.00  0.00    -0.158 OA
BRANCH   1  26
ATOM     26  C   UNL     1      -5.698   3.762  25.546  0.00  0.00    +0.220 C 
BRANCH  26  28
ATOM     28  C   UNL     1      -4.233   4.047  25.423  0.00  0.00    -0.025 A 
ATOM     30  C   UNL     1      -3.407   3.945  26.542  0.00  0.00    +0.005 A 
ATOM     31  C   UNL     1      -3.695   4.414  24.190  0.00  0.00    +0.005 A 
ATOM     34  C   UNL     1      -2.042   4.211  26.428  0.00  0.00    +0.000 A 
ATOM     35  C   UNL     1      -2.330   4.680  24.076  0.00  0.00    +0.000 A 
ATOM     37  C   UNL     1      -1.503   4.578  25.196  0.00  0.00    +0.000 A 
ENDBRANCH  26  28
ENDBRANCH   1  26
ENDBRANCH   5   1
ENDBRANCH  16   5
ENDBRANCH  10  16
BRANCH  12  17
ATOM     17  C   UNL     1       0.397  -1.189  23.646  0.00  0.00    +0.103 C 
BRANCH  17  21
ATOM      2  O   UNL     1       0.471   0.960  22.639  0.00  0.00    -0.276 OA
ATOM      6  N   UNL     1       2.511  -0.087  23.014  0.00  0.00    -0.298 N 
ATOM      7  N   UNL     1       5.405  -0.060  23.077  0.00  0.00    -0.312 N 
ATOM      8  N   UNL     1       7.492  -1.002  22.501  0.00  0.00    -0.240 NA
ATOM     21  C   UNL     1       1.118  -0.004  23.054  0.00  0.00    +0.216 C 
ATOM     22  C   UNL     1       3.282   1.018  22.450  0.00  0.00    +0.126 C 
ATOM     23  C   UNL     1       3.280  -1.227  23.517  0.00  0.00    +0.126 C 
ATOM     24  C   UNL     1       4.633   1.184  23.144  0.00  0.00    +0.125 C 
ATOM     25  C   UNL     1       4.675  -1.319  22.901  0.00  0.00    +0.125 C 
ATOM     27  C   UNL     1       6.796  -0.038  23.143  0.00  0.00    +0.121 A 
ATOM     29  C   UNL     1       7.379   0.985  23.874  0.00  0.00    +0.043 A 
ATOM     32  C   UNL     1       8.768   1.021  23.949  0.00  0.00    +0.005 A 
ATOM     33  C   UNL     1       8.840  -0.935  22.597  0.00  0.00    +0.113 A 
ATOM     36  C   UNL     1       9.518   0.046  23.302  0.00  0.00    +0.020 A 
ENDBRANCH  17  21
ENDBRANCH  12  17
TORSDOF 8
ENDMDL
MODEL 8
REMARK VINA RESULT:      10.1      2.037      3.139
REMARK  Name = 38028891
REMARK  11 active torsions:
REMARK  status: ('A' for Active; 'I' for Inactive)
REMARK    1  A    between atoms: S_1  and  N_5
REMARK    2  A    between atoms: S_1  and  C_26
REMARK    3  A    between atoms: N_5  and  C_16
REMARK    4  A    between atoms: C_9  and  C_13
REMARK    5  A    between atoms: C_10  and  C_16
REMARK    6  A    between atoms: C_12  and  C_17
REMARK    7  A    between atoms: C_13  and  C_18
REMARK    8  A    between atoms: C_13  and  C_19
REMARK    9  A    between atoms: C_14  and  C_20
REMARK   10  A    between atoms: C_17  and  C_21
REMARK   11  A    between atoms: C_26  and  C_28
REMARK                            x       y       z     vdW  Elec       q    Type
REMARK                         _______ _______ _______ _____ _____    ______ ____
ROOT
ATOM      9  C   UNL     1      -4.871   0.327  25.149  0.00  0.00    +0.000 C 
ATOM     10  C   UNL     1      -3.828   1.467  25.032  0.00  0.00    +0.030 C 
ATOM     11  C   UNL     1      -4.630  -0.493  26.425  0.00  0.00    +0.012 C 
ATOM     12  C   UNL     1      -3.221  -1.114  26.461  0.00  0.00    +0.023 C 
ATOM     14  C   UNL     1      -2.151  -0.106  26.091  0.00  0.00    -0.073 C 
ATOM     15  C   UNL     1      -2.444   1.047  25.465  0.00  0.00    -0.023 C 
ATOM     20  C   UNL     1      -0.742  -0.435  26.499  0.00  0.00    +0.039 C 
ENDROOT
BRANCH   9  13
ATOM     13  C   UNL     1      -6.305   0.865  25.141  0.00  0.00    -0.013 C 
ATOM     18  C   UNL     1      -6.623   1.554  26.464  0.00  0.00    +0.007 C 
ATOM     19  C   UNL     1      -6.507   1.822  23.970  0.00  0.00    +0.007 C 
ENDBRANCH   9  13
BRANCH  10  16
ATOM     16  C   UNL     1      -3.771   2.021  23.604  0.00  0.00    +0.113 C 
BRANCH  16   5
ATOM      5  N   UNL     1      -3.084   3.323  23.621  0.00  0.00    -0.194 NA
ATOM     38  H   UNL     1      -2.058   3.250  23.594  0.00  0.00    +0.148 HD
BRANCH   5   1
ATOM      1  S   UNL     1      -3.708   4.583  24.591  0.00  0.00    +0.033 S 
ATOM      3  O   UNL     1      -4.408   4.026  25.731  0.00  0.00    -0.158 OA
ATOM      4  O   UNL     1      -4.353   5.553  23.727  0.00  0.00    -0.158 OA
BRANCH   1  26
ATOM     26  C   UNL     1      -2.200   5.318  25.181  0.00  0.00    +0.220 C 
BRANCH  26  28
ATOM     28  C   UNL     1      -1.158   4.243  25.231  0.00  0.00    -0.025 A 
ATOM     30  C   UNL     1      -0.481   3.874  24.069  0.00  0.00    +0.005 A 
ATOM     31  C   UNL     1      -0.867   3.611  26.440  0.00  0.00    +0.005 A 
ATOM     34  C   UNL     1       0.490   2.873  24.116  0.00  0.00    +0.000 A 
ATOM     35  C   UNL     1       0.104   2.610  26.486  0.00  0.00    +0.000 A 
ATOM     37  C   UNL     1       0.782   2.241  25.323  0.00  0.00    +0.000 A 
ENDBRANCH  26  28
ENDBRANCH   1  26
ENDBRANCH   5   1
ENDBRANCH  16   5
ENDBRANCH  10  16
BRANCH  12  17
ATOM     17  C   UNL     1      -3.141  -2.353  25.563  0.00  0.00    +0.103 C 
BRANCH  17  21
ATOM      2  O   UNL     1      -3.497  -1.861  23.267  0.00  0.00    -0.276 OA
ATOM      6  N   UNL     1      -1.308  -1.726  24.035  0.00  0.00    -0.298 N 
ATOM      7  N   UNL     1       1.473  -1.012  23.665  0.00  0.00    -0.312 N 
ATOM      8  N   UNL     1       3.771  -1.546  23.756  0.00  0.00    -0.240 NA
ATOM     21  C   UNL     1      -2.677  -1.958  24.183  0.00  0.00    +0.216 C 
ATOM     22  C   UNL     1      -0.780  -1.344  22.728  0.00  0.00    +0.126 C 
ATOM     23  C   UNL     1      -0.336  -1.830  25.125  0.00  0.00    +0.126 C 
ATOM     24  C   UNL     1       0.418  -0.404  22.849  0.00  0.00    +0.125 C 
ATOM     25  C   UNL     1       1.092  -2.051  24.626  0.00  0.00    +0.125 C 
ATOM     27  C   UNL     1       2.803  -0.637  23.502  0.00  0.00    +0.121 A 
ATOM     29  C   UNL     1       3.049   0.663  23.087  0.00  0.00    +0.043 A 
ATOM     32  C   UNL     1       4.373   1.053  22.920  0.00  0.00    +0.005 A 
ATOM     33  C   UNL     1       5.046  -1.129  23.583  0.00  0.00    +0.113 A 
ATOM     36  C   UNL     1       5.396   0.147  23.171  0.00  0.00    +0.020 A 
ENDBRANCH  17  21
ENDBRANCH  12  17
TORSDOF 8
ENDMDL
MODEL 9
REMARK VINA RESULT:      10.1      1.380      2.289
REMARK  Name = 38028891
REMARK  11 active torsions:
REMARK  status: ('A' for Active; 'I' for Inactive)
REMARK    1  A    between atoms: S_1  and  N_5
REMARK    2  A    between atoms: S_1  and  C_26
REMARK    3  A    between atoms: N_5  and  C_16
REMARK    4  A    between atoms: C_9  and  C_13
REMARK    5  A    between atoms: C_10  and  C_16
REMARK    6  A    between atoms: C_12  and  C_17
REMARK    7  A    between atoms: C_13  and  C_18
REMARK    8  A    between atoms: C_13  and  C_19
REMARK    9  A    between atoms: C_14  and  C_20
REMARK   10  A    between atoms: C_17  and  C_21
REMARK   11  A    between atoms: C_26  and  C_28
REMARK                            x       y       z     vdW  Elec       q    Type
REMARK                         _______ _______ _______ _____ _____    ______ ____
ROOT
ATOM      9  C   UNL     1      -3.974   0.743  24.626  0.00  0.00    +0.000 C 
ATOM     10  C   UNL     1      -2.721   1.555  25.035  0.00  0.00    +0.030 C 
ATOM     11  C   UNL     1      -4.477  -0.101  25.807  0.00  0.00    +0.012 C 
ATOM     12  C   UNL     1      -3.405  -1.081  26.320  0.00  0.00    +0.023 C 
ATOM     14  C   UNL     1      -2.060  -0.405  26.495  0.00  0.00    -0.073 C 
ATOM     15  C   UNL     1      -1.777   0.779  25.923  0.00  0.00    -0.023 C 
ATOM     20  C   UNL     1      -1.063  -1.101  27.379  0.00  0.00    +0.039 C 
ENDROOT
BRANCH   9  13
ATOM     13  C   UNL     1      -5.100   1.650  24.120  0.00  0.00    -0.013 C 
ATOM     18  C   UNL     1      -6.344   1.490  24.988  0.00  0.00    +0.007 C 
ATOM     19  C   UNL     1      -4.641   3.105  24.097  0.00  0.00    +0.007 C 
ENDBRANCH   9  13
BRANCH  10  16
ATOM     16  C   UNL     1      -1.962   2.061  23.803  0.00  0.00    +0.113 C 
BRANCH  16   5
ATOM      5  N   UNL     1      -1.628   3.482  23.994  0.00  0.00    -0.194 NA
ATOM     38  H   UNL     1      -1.293   3.948  23.140  0.00  0.00    +0.148 HD
BRANCH   5   1
ATOM      1  S   UNL     1      -0.875   3.974  25.446  0.00  0.00    +0.033 S 
ATOM      3  O   UNL     1      -1.816   3.882  26.544  0.00  0.00    -0.158 OA
ATOM      4  O   UNL     1      -0.148   5.204  25.194  0.00  0.00    -0.158 OA
BRANCH   1  26
ATOM     26  C   UNL     1       0.327   2.679  25.645  0.00  0.00    +0.220 C 
BRANCH  26  28
ATOM     28  C   UNL     1       0.802   2.711  27.065  0.00  0.00    -0.025 A 
ATOM     30  C   UNL     1       2.114   3.089  27.352  0.00  0.00    +0.005 A 
ATOM     31  C   UNL     1      -0.066   2.363  28.099  0.00  0.00    +0.005 A 
ATOM     34  C   UNL     1       2.557   3.119  28.675  0.00  0.00    +0.000 A 
ATOM     35  C   UNL     1       0.377   2.393  29.422  0.00  0.00    +0.000 A 
ATOM     37  C   UNL     1       1.690   2.771  29.709  0.00  0.00    +0.000 A 
ENDBRANCH  26  28
ENDBRANCH   1  26
ENDBRANCH   5   1
ENDBRANCH  16   5
ENDBRANCH  10  16
BRANCH  12  17
ATOM     17  C   UNL     1      -3.290  -2.303  25.403  0.00  0.00    +0.103 C 
BRANCH  17  21
ATOM      2  O   UNL     1      -3.608  -1.760  23.113  0.00  0.00    -0.276 OA
ATOM      6  N   UNL     1      -1.432  -1.644  23.921  0.00  0.00    -0.298 N 
ATOM      7  N   UNL     1       1.355  -0.926  23.614  0.00  0.00    -0.312 N 
ATOM      8  N   UNL     1       3.652  -1.463  23.731  0.00  0.00    -0.240 NA
ATOM     21  C   UNL     1      -2.803  -1.878  24.040  0.00  0.00    +0.216 C 
ATOM     22  C   UNL     1      -0.882  -1.234  22.631  0.00  0.00    +0.126 C 
ATOM     23  C   UNL     1      -0.479  -1.773  25.024  0.00  0.00    +0.126 C 
ATOM     24  C   UNL     1       0.315  -0.298  22.794  0.00  0.00    +0.125 C 
ATOM     25  C   UNL     1       0.957  -1.985  24.545  0.00  0.00    +0.125 C 
ATOM     27  C   UNL     1       2.689  -0.548  23.481  0.00  0.00    +0.121 A 
ATOM     29  C   UNL     1       2.942   0.761  23.099  0.00  0.00    +0.043 A 
ATOM     32  C   UNL     1       4.270   1.153  22.963  0.00  0.00    +0.005 A 
ATOM     33  C   UNL     1       4.930  -1.045  23.588  0.00  0.00    +0.113 A 
ATOM     36  C   UNL     1       5.287   0.240  23.211  0.00  0.00    +0.020 A 
ENDBRANCH  17  21
ENDBRANCH  12  17
TORSDOF 8
ENDMDL
MODEL 10
REMARK VINA RESULT:      10.3      2.397      4.971
REMARK  Name = 38028891
REMARK  11 active torsions:
REMARK  status: ('A' for Active; 'I' for Inactive)
REMARK    1  A    between atoms: S_1  and  N_5
REMARK    2  A    between atoms: S_1  and  C_26
REMARK    3  A    between atoms: N_5  and  C_16
REMARK    4  A    between atoms: C_9  and  C_13
REMARK    5  A    between atoms: C_10  and  C_16
REMARK    6  A    between atoms: C_12  and  C_17
REMARK    7  A    between atoms: C_13  and  C_18
REMARK    8  A    between atoms: C_13  and  C_19
REMARK    9  A    between atoms: C_14  and  C_20
REMARK   10  A    between atoms: C_17  and  C_21
REMARK   11  A    between atoms: C_26  and  C_28
REMARK                            x       y       z     vdW  Elec       q    Type
REMARK                         _______ _______ _______ _____ _____    ______ ____
ROOT
ATOM      9  C   UNL     1      -4.694   2.592  25.298  0.00  0.00    +0.000 C 
ATOM     10  C   UNL     1      -4.308   2.335  23.820  0.00  0.00    +0.030 C 
ATOM     11  C   UNL     1      -5.302   3.995  25.457  0.00  0.00    +0.012 C 
ATOM     12  C   UNL     1      -4.333   5.103  25.004  0.00  0.00    +0.023 C 
ATOM     14  C   UNL     1      -3.702   4.788  23.662  0.00  0.00    -0.073 C 
ATOM     15  C   UNL     1      -3.712   3.547  23.144  0.00  0.00    -0.023 C 
ATOM     20  C   UNL     1      -3.098   5.941  22.911  0.00  0.00    +0.039 C 
ENDROOT
BRANCH   9  13
ATOM     13  C   UNL     1      -5.675   1.540  25.821  0.00  0.00    -0.013 C 
ATOM     18  C   UNL     1      -6.154   1.907  27.222  0.00  0.00    +0.007 C 
ATOM     19  C   UNL     1      -6.857   1.393  24.868  0.00  0.00    +0.007 C 
ENDBRANCH   9  13
BRANCH  10  16
ATOM     16  C   UNL     1      -3.338   1.154  23.699  0.00  0.00    +0.113 C 
BRANCH  16   5
ATOM      5  N   UNL     1      -4.013   0.046  23.005  0.00  0.00    -0.194 NA
ATOM     38  H   UNL     1      -4.656   0.351  22.263  0.00  0.00    +0.148 HD
BRANCH   5   1
ATOM      1  S   UNL     1      -4.521  -1.316  23.904  0.00  0.00    +0.033 S 
ATOM      3  O   UNL     1      -3.919  -2.516  23.359  0.00  0.00    -0.158 OA
ATOM      4  O   UNL     1      -5.955  -1.230  24.102  0.00  0.00    -0.158 OA
BRANCH   1  26
ATOM     26  C   UNL     1      -3.748  -0.979  25.470  0.00  0.00    +0.220 C 
BRANCH  26  28
ATOM     28  C   UNL     1      -2.357  -1.532  25.421  0.00  0.00    -0.025 A 
ATOM     30  C   UNL     1      -1.442  -1.207  26.422  0.00  0.00    +0.005 A 
ATOM     31  C   UNL     1      -1.977  -2.371  24.373  0.00  0.00    +0.005 A 
ATOM     34  C   UNL     1      -0.146  -1.722  26.376  0.00  0.00    +0.000 A 
ATOM     35  C   UNL     1      -0.681  -2.886  24.328  0.00  0.00    +0.000 A 
ATOM     37  C   UNL     1       0.234  -2.561  25.330  0.00  0.00    +0.000 A 
ENDBRANCH  26  28
ENDBRANCH   1  26
ENDBRANCH   5   1
ENDBRANCH  16   5
ENDBRANCH  10  16
BRANCH  12  17
ATOM     17  C   UNL     1      -3.261   5.368  26.066  0.00  0.00    +0.103 C 
BRANCH  17  21
ATOM      2  O   UNL     1      -3.245   3.576  27.624  0.00  0.00    -0.276 OA
ATOM      6  N   UNL     1      -1.690   3.474  25.900  0.00  0.00    -0.298 N 
ATOM      7  N   UNL     1       0.340   2.065  24.392  0.00  0.00    -0.312 N 
ATOM      8  N   UNL     1       2.489   1.959  23.420  0.00  0.00    -0.240 NA
ATOM     21  C   UNL     1      -2.741   4.060  26.608  0.00  0.00    +0.216 C 
ATOM     22  C   UNL     1      -1.128   2.208  26.364  0.00  0.00    +0.126 C 
ATOM     23  C   UNL     1      -1.099   4.044  24.688  0.00  0.00    +0.126 C 
ATOM     24  C   UNL     1      -0.641   1.341  25.204  0.00  0.00    +0.125 C 
ATOM     25  C   UNL     1       0.316   3.530  24.421  0.00  0.00    +0.125 C 
ATOM     27  C   UNL     1       1.290   1.376  23.643  0.00  0.00    +0.121 A 
ATOM     29  C   UNL     1       0.937   0.122  23.169  0.00  0.00    +0.043 A 
ATOM     32  C   UNL     1       1.876  -0.579  22.420  0.00  0.00    +0.005 A 
ATOM     33  C   UNL     1       3.375   1.248  22.686  0.00  0.00    +0.113 A 
ATOM     36  C   UNL     1       3.119  -0.012  22.169  0.00  0.00    +0.020 A 
ENDBRANCH  17  21
ENDBRANCH  12  17
TORSDOF 8
ENDMDL
