MODEL 1
REMARK VINA RESULT:       4.5      0.000      0.000
REMARK  Name = 51138092
REMARK  10 active torsions:
REMARK  status: ('A' for Active; 'I' for Inactive)
REMARK    1  A    between atoms: N_4  and  C_21
REMARK    2  A    between atoms: N_5  and  C_26
REMARK    3  A    between atoms: N_6  and  C_29
REMARK    4  A    between atoms: C_8  and  C_13
REMARK    5  A    between atoms: C_11  and  C_19
REMARK    6  A    between atoms: C_13  and  C_16
REMARK    7  A    between atoms: C_16  and  C_23
REMARK    8  A    between atoms: C_16  and  C_24
REMARK    9  A    between atoms: C_21  and  C_25
REMARK   10  A    between atoms: C_26  and  C_28
REMARK                            x       y       z     vdW  Elec       q    Type
REMARK                         _______ _______ _______ _____ _____    ______ ____
ROOT
ATOM      3  N   UNL     1       0.055  -0.822  23.395  0.00  0.00    -0.299 NA
ATOM      4  N   UNL     1      -2.360   2.976  25.686  0.00  0.00    -0.339 N 
ATOM      8  C   UNL     1      -1.379  -1.113  23.247  0.00  0.00    +0.085 C 
ATOM      9  C   UNL     1      -2.331  -0.197  24.021  0.00  0.00    -0.021 A 
ATOM     10  C   UNL     1      -1.984   1.071  24.571  0.00  0.00    +0.008 A 
ATOM     11  C   UNL     1       0.467   0.474  22.877  0.00  0.00    +0.145 C 
ATOM     12  C   UNL     1      -0.781   1.858  24.590  0.00  0.00    -0.020 A 
ATOM     14  C   UNL     1       0.542   1.524  23.984  0.00  0.00    +0.065 C 
ATOM     15  C   UNL     1      -2.956   1.818  25.247  0.00  0.00    +0.050 A 
ATOM     17  C   UNL     1      -1.055   3.013  25.292  0.00  0.00    +0.091 A 
ATOM     18  C   UNL     1      -3.690  -0.582  24.147  0.00  0.00    +0.006 A 
ATOM     20  C   UNL     1      -4.279   1.400  25.400  0.00  0.00    +0.026 A 
ATOM     22  C   UNL     1      -4.634   0.186  24.825  0.00  0.00    +0.002 A 
ATOM     34  H   UNL     1       0.352  -0.944  24.362  0.00  0.00    +0.123 HD
ENDROOT
BRANCH  11  19
ATOM      1  O   UNL     1       2.073  -0.635  21.502  0.00  0.00    -0.274 OA
ATOM      5  N   UNL     1       2.768   1.138  22.843  0.00  0.00    -0.307 N 
ATOM     19  C   UNL     1       1.840   0.254  22.318  0.00  0.00    +0.231 C 
ATOM     35  H   UNL     1       2.469   1.851  23.501  0.00  0.00    +0.149 HD
BRANCH   5  26
ATOM     26  C   UNL     1       4.168   1.121  22.483  0.00  0.00    +0.178 C 
BRANCH  26  28
ATOM      2  O   UNL     1       4.354  -1.096  23.462  0.00  0.00    -0.466 OA
ATOM     28  C   UNL     1       4.943   0.116  23.287  0.00  0.00    +0.122 A 
ATOM     31  C   UNL     1       6.168   0.154  23.911  0.00  0.00    +0.046 A 
ATOM     32  C   UNL     1       6.344  -1.117  24.508  0.00  0.00    +0.041 A 
ATOM     33  C   UNL     1       5.214  -1.840  24.207  0.00  0.00    +0.195 A 
ENDBRANCH  26  28
ENDBRANCH   5  26
ENDBRANCH  11  19
BRANCH   8  13
ATOM     13  C   UNL     1      -1.519  -2.591  23.655  0.00  0.00    +0.026 C 
BRANCH  13  16
ATOM     16  C   UNL     1      -1.451  -2.801  25.170  0.00  0.00    -0.015 C 
ATOM     23  C   UNL     1      -0.651  -1.709  25.882  0.00  0.00    +0.007 C 
ATOM     24  C   UNL     1      -2.873  -2.853  25.736  0.00  0.00    +0.007 C 
ENDBRANCH  13  16
ENDBRANCH   8  13
BRANCH   4  21
ATOM     21  C   UNL     1      -3.012   4.026  26.440  0.00  0.00    +0.196 C 
BRANCH  21  25
ATOM      6  N   UNL     1      -4.796   4.825  24.851  0.00  0.00    -0.336 N 
ATOM      7  N   UNL     1      -5.508   3.916  26.748  0.00  0.00    -0.239 NA
ATOM     25  C   UNL     1      -4.450   4.244  26.039  0.00  0.00    +0.129 A 
ATOM     27  C   UNL     1      -6.160   4.872  24.799  0.00  0.00    +0.106 A 
ATOM     29  C   UNL     1      -3.898   5.307  23.828  0.00  0.00    +0.150 C 
ATOM     30  C   UNL     1      -6.577   4.306  25.981  0.00  0.00    +0.130 A 
ENDBRANCH  21  25
ENDBRANCH   4  21
TORSDOF 7
ENDMDL
MODEL 2
REMARK VINA RESULT:       7.3      2.611      8.254
REMARK  Name = 51138092
REMARK  10 active torsions:
REMARK  status: ('A' for Active; 'I' for Inactive)
REMARK    1  A    between atoms: N_4  and  C_21
REMARK    2  A    between atoms: N_5  and  C_26
REMARK    3  A    between atoms: N_6  and  C_29
REMARK    4  A    between atoms: C_8  and  C_13
REMARK    5  A    between atoms: C_11  and  C_19
REMARK    6  A    between atoms: C_13  and  C_16
REMARK    7  A    between atoms: C_16  and  C_23
REMARK    8  A    between atoms: C_16  and  C_24
REMARK    9  A    between atoms: C_21  and  C_25
REMARK   10  A    between atoms: C_26  and  C_28
REMARK                            x       y       z     vdW  Elec       q    Type
REMARK                         _______ _______ _______ _____ _____    ______ ____
ROOT
ATOM      3  N   UNL     1      -2.493   1.122  25.232  0.00  0.00    -0.299 NA
ATOM      4  N   UNL     1       1.936   0.024  23.067  0.00  0.00    -0.339 N 
ATOM      8  C   UNL     1      -2.027  -0.113  25.880  0.00  0.00    +0.085 C 
ATOM      9  C   UNL     1      -0.782  -0.761  25.269  0.00  0.00    -0.021 A 
ATOM     10  C   UNL     1       0.129  -0.114  24.383  0.00  0.00    +0.008 A 
ATOM     11  C   UNL     1      -1.560   2.237  25.310  0.00  0.00    +0.145 C 
ATOM     12  C   UNL     1       0.211   1.208  23.823  0.00  0.00    -0.020 A 
ATOM     14  C   UNL     1      -0.719   2.355  24.040  0.00  0.00    +0.065 C 
ATOM     15  C   UNL     1       1.241  -0.816  23.905  0.00  0.00    +0.050 A 
ATOM     17  C   UNL     1       1.329   1.244  23.016  0.00  0.00    +0.091 A 
ATOM     18  C   UNL     1      -0.443  -2.081  25.659  0.00  0.00    +0.006 A 
ATOM     20  C   UNL     1       1.532  -2.133  24.264  0.00  0.00    +0.026 A 
ATOM     22  C   UNL     1       0.675  -2.752  25.165  0.00  0.00    +0.002 A 
ATOM     34  H   UNL     1      -2.774   0.943  24.270  0.00  0.00    +0.123 HD
ENDROOT
BRANCH  11  19
ATOM      1  O   UNL     1      -2.540   4.051  26.514  0.00  0.00    -0.274 OA
ATOM      5  N   UNL     1      -3.043   3.793  24.255  0.00  0.00    -0.307 N 
ATOM     19  C   UNL     1      -2.418   3.458  25.444  0.00  0.00    +0.231 C 
ATOM     35  H   UNL     1      -2.861   3.246  23.418  0.00  0.00    +0.149 HD
BRANCH   5  26
ATOM     26  C   UNL     1      -3.942   4.917  24.123  0.00  0.00    +0.178 C 
BRANCH  26  28
ATOM      2  O   UNL     1      -5.472   3.460  25.324  0.00  0.00    -0.466 OA
ATOM     28  C   UNL     1      -5.199   4.729  24.923  0.00  0.00    +0.122 A 
ATOM     31  C   UNL     1      -6.175   5.595  25.358  0.00  0.00    +0.046 A 
ATOM     32  C   UNL     1      -7.109   4.807  26.072  0.00  0.00    +0.041 A 
ATOM     33  C   UNL     1      -6.636   3.516  26.023  0.00  0.00    +0.195 A 
ENDBRANCH  26  28
ENDBRANCH   5  26
ENDBRANCH  11  19
BRANCH   8  13
ATOM     13  C   UNL     1      -3.250  -1.048  25.858  0.00  0.00    +0.026 C 
BRANCH  13  16
ATOM     16  C   UNL     1      -3.472  -1.709  24.494  0.00  0.00    -0.015 C 
ATOM     23  C   UNL     1      -3.608  -3.229  24.590  0.00  0.00    +0.007 C 
ATOM     24  C   UNL     1      -4.727  -1.117  23.846  0.00  0.00    +0.007 C 
ENDBRANCH  13  16
ENDBRANCH   8  13
BRANCH   4  21
ATOM     21  C   UNL     1       3.148  -0.312  22.352  0.00  0.00    +0.196 C 
BRANCH  21  25
ATOM      6  N   UNL     1       5.080  -1.033  23.799  0.00  0.00    -0.336 N 
ATOM      7  N   UNL     1       4.982   1.128  23.301  0.00  0.00    -0.239 NA
ATOM     25  C   UNL     1       4.403  -0.042  23.145  0.00  0.00    +0.129 A 
ATOM     27  C   UNL     1       6.158  -0.460  24.411  0.00  0.00    +0.106 A 
ATOM     29  C   UNL     1       4.734  -2.435  23.845  0.00  0.00    +0.150 C 
ATOM     30  C   UNL     1       6.076   0.875  24.090  0.00  0.00    +0.130 A 
ENDBRANCH  21  25
ENDBRANCH   4  21
TORSDOF 7
ENDMDL
