MODEL 1
REMARK VINA RESULT:      -5.5      0.000      0.000
REMARK  Name = 71693012
REMARK  8 active torsions:
REMARK  status: ('A' for Active; 'I' for Inactive)
REMARK    1  A    between atoms: N_1  and  C_13
REMARK    2  A    between atoms: C_5  and  C_9
REMARK    3  A    between atoms: C_7  and  C_13
REMARK    4  A    between atoms: C_8  and  C_12
REMARK    5  A    between atoms: C_9  and  C_14
REMARK    6  A    between atoms: C_9  and  C_15
REMARK    7  A    between atoms: C_10  and  C_16
REMARK    8  A    between atoms: C_12  and  C_17
REMARK                            x       y       z     vdW  Elec       q    Type
REMARK                         _______ _______ _______ _____ _____    ______ ____
ROOT
ATOM      5  C   UNL     1      -3.150   0.419  24.708  0.00  0.00    +0.000 C 
ATOM      6  C   UNL     1      -1.739   0.326  25.307  0.00  0.00    +0.012 C 
ATOM      7  C   UNL     1      -3.837   1.739  25.142  0.00  0.00    +0.029 C 
ATOM      8  C   UNL     1      -0.845   1.505  24.879  0.00  0.00    +0.022 C 
ATOM     10  C   UNL     1      -1.557   2.835  25.026  0.00  0.00    -0.073 C 
ATOM     11  C   UNL     1      -2.893   2.918  25.156  0.00  0.00    -0.023 C 
ATOM     16  C   UNL     1      -0.693   4.064  25.068  0.00  0.00    +0.039 C 
ENDROOT
BRANCH   5   9
ATOM      9  C   UNL     1      -3.970  -0.809  25.117  0.00  0.00    -0.013 C 
ATOM     14  C   UNL     1      -4.240  -1.696  23.905  0.00  0.00    +0.007 C 
ATOM     15  C   UNL     1      -3.247  -1.591  26.209  0.00  0.00    +0.007 C 
ENDBRANCH   5   9
BRANCH   8  12
ATOM     12  C   UNL     1      -0.330   1.316  23.448  0.00  0.00    +0.082 C 
BRANCH  12  17
ATOM      2  N   UNL     1       2.149   1.565  23.210  0.00  0.00    -0.341 N 
ATOM      3  N   UNL     1       1.413  -0.495  23.632  0.00  0.00    -0.213 NA
ATOM      4  N   UNL     1       3.581  -1.585  23.654  0.00  0.00    -0.234 NA
ATOM     17  C   UNL     1       1.065   0.759  23.437  0.00  0.00    +0.110 A 
ATOM     18  C   UNL     1       3.267   0.777  23.262  0.00  0.00    +0.085 A 
ATOM     19  C   UNL     1       2.781  -0.498  23.525  0.00  0.00    +0.178 A 
ATOM     20  C   UNL     1       4.625   1.031  23.110  0.00  0.00    +0.031 A 
ATOM     21  C   UNL     1       5.461  -0.076  23.241  0.00  0.00    +0.022 A 
ATOM     22  C   UNL     1       4.901  -1.321  23.504  0.00  0.00    +0.113 A 
ATOM     25  H   UNL     1       2.128   2.560  23.033  0.00  0.00    +0.167 HD
ENDBRANCH  12  17
ENDBRANCH   8  12
BRANCH   7  13
ATOM     13  C   UNL     1      -5.039   2.058  24.246  0.00  0.00    +0.085 C 
BRANCH  13   1
ATOM      1  N   UNL     1      -6.274   2.023  25.013  0.00  0.00    -0.329 NA
ATOM     23  H   UNL     1      -7.013   1.573  24.475  0.00  0.00    +0.118 HD
ATOM     24  H   UNL     1      -6.592   2.975  25.184  0.00  0.00    +0.118 HD
ENDBRANCH  13   1
ENDBRANCH   7  13
TORSDOF 5
ENDMDL
MODEL 2
REMARK VINA RESULT:      -4.4      2.057      7.184
REMARK  Name = 71693012
REMARK  8 active torsions:
REMARK  status: ('A' for Active; 'I' for Inactive)
REMARK    1  A    between atoms: N_1  and  C_13
REMARK    2  A    between atoms: C_5  and  C_9
REMARK    3  A    between atoms: C_7  and  C_13
REMARK    4  A    between atoms: C_8  and  C_12
REMARK    5  A    between atoms: C_9  and  C_14
REMARK    6  A    between atoms: C_9  and  C_15
REMARK    7  A    between atoms: C_10  and  C_16
REMARK    8  A    between atoms: C_12  and  C_17
REMARK                            x       y       z     vdW  Elec       q    Type
REMARK                         _______ _______ _______ _____ _____    ______ ____
ROOT
ATOM      5  C   UNL     1      -0.709   0.796  24.506  0.00  0.00    +0.000 C 
ATOM      6  C   UNL     1      -1.652   0.276  25.600  0.00  0.00    +0.012 C 
ATOM      7  C   UNL     1       0.315  -0.298  24.109  0.00  0.00    +0.029 C 
ATOM      8  C   UNL     1      -2.427  -0.978  25.155  0.00  0.00    +0.022 C 
ATOM     10  C   UNL     1      -1.517  -2.000  24.504  0.00  0.00    -0.073 C 
ATOM     11  C   UNL     1      -0.290  -1.681  24.055  0.00  0.00    -0.023 C 
ATOM     16  C   UNL     1      -2.032  -3.410  24.422  0.00  0.00    +0.039 C 
ENDROOT
BRANCH   5   9
ATOM      9  C   UNL     1      -0.016   2.077  24.982  0.00  0.00    -0.013 C 
ATOM     14  C   UNL     1      -0.480   3.272  24.155  0.00  0.00    +0.007 C 
ATOM     15  C   UNL     1      -0.287   2.307  26.466  0.00  0.00    +0.007 C 
ENDBRANCH   5   9
BRANCH   8  12
ATOM     12  C   UNL     1      -3.588  -0.609  24.226  0.00  0.00    +0.082 C 
BRANCH  12  17
ATOM      2  N   UNL     1      -3.640   1.873  23.910  0.00  0.00    -0.341 N 
ATOM      3  N   UNL     1      -5.078   1.050  25.399  0.00  0.00    -0.213 NA
ATOM      4  N   UNL     1      -6.079   3.165  26.044  0.00  0.00    -0.234 NA
ATOM     17  C   UNL     1      -4.127   0.758  24.538  0.00  0.00    +0.110 A 
ATOM     18  C   UNL     1      -4.321   2.953  24.401  0.00  0.00    +0.085 A 
ATOM     19  C   UNL     1      -5.209   2.414  25.325  0.00  0.00    +0.178 A 
ATOM     20  C   UNL     1      -4.264   4.319  24.146  0.00  0.00    +0.031 A 
ATOM     21  C   UNL     1      -5.152   5.104  24.876  0.00  0.00    +0.022 A 
ATOM     22  C   UNL     1      -6.010   4.493  25.783  0.00  0.00    +0.113 A 
ATOM     25  H   UNL     1      -2.907   1.895  23.214  0.00  0.00    +0.167 HD
ENDBRANCH  12  17
ENDBRANCH   8  12
BRANCH   7  13
ATOM     13  C   UNL     1       0.976   0.024  22.764  0.00  0.00    +0.085 C 
BRANCH  13   1
ATOM      1  N   UNL     1       2.349   0.459  22.957  0.00  0.00    -0.329 NA
ATOM     23  H   UNL     1       2.377   1.302  23.528  0.00  0.00    +0.118 HD
ATOM     24  H   UNL     1       2.751   0.716  22.057  0.00  0.00    +0.118 HD
ENDBRANCH  13   1
ENDBRANCH   7  13
TORSDOF 5
ENDMDL
MODEL 3
REMARK VINA RESULT:      -4.1      2.224      3.422
REMARK  Name = 71693012
REMARK  8 active torsions:
REMARK  status: ('A' for Active; 'I' for Inactive)
REMARK    1  A    between atoms: N_1  and  C_13
REMARK    2  A    between atoms: C_5  and  C_9
REMARK    3  A    between atoms: C_7  and  C_13
REMARK    4  A    between atoms: C_8  and  C_12
REMARK    5  A    between atoms: C_9  and  C_14
REMARK    6  A    between atoms: C_9  and  C_15
REMARK    7  A    between atoms: C_10  and  C_16
REMARK    8  A    between atoms: C_12  and  C_17
REMARK                            x       y       z     vdW  Elec       q    Type
REMARK                         _______ _______ _______ _____ _____    ______ ____
ROOT
ATOM      5  C   UNL     1      -3.771   2.086  24.829  0.00  0.00    +0.000 C 
ATOM      6  C   UNL     1      -3.871   3.111  25.968  0.00  0.00    +0.012 C 
ATOM      7  C   UNL     1      -3.529   2.803  23.476  0.00  0.00    +0.029 C 
ATOM      8  C   UNL     1      -2.599   3.970  26.093  0.00  0.00    +0.022 C 
ATOM     10  C   UNL     1      -2.141   4.496  24.748  0.00  0.00    -0.073 C 
ATOM     11  C   UNL     1      -2.578   3.971  23.589  0.00  0.00    -0.023 C 
ATOM     16  C   UNL     1      -1.204   5.671  24.764  0.00  0.00    +0.039 C 
ENDROOT
BRANCH   5   9
ATOM      9  C   UNL     1      -5.036   1.222  24.795  0.00  0.00    -0.013 C 
ATOM     14  C   UNL     1      -4.683  -0.247  25.007  0.00  0.00    +0.007 C 
ATOM     15  C   UNL     1      -6.033   1.697  25.847  0.00  0.00    +0.007 C 
ENDBRANCH   5   9
BRANCH   8  12
ATOM     12  C   UNL     1      -1.475   3.194  26.789  0.00  0.00    +0.082 C 
BRANCH  12  17
ATOM      2  N   UNL     1      -1.157   1.074  25.499  0.00  0.00    -0.341 N 
ATOM      3  N   UNL     1       0.387   2.649  25.182  0.00  0.00    -0.213 NA
ATOM      4  N   UNL     1       1.746   1.416  23.593  0.00  0.00    -0.234 NA
ATOM     17  C   UNL     1      -0.721   2.332  25.818  0.00  0.00    +0.110 A 
ATOM     18  C   UNL     1      -0.270   0.546  24.600  0.00  0.00    +0.085 A 
ATOM     19  C   UNL     1       0.679   1.545  24.421  0.00  0.00    +0.178 A 
ATOM     20  C   UNL     1      -0.192  -0.672  23.934  0.00  0.00    +0.031 A 
ATOM     21  C   UNL     1       0.898  -0.820  23.079  0.00  0.00    +0.022 A 
ATOM     22  C   UNL     1       1.807   0.224  22.952  0.00  0.00    +0.113 A 
ATOM     25  H   UNL     1      -1.981   0.616  25.864  0.00  0.00    +0.167 HD
ENDBRANCH  12  17
ENDBRANCH   8  12
BRANCH   7  13
ATOM     13  C   UNL     1      -3.012   1.824  22.416  0.00  0.00    +0.085 C 
BRANCH  13   1
ATOM      1  N   UNL     1      -2.523   2.542  21.250  0.00  0.00    -0.329 NA
ATOM     23  H   UNL     1      -3.258   2.625  20.549  0.00  0.00    +0.118 HD
ATOM     24  H   UNL     1      -1.777   2.004  20.811  0.00  0.00    +0.118 HD
ENDBRANCH  13   1
ENDBRANCH   7  13
TORSDOF 5
ENDMDL
MODEL 4
REMARK VINA RESULT:      -4.1      2.696      5.776
REMARK  Name = 71693012
REMARK  8 active torsions:
REMARK  status: ('A' for Active; 'I' for Inactive)
REMARK    1  A    between atoms: N_1  and  C_13
REMARK    2  A    between atoms: C_5  and  C_9
REMARK    3  A    between atoms: C_7  and  C_13
REMARK    4  A    between atoms: C_8  and  C_12
REMARK    5  A    between atoms: C_9  and  C_14
REMARK    6  A    between atoms: C_9  and  C_15
REMARK    7  A    between atoms: C_10  and  C_16
REMARK    8  A    between atoms: C_12  and  C_17
REMARK                            x       y       z     vdW  Elec       q    Type
REMARK                         _______ _______ _______ _____ _____    ______ ____
ROOT
ATOM      5  C   UNL     1      -1.123   1.641  24.308  0.00  0.00    +0.000 C 
ATOM      6  C   UNL     1      -1.848   2.456  23.228  0.00  0.00    +0.012 C 
ATOM      7  C   UNL     1      -0.271   2.572  25.208  0.00  0.00    +0.029 C 
ATOM      8  C   UNL     1      -2.773   3.531  23.831  0.00  0.00    +0.022 C 
ATOM     10  C   UNL     1      -2.080   4.320  24.925  0.00  0.00    -0.073 C 
ATOM     11  C   UNL     1      -0.956   3.882  25.518  0.00  0.00    -0.023 C 
ATOM     16  C   UNL     1      -2.685   5.647  25.287  0.00  0.00    +0.039 C 
ENDROOT
BRANCH   5   9
ATOM      9  C   UNL     1      -0.270   0.551  23.651  0.00  0.00    -0.013 C 
ATOM     14  C   UNL     1       1.174   1.021  23.503  0.00  0.00    +0.007 C 
ATOM     15  C   UNL     1      -0.338  -0.739  24.462  0.00  0.00    +0.007 C 
ENDBRANCH   5   9
BRANCH   8  12
ATOM     12  C   UNL     1      -4.077   2.912  24.345  0.00  0.00    +0.082 C 
BRANCH  12  17
ATOM      2  N   UNL     1      -4.191   0.541  23.553  0.00  0.00    -0.341 N 
ATOM      3  N   UNL     1      -3.565   0.832  25.671  0.00  0.00    -0.213 NA
ATOM      4  N   UNL     1      -3.276  -1.515  26.220  0.00  0.00    -0.234 NA
ATOM     17  C   UNL     1      -3.934   1.432  24.560  0.00  0.00    +0.110 A 
ATOM     18  C   UNL     1      -3.975  -0.716  24.050  0.00  0.00    +0.085 A 
ATOM     19  C   UNL     1      -3.587  -0.506  25.368  0.00  0.00    +0.178 A 
ATOM     20  C   UNL     1      -4.073  -1.991  23.505  0.00  0.00    +0.031 A 
ATOM     21  C   UNL     1      -3.756  -3.039  24.367  0.00  0.00    +0.022 A 
ATOM     22  C   UNL     1      -3.376  -2.750  25.673  0.00  0.00    +0.113 A 
ATOM     25  H   UNL     1      -4.491   0.768  22.615  0.00  0.00    +0.167 HD
ENDBRANCH  12  17
ENDBRANCH   8  12
BRANCH   7  13
ATOM     13  C   UNL     1       0.115   1.875  26.518  0.00  0.00    +0.085 C 
BRANCH  13   1
ATOM      1  N   UNL     1       1.161   2.614  27.204  0.00  0.00    -0.329 NA
ATOM     23  H   UNL     1       1.906   1.984  27.499  0.00  0.00    +0.118 HD
ATOM     24  H   UNL     1       0.783   3.020  28.058  0.00  0.00    +0.118 HD
ENDBRANCH  13   1
ENDBRANCH   7  13
TORSDOF 5
ENDMDL
MODEL 5
REMARK VINA RESULT:      -4.0      2.564      5.416
REMARK  Name = 71693012
REMARK  8 active torsions:
REMARK  status: ('A' for Active; 'I' for Inactive)
REMARK    1  A    between atoms: N_1  and  C_13
REMARK    2  A    between atoms: C_5  and  C_9
REMARK    3  A    between atoms: C_7  and  C_13
REMARK    4  A    between atoms: C_8  and  C_12
REMARK    5  A    between atoms: C_9  and  C_14
REMARK    6  A    between atoms: C_9  and  C_15
REMARK    7  A    between atoms: C_10  and  C_16
REMARK    8  A    between atoms: C_12  and  C_17
REMARK                            x       y       z     vdW  Elec       q    Type
REMARK                         _______ _______ _______ _____ _____    ______ ____
ROOT
ATOM      5  C   UNL     1      -2.012   3.249  24.913  0.00  0.00    +0.000 C 
ATOM      6  C   UNL     1      -0.575   3.255  25.454  0.00  0.00    +0.012 C 
ATOM      7  C   UNL     1      -2.019   2.926  23.397  0.00  0.00    +0.029 C 
ATOM      8  C   UNL     1       0.134   1.905  25.240  0.00  0.00    +0.022 C 
ATOM     10  C   UNL     1      -0.056   1.386  23.829  0.00  0.00    -0.073 C 
ATOM     11  C   UNL     1      -1.014   1.865  23.015  0.00  0.00    -0.023 C 
ATOM     16  C   UNL     1       0.912   0.337  23.357  0.00  0.00    +0.039 C 
ENDROOT
BRANCH   5   9
ATOM      9  C   UNL     1      -2.685   4.594  25.210  0.00  0.00    -0.013 C 
ATOM     14  C   UNL     1      -3.341   4.567  26.588  0.00  0.00    +0.007 C 
ATOM     15  C   UNL     1      -1.670   5.728  25.116  0.00  0.00    +0.007 C 
ENDBRANCH   5   9
BRANCH   8  12
ATOM     12  C   UNL     1      -0.328   0.869  26.271  0.00  0.00    +0.082 C 
BRANCH  12  17
ATOM      2  N   UNL     1      -2.541   0.166  25.337  0.00  0.00    -0.341 N 
ATOM      3  N   UNL     1      -0.950  -1.393  25.350  0.00  0.00    -0.213 NA
ATOM      4  N   UNL     1      -2.271  -3.172  24.360  0.00  0.00    -0.234 NA
ATOM     17  C   UNL     1      -1.246  -0.147  25.653  0.00  0.00    +0.110 A 
ATOM     18  C   UNL     1      -3.116  -0.952  24.796  0.00  0.00    +0.085 A 
ATOM     19  C   UNL     1      -2.105  -1.906  24.816  0.00  0.00    +0.178 A 
ATOM     20  C   UNL     1      -4.384  -1.233  24.300  0.00  0.00    +0.031 A 
ATOM     21  C   UNL     1      -4.570  -2.530  23.827  0.00  0.00    +0.022 A 
ATOM     22  C   UNL     1      -3.511  -3.429  23.880  0.00  0.00    +0.113 A 
ATOM     25  H   UNL     1      -2.993   1.059  25.481  0.00  0.00    +0.167 HD
ENDBRANCH  12  17
ENDBRANCH   8  12
BRANCH   7  13
ATOM     13  C   UNL     1      -3.415   2.501  22.927  0.00  0.00    +0.085 C 
BRANCH  13   1
ATOM      1  N   UNL     1      -4.298   2.297  24.063  0.00  0.00    -0.329 NA
ATOM     23  H   UNL     1      -3.765   2.006  24.881  0.00  0.00    +0.118 HD
ATOM     24  H   UNL     1      -4.939   1.531  23.859  0.00  0.00    +0.118 HD
ENDBRANCH  13   1
ENDBRANCH   7  13
TORSDOF 5
ENDMDL
MODEL 6
REMARK VINA RESULT:      -3.8      1.457      3.543
REMARK  Name = 71693012
REMARK  8 active torsions:
REMARK  status: ('A' for Active; 'I' for Inactive)
REMARK    1  A    between atoms: N_1  and  C_13
REMARK    2  A    between atoms: C_5  and  C_9
REMARK    3  A    between atoms: C_7  and  C_13
REMARK    4  A    between atoms: C_8  and  C_12
REMARK    5  A    between atoms: C_9  and  C_14
REMARK    6  A    between atoms: C_9  and  C_15
REMARK    7  A    between atoms: C_10  and  C_16
REMARK    8  A    between atoms: C_12  and  C_17
REMARK                            x       y       z     vdW  Elec       q    Type
REMARK                         _______ _______ _______ _____ _____    ______ ____
ROOT
ATOM      5  C   UNL     1      -3.430   2.483  25.009  0.00  0.00    +0.000 C 
ATOM      6  C   UNL     1      -2.748   1.876  23.774  0.00  0.00    +0.012 C 
ATOM      7  C   UNL     1      -4.882   1.957  25.138  0.00  0.00    +0.029 C 
ATOM      8  C   UNL     1      -2.706   0.338  23.827  0.00  0.00    +0.022 C 
ATOM     10  C   UNL     1      -4.048  -0.249  24.215  0.00  0.00    -0.073 C 
ATOM     11  C   UNL     1      -5.013   0.493  24.787  0.00  0.00    -0.023 C 
ATOM     16  C   UNL     1      -4.273  -1.698  23.887  0.00  0.00    +0.039 C 
ENDROOT
BRANCH   5   9
ATOM      9  C   UNL     1      -3.385   4.012  24.929  0.00  0.00    -0.013 C 
ATOM     14  C   UNL     1      -1.990   4.522  25.279  0.00  0.00    +0.007 C 
ATOM     15  C   UNL     1      -3.801   4.485  23.540  0.00  0.00    +0.007 C 
ENDBRANCH   5   9
BRANCH   8  12
ATOM     12  C   UNL     1      -1.601  -0.153  24.769  0.00  0.00    +0.082 C 
BRANCH  12  17
ATOM      2  N   UNL     1       0.504  -0.859  23.615  0.00  0.00    -0.341 N 
ATOM      3  N   UNL     1       0.390   1.286  24.207  0.00  0.00    -0.213 NA
ATOM      4  N   UNL     1       2.569   1.943  23.363  0.00  0.00    -0.234 NA
ATOM     17  C   UNL     1      -0.237   0.129  24.207  0.00  0.00    +0.110 A 
ATOM     18  C   UNL     1       1.685  -0.300  23.208  0.00  0.00    +0.085 A 
ATOM     19  C   UNL     1       1.588   1.033  23.588  0.00  0.00    +0.178 A 
ATOM     20  C   UNL     1       2.809  -0.801  22.560  0.00  0.00    +0.031 A 
ATOM     21  C   UNL     1       3.825   0.121  22.321  0.00  0.00    +0.022 A 
ATOM     22  C   UNL     1       3.656   1.438  22.732  0.00  0.00    +0.113 A 
ATOM     25  H   UNL     1       0.231  -1.825  23.501  0.00  0.00    +0.167 HD
ENDBRANCH  12  17
ENDBRANCH   8  12
BRANCH   7  13
ATOM     13  C   UNL     1      -5.434   2.196  26.547  0.00  0.00    +0.085 C 
BRANCH  13   1
ATOM      1  N   UNL     1      -6.869   1.965  26.582  0.00  0.00    -0.329 NA
ATOM     23  H   UNL     1      -7.238   2.163  27.511  0.00  0.00    +0.118 HD
ATOM     24  H   UNL     1      -7.056   0.978  26.412  0.00  0.00    +0.118 HD
ENDBRANCH  13   1
ENDBRANCH   7  13
TORSDOF 5
ENDMDL
MODEL 7
REMARK VINA RESULT:      -3.4      3.119      5.602
REMARK  Name = 71693012
REMARK  8 active torsions:
REMARK  status: ('A' for Active; 'I' for Inactive)
REMARK    1  A    between atoms: N_1  and  C_13
REMARK    2  A    between atoms: C_5  and  C_9
REMARK    3  A    between atoms: C_7  and  C_13
REMARK    4  A    between atoms: C_8  and  C_12
REMARK    5  A    between atoms: C_9  and  C_14
REMARK    6  A    between atoms: C_9  and  C_15
REMARK    7  A    between atoms: C_10  and  C_16
REMARK    8  A    between atoms: C_12  and  C_17
REMARK                            x       y       z     vdW  Elec       q    Type
REMARK                         _______ _______ _______ _____ _____    ______ ____
ROOT
ATOM      5  C   UNL     1      -1.963   2.309  23.975  0.00  0.00    +0.000 C 
ATOM      6  C   UNL     1      -3.285   2.995  23.598  0.00  0.00    +0.012 C 
ATOM      7  C   UNL     1      -1.002   3.320  24.650  0.00  0.00    +0.029 C 
ATOM      8  C   UNL     1      -3.997   3.600  24.823  0.00  0.00    +0.022 C 
ATOM     10  C   UNL     1      -3.044   4.398  25.691  0.00  0.00    -0.073 C 
ATOM     11  C   UNL     1      -1.709   4.269  25.590  0.00  0.00    -0.023 C 
ATOM     16  C   UNL     1      -3.660   5.381  26.646  0.00  0.00    +0.039 C 
ENDROOT
BRANCH   5   9
ATOM      9  C   UNL     1      -1.335   1.673  22.730  0.00  0.00    -0.013 C 
ATOM     14  C   UNL     1      -0.542   0.428  23.112  0.00  0.00    +0.007 C 
ATOM     15  C   UNL     1      -2.412   1.335  21.705  0.00  0.00    +0.007 C 
ENDBRANCH   5   9
BRANCH   8  12
ATOM     12  C   UNL     1      -4.707   2.517  25.641  0.00  0.00    +0.082 C 
BRANCH  12  17
ATOM      2  N   UNL     1      -4.864   0.298  24.494  0.00  0.00    -0.341 N 
ATOM      3  N   UNL     1      -3.052   0.620  25.748  0.00  0.00    -0.213 NA
ATOM      4  N   UNL     1      -2.027  -1.544  25.348  0.00  0.00    -0.234 NA
ATOM     17  C   UNL     1      -4.176   1.149  25.316  0.00  0.00    +0.110 A 
ATOM     18  C   UNL     1      -4.136  -0.856  24.391  0.00  0.00    +0.085 A 
ATOM     19  C   UNL     1      -3.014  -0.629  25.181  0.00  0.00    +0.178 A 
ATOM     20  C   UNL     1      -4.326  -2.052  23.709  0.00  0.00    +0.031 A 
ATOM     21  C   UNL     1      -3.321  -3.002  23.870  0.00  0.00    +0.022 A 
ATOM     22  C   UNL     1      -2.228  -2.703  24.676  0.00  0.00    +0.113 A 
ATOM     25  H   UNL     1      -5.752   0.485  24.047  0.00  0.00    +0.167 HD
ENDBRANCH  12  17
ENDBRANCH   8  12
BRANCH   7  13
ATOM     13  C   UNL     1       0.121   2.598  25.403  0.00  0.00    +0.085 C 
BRANCH  13   1
ATOM      1  N   UNL     1      -0.427   1.701  26.406  0.00  0.00    -0.329 NA
ATOM     23  H   UNL     1      -0.730   2.225  27.225  0.00  0.00    +0.118 HD
ATOM     24  H   UNL     1       0.305   1.070  26.731  0.00  0.00    +0.118 HD
ENDBRANCH  13   1
ENDBRANCH   7  13
TORSDOF 5
ENDMDL
MODEL 8
REMARK VINA RESULT:      -3.0      3.125      4.981
REMARK  Name = 71693012
REMARK  8 active torsions:
REMARK  status: ('A' for Active; 'I' for Inactive)
REMARK    1  A    between atoms: N_1  and  C_13
REMARK    2  A    between atoms: C_5  and  C_9
REMARK    3  A    between atoms: C_7  and  C_13
REMARK    4  A    between atoms: C_8  and  C_12
REMARK    5  A    between atoms: C_9  and  C_14
REMARK    6  A    between atoms: C_9  and  C_15
REMARK    7  A    between atoms: C_10  and  C_16
REMARK    8  A    between atoms: C_12  and  C_17
REMARK                            x       y       z     vdW  Elec       q    Type
REMARK                         _______ _______ _______ _____ _____    ______ ____
ROOT
ATOM      5  C   UNL     1      -3.375   1.069  23.833  0.00  0.00    +0.000 C 
ATOM      6  C   UNL     1      -2.482  -0.065  23.308  0.00  0.00    +0.012 C 
ATOM      7  C   UNL     1      -4.639   0.490  24.518  0.00  0.00    +0.029 C 
ATOM      8  C   UNL     1      -2.034  -1.021  24.430  0.00  0.00    +0.022 C 
ATOM     10  C   UNL     1      -3.192  -1.427  25.319  0.00  0.00    -0.073 C 
ATOM     11  C   UNL     1      -4.352  -0.748  25.335  0.00  0.00    -0.023 C 
ATOM     16  C   UNL     1      -3.001  -2.661  26.157  0.00  0.00    +0.039 C 
ENDROOT
BRANCH   5   9
ATOM      9  C   UNL     1      -3.735   2.019  22.687  0.00  0.00    -0.013 C 
ATOM     14  C   UNL     1      -4.049   3.411  23.228  0.00  0.00    +0.007 C 
ATOM     15  C   UNL     1      -2.601   2.078  21.668  0.00  0.00    +0.007 C 
ENDBRANCH   5   9
BRANCH   8  12
ATOM     12  C   UNL     1      -0.897  -0.409  25.256  0.00  0.00    +0.082 C 
BRANCH  12  17
ATOM      2  N   UNL     1      -1.721   1.883  25.828  0.00  0.00    -0.341 N 
ATOM      3  N   UNL     1      -0.058   1.787  24.349  0.00  0.00    -0.213 NA
ATOM      4  N   UNL     1       0.154   4.178  23.986  0.00  0.00    -0.234 NA
ATOM     17  C   UNL     1      -0.864   1.086  25.118  0.00  0.00    +0.110 A 
ATOM     18  C   UNL     1      -1.450   3.182  25.493  0.00  0.00    +0.085 A 
ATOM     19  C   UNL     1      -0.413   3.094  24.572  0.00  0.00    +0.178 A 
ATOM     20  C   UNL     1      -1.986   4.405  25.883  0.00  0.00    +0.031 A 
ATOM     21  C   UNL     1      -1.413   5.528  25.291  0.00  0.00    +0.022 A 
ATOM     22  C   UNL     1      -0.378   5.360  24.378  0.00  0.00    +0.113 A 
ATOM     25  H   UNL     1      -2.429   1.570  26.479  0.00  0.00    +0.167 HD
ENDBRANCH  12  17
ENDBRANCH   8  12
BRANCH   7  13
ATOM     13  C   UNL     1      -5.319   1.540  25.404  0.00  0.00    +0.085 C 
BRANCH  13   1
ATOM      1  N   UNL     1      -6.670   1.805  24.940  0.00  0.00    -0.329 NA
ATOM     23  H   UNL     1      -7.318   1.826  25.725  0.00  0.00    +0.118 HD
ATOM     24  H   UNL     1      -6.979   1.038  24.344  0.00  0.00    +0.118 HD
ENDBRANCH  13   1
ENDBRANCH   7  13
TORSDOF 5
ENDMDL
MODEL 9
REMARK VINA RESULT:      -2.9      2.562      6.561
REMARK  Name = 71693012
REMARK  8 active torsions:
REMARK  status: ('A' for Active; 'I' for Inactive)
REMARK    1  A    between atoms: N_1  and  C_13
REMARK    2  A    between atoms: C_5  and  C_9
REMARK    3  A    between atoms: C_7  and  C_13
REMARK    4  A    between atoms: C_8  and  C_12
REMARK    5  A    between atoms: C_9  and  C_14
REMARK    6  A    between atoms: C_9  and  C_15
REMARK    7  A    between atoms: C_10  and  C_16
REMARK    8  A    between atoms: C_12  and  C_17
REMARK                            x       y       z     vdW  Elec       q    Type
REMARK                         _______ _______ _______ _____ _____    ______ ____
ROOT
ATOM      5  C   UNL     1       0.420   0.379  23.446  0.00  0.00    +0.000 C 
ATOM      6  C   UNL     1       1.157   1.665  23.851  0.00  0.00    +0.012 C 
ATOM      7  C   UNL     1      -0.065  -0.386  24.704  0.00  0.00    +0.029 C 
ATOM      8  C   UNL     1       0.268   2.608  24.683  0.00  0.00    +0.022 C 
ATOM     10  C   UNL     1      -0.459   1.868  25.788  0.00  0.00    -0.073 C 
ATOM     11  C   UNL     1      -0.586   0.529  25.787  0.00  0.00    -0.023 C 
ATOM     16  C   UNL     1      -0.997   2.700  26.918  0.00  0.00    +0.039 C 
ENDROOT
BRANCH   5   9
ATOM      9  C   UNL     1       1.331  -0.487  22.570  0.00  0.00    -0.013 C 
ATOM     14  C   UNL     1       0.765  -0.594  21.157  0.00  0.00    +0.007 C 
ATOM     15  C   UNL     1       2.745   0.084  22.545  0.00  0.00    +0.007 C 
ENDBRANCH   5   9
BRANCH   8  12
ATOM     12  C   UNL     1      -0.719   3.368  23.790  0.00  0.00    +0.082 C 
BRANCH  12  17
ATOM      2  N   UNL     1      -2.773   1.952  23.997  0.00  0.00    -0.341 N 
ATOM      3  N   UNL     1      -2.913   4.003  24.855  0.00  0.00    -0.213 NA
ATOM      4  N   UNL     1      -5.204   3.840  25.640  0.00  0.00    -0.234 NA
ATOM     17  C   UNL     1      -2.138   3.143  24.229  0.00  0.00    +0.110 A 
ATOM     18  C   UNL     1      -4.039   2.053  24.506  0.00  0.00    +0.085 A 
ATOM     19  C   UNL     1      -4.099   3.338  25.034  0.00  0.00    +0.178 A 
ATOM     20  C   UNL     1      -5.120   1.181  24.565  0.00  0.00    +0.031 A 
ATOM     21  C   UNL     1      -6.262   1.682  25.186  0.00  0.00    +0.022 A 
ATOM     22  C   UNL     1      -6.247   2.978  25.690  0.00  0.00    +0.113 A 
ATOM     25  H   UNL     1      -2.380   1.146  23.530  0.00  0.00    +0.167 HD
ENDBRANCH  12  17
ENDBRANCH   8  12
BRANCH   7  13
ATOM     13  C   UNL     1      -1.141  -1.416  24.344  0.00  0.00    +0.085 C 
BRANCH  13   1
ATOM      1  N   UNL     1      -2.399  -1.093  24.996  0.00  0.00    -0.329 NA
ATOM     23  H   UNL     1      -2.432  -0.102  25.232  0.00  0.00    +0.118 HD
ATOM     24  H   UNL     1      -2.460  -1.594  25.881  0.00  0.00    +0.118 HD
ENDBRANCH  13   1
ENDBRANCH   7  13
TORSDOF 5
ENDMDL
MODEL 10
REMARK VINA RESULT:      -2.8     15.529     18.000
REMARK  Name = 71693012
REMARK  8 active torsions:
REMARK  status: ('A' for Active; 'I' for Inactive)
REMARK    1  A    between atoms: N_1  and  C_13
REMARK    2  A    between atoms: C_5  and  C_9
REMARK    3  A    between atoms: C_7  and  C_13
REMARK    4  A    between atoms: C_8  and  C_12
REMARK    5  A    between atoms: C_9  and  C_14
REMARK    6  A    between atoms: C_9  and  C_15
REMARK    7  A    between atoms: C_10  and  C_16
REMARK    8  A    between atoms: C_12  and  C_17
REMARK                            x       y       z     vdW  Elec       q    Type
REMARK                         _______ _______ _______ _____ _____    ______ ____
ROOT
ATOM      5  C   UNL     1      -5.429  -9.834  10.690  0.00  0.00    +0.000 C 
ATOM      6  C   UNL     1      -5.636 -10.781  11.881  0.00  0.00    +0.012 C 
ATOM      7  C   UNL     1      -6.562 -10.018   9.649  0.00  0.00    +0.029 C 
ATOM      8  C   UNL     1      -6.986 -10.548  12.585  0.00  0.00    +0.022 C 
ATOM     10  C   UNL     1      -8.127 -10.449  11.592  0.00  0.00    -0.073 C 
ATOM     11  C   UNL     1      -7.918 -10.226  10.283  0.00  0.00    -0.023 C 
ATOM     16  C   UNL     1      -9.514 -10.659  12.133  0.00  0.00    +0.039 C 
ENDROOT
BRANCH   5   9
ATOM      9  C   UNL     1      -4.047 -10.069  10.073  0.00  0.00    -0.013 C 
ATOM     14  C   UNL     1      -3.656  -8.896   9.180  0.00  0.00    +0.007 C 
ATOM     15  C   UNL     1      -3.006 -10.286  11.167  0.00  0.00    +0.007 C 
ENDBRANCH   5   9
BRANCH   8  12
ATOM     12  C   UNL     1      -6.934  -9.308  13.484  0.00  0.00    +0.082 C 
BRANCH  12  17
ATOM      2  N   UNL     1      -8.853  -9.153  15.082  0.00  0.00    -0.341 N 
ATOM      3  N   UNL     1      -7.037 -10.197  15.840  0.00  0.00    -0.213 NA
ATOM      4  N   UNL     1      -7.894 -10.717  18.050  0.00  0.00    -0.234 NA
ATOM     17  C   UNL     1      -7.577  -9.570  14.816  0.00  0.00    +0.110 A 
ATOM     18  C   UNL     1      -9.154  -9.534  16.362  0.00  0.00    +0.085 A 
ATOM     19  C   UNL     1      -8.007 -10.181  16.810  0.00  0.00    +0.178 A 
ATOM     20  C   UNL     1     -10.279  -9.390  17.166  0.00  0.00    +0.031 A 
ATOM     21  C   UNL     1     -10.178  -9.936  18.443  0.00  0.00    +0.022 A 
ATOM     22  C   UNL     1      -8.998 -10.568  18.820  0.00  0.00    +0.113 A 
ATOM     25  H   UNL     1      -9.462  -8.650  14.451  0.00  0.00    +0.167 HD
ENDBRANCH  12  17
ENDBRANCH   8  12
BRANCH   7  13
ATOM     13  C   UNL     1      -6.626  -8.830   8.684  0.00  0.00    +0.085 C 
BRANCH  13   1
ATOM      1  N   UNL     1      -7.952  -8.235   8.689  0.00  0.00    -0.329 NA
ATOM     23  H   UNL     1      -8.376  -8.319   9.612  0.00  0.00    +0.118 HD
ATOM     24  H   UNL     1      -8.558  -8.754   8.055  0.00  0.00    +0.118 HD
ENDBRANCH  13   1
ENDBRANCH   7  13
TORSDOF 5
ENDMDL
