MODEL 1
REMARK VINA RESULT:       6.9      0.000      0.000
REMARK  Name = 11885876
REMARK  4 active torsions:
REMARK  status: ('A' for Active; 'I' for Inactive)
REMARK    1  A    between atoms: N_7  and  C_19
REMARK    2  A    between atoms: C_18  and  C_21
REMARK    3  A    between atoms: C_24  and  C_28
REMARK    4  A    between atoms: C_33  and  C_34
REMARK                            x       y       z     vdW  Elec       q    Type
REMARK                         _______ _______ _______ _____ _____    ______ ____
ROOT
ATOM      2  O   UNL     1      -0.019   2.744  25.624  0.00  0.00    -0.266 OA
ATOM      3  O   UNL     1      -3.957  -0.163  27.301  0.00  0.00    -0.270 OA
ATOM      5  N   UNL     1      -4.770   1.220  25.598  0.00  0.00    -0.297 N 
ATOM      6  N   UNL     1      -2.145   2.731  24.655  0.00  0.00    -0.310 N 
ATOM      9  C   UNL     1      -4.220   3.633  25.857  0.00  0.00    +0.027 C 
ATOM     10  C   UNL     1      -4.435   2.663  23.605  0.00  0.00    +0.054 C 
ATOM     11  C   UNL     1      -4.746   3.897  24.451  0.00  0.00    +0.018 C 
ATOM     12  C   UNL     1      -4.902   2.392  26.462  0.00  0.00    +0.113 C 
ATOM     13  C   UNL     1      -2.695   3.480  25.794  0.00  0.00    +0.130 C 
ATOM     14  C   UNL     1      -5.157   1.436  24.194  0.00  0.00    +0.117 C 
ATOM     15  C   UNL     1      -2.941   2.399  23.554  0.00  0.00    +0.027 A 
ATOM     16  C   UNL     1      -2.393   1.818  22.474  0.00  0.00    +0.024 A 
ATOM     17  C   UNL     1      -0.763   2.456  24.685  0.00  0.00    +0.273 A 
ATOM     18  C   UNL     1      -4.283   0.024  26.130  0.00  0.00    +0.247 C 
ATOM     19  C   UNL     1      -0.197   1.782  23.474  0.00  0.00    +0.099 A 
ATOM     20  C   UNL     1      -0.992   1.503  22.436  0.00  0.00    +0.030 A 
ENDROOT
BRANCH  18  21
ATOM      1  F   UNL     1      -3.665  -4.326  22.671  0.00  0.00    -0.205 F 
ATOM     21  C   UNL     1      -4.121  -1.117  25.222  0.00  0.00    +0.037 A 
ATOM     22  C   UNL     1      -4.736  -1.101  23.973  0.00  0.00    +0.016 A 
ATOM     23  C   UNL     1      -3.353  -2.210  25.615  0.00  0.00    +0.016 A 
ATOM     25  C   UNL     1      -4.582  -2.186  23.110  0.00  0.00    +0.039 A 
ATOM     26  C   UNL     1      -3.198  -3.295  24.752  0.00  0.00    +0.039 A 
ATOM     27  C   UNL     1      -3.813  -3.284  23.500  0.00  0.00    +0.123 A 
ENDBRANCH  18  21
BRANCH  19   7
ATOM      4  O   UNL     1       0.950  -0.788  23.004  0.00  0.00    -0.270 OA
ATOM      7  N   UNL     1       1.135   1.483  23.472  0.00  0.00    -0.277 N 
ATOM     24  C   UNL     1       1.631   0.208  23.236  0.00  0.00    +0.248 C 
ATOM     35  H   UNL     1       1.744   2.223  23.803  0.00  0.00    +0.155 HD
BRANCH  24  28
ATOM     28  C   UNL     1       3.111   0.081  23.252  0.00  0.00    +0.037 A 
ATOM     29  C   UNL     1       3.673  -1.096  23.703  0.00  0.00    +0.014 A 
ATOM     30  C   UNL     1       3.876   1.142  22.816  0.00  0.00    +0.014 A 
ATOM     31  C   UNL     1       5.062  -1.215  23.720  0.00  0.00    +0.019 A 
ATOM     32  C   UNL     1       5.266   1.022  22.832  0.00  0.00    +0.019 A 
ATOM     33  C   UNL     1       5.859  -0.158  23.284  0.00  0.00    +0.052 A 
BRANCH  33  34
ATOM      8  N   UNL     1       8.440  -0.378  23.311  0.00  0.00    -0.191 NA
ATOM     34  C   UNL     1       7.282  -0.279  23.299  0.00  0.00    +0.099 C 
ENDBRANCH  33  34
ENDBRANCH  24  28
ENDBRANCH  19   7
TORSDOF 4
ENDMDL
