MODEL 1
REMARK VINA RESULT:      -3.1      0.000      0.000
REMARK  Name = 11941327
REMARK  6 active torsions:
REMARK  status: ('A' for Active; 'I' for Inactive)
REMARK    1  A    between atoms: O_3  and  C_27
REMARK    2  A    between atoms: N_4  and  C_13
REMARK    3  A    between atoms: C_13  and  C_18
REMARK    4  A    between atoms: C_16  and  C_19
REMARK    5  A    between atoms: C_21  and  C_26
REMARK    6  A    between atoms: C_22  and  C_27
REMARK                            x       y       z     vdW  Elec       q    Type
REMARK                         _______ _______ _______ _____ _____    ______ ____
ROOT
ATOM      1  O   UNL     1      15.020  -5.974  29.100  0.00  0.00    -0.267 OA
ATOM      4  N   UNL     1      13.954 -10.137  31.685  0.00  0.00    -0.294 NA
ATOM      5  N   UNL     1      15.681  -7.978  30.093  0.00  0.00    -0.311 N 
ATOM      6  C   UNL     1      14.799 -10.260  29.328  0.00  0.00    +0.024 C 
ATOM      7  C   UNL     1      16.401 -10.134  31.177  0.00  0.00    +0.050 C 
ATOM      8  C   UNL     1      16.146 -10.777  29.817  0.00  0.00    +0.017 C 
ATOM      9  C   UNL     1      13.691 -10.640  30.331  0.00  0.00    +0.090 C 
ATOM     10  C   UNL     1      15.283 -10.547  32.161  0.00  0.00    +0.094 C 
ATOM     11  C   UNL     1      14.903  -8.744  29.110  0.00  0.00    +0.130 C 
ATOM     12  C   UNL     1      16.465  -8.622  31.053  0.00  0.00    +0.026 A 
ATOM     14  C   UNL     1      17.255  -7.906  31.870  0.00  0.00    +0.022 A 
ATOM     15  C   UNL     1      15.674  -6.576  29.954  0.00  0.00    +0.259 A 
ATOM     16  C   UNL     1      16.541  -5.799  30.906  0.00  0.00    +0.047 A 
ATOM     17  C   UNL     1      17.285  -6.474  31.795  0.00  0.00    +0.015 A 
ENDROOT
BRANCH  16  19
ATOM     19  C   UNL     1      16.576  -4.326  30.878  0.00  0.00    -0.010 A 
ATOM     21  C   UNL     1      15.855  -3.561  31.799  0.00  0.00    -0.043 A 
ATOM     24  C   UNL     1      17.351  -3.688  29.906  0.00  0.00    +0.009 A 
ATOM     25  C   UNL     1      15.908  -2.169  31.747  0.00  0.00    +0.004 A 
ATOM     26  C   UNL     1      15.015  -4.206  32.854  0.00  0.00    +0.044 C 
ATOM     28  C   UNL     1      17.403  -2.295  29.855  0.00  0.00    +0.001 A 
ATOM     29  C   UNL     1      16.682  -1.536  30.776  0.00  0.00    +0.000 A 
ENDBRANCH  16  19
BRANCH   4  13
ATOM     13  C   UNL     1      12.910 -10.562  32.615  0.00  0.00    +0.158 C 
BRANCH  13  18
ATOM      2  O   UNL     1      12.270  -8.247  32.678  0.00  0.00    -0.461 OA
ATOM     18  C   UNL     1      11.834  -9.518  32.712  0.00  0.00    +0.119 A 
ATOM     20  C   UNL     1      10.489  -9.609  32.829  0.00  0.00    +0.046 A 
ATOM     22  C   UNL     1      11.153  -7.480  32.778  0.00  0.00    +0.131 A 
ATOM     23  C   UNL     1      10.031  -8.271  32.873  0.00  0.00    +0.047 A 
BRANCH  22  27
ATOM     27  C   UNL     1      11.360  -6.025  32.765  0.00  0.00    +0.230 C 
BRANCH  27   3
ATOM      3  O   UNL     1      12.016  -5.631  31.558  0.00  0.00    -0.387 OA
ATOM     30  H   UNL     1      11.336  -5.248  30.977  0.00  0.00    +0.210 HD
ENDBRANCH  27   3
ENDBRANCH  22  27
ENDBRANCH  13  18
ENDBRANCH   4  13
TORSDOF 5
ENDMDL
MODEL 2
REMARK VINA RESULT:      -2.9      2.507      7.064
REMARK  Name = 11941327
REMARK  6 active torsions:
REMARK  status: ('A' for Active; 'I' for Inactive)
REMARK    1  A    between atoms: O_3  and  C_27
REMARK    2  A    between atoms: N_4  and  C_13
REMARK    3  A    between atoms: C_13  and  C_18
REMARK    4  A    between atoms: C_16  and  C_19
REMARK    5  A    between atoms: C_21  and  C_26
REMARK    6  A    between atoms: C_22  and  C_27
REMARK                            x       y       z     vdW  Elec       q    Type
REMARK                         _______ _______ _______ _____ _____    ______ ____
ROOT
ATOM      1  O   UNL     1      11.546  -6.789  30.401  0.00  0.00    -0.267 OA
ATOM      4  N   UNL     1      16.453  -7.448  29.607  0.00  0.00    -0.294 NA
ATOM      5  N   UNL     1      13.747  -6.809  31.170  0.00  0.00    -0.311 N 
ATOM      6  C   UNL     1      15.541  -5.211  30.276  0.00  0.00    +0.024 C 
ATOM      7  C   UNL     1      16.121  -6.842  32.008  0.00  0.00    +0.050 C 
ATOM      8  C   UNL     1      16.150  -5.355  31.665  0.00  0.00    +0.017 C 
ATOM      9  C   UNL     1      16.358  -6.027  29.253  0.00  0.00    +0.090 C 
ATOM     10  C   UNL     1      16.961  -7.627  30.976  0.00  0.00    +0.094 C 
ATOM     11  C   UNL     1      14.070  -5.643  30.335  0.00  0.00    +0.130 C 
ATOM     12  C   UNL     1      14.694  -7.360  32.036  0.00  0.00    +0.026 A 
ATOM     14  C   UNL     1      14.348  -8.353  32.871  0.00  0.00    +0.022 A 
ATOM     15  C   UNL     1      12.417  -7.271  31.127  0.00  0.00    +0.259 A 
ATOM     16  C   UNL     1      12.067  -8.407  32.049  0.00  0.00    +0.047 A 
ATOM     17  C   UNL     1      13.015  -8.884  32.870  0.00  0.00    +0.015 A 
ENDROOT
BRANCH  16  19
ATOM     19  C   UNL     1      10.717  -8.998  32.055  0.00  0.00    -0.010 A 
ATOM     21  C   UNL     1      10.411 -10.125  31.288  0.00  0.00    -0.043 A 
ATOM     24  C   UNL     1       9.728  -8.411  32.848  0.00  0.00    +0.009 A 
ATOM     25  C   UNL     1       9.124 -10.661  31.314  0.00  0.00    +0.004 A 
ATOM     26  C   UNL     1      11.441 -10.781  30.427  0.00  0.00    +0.044 C 
ATOM     28  C   UNL     1       8.441  -8.947  32.873  0.00  0.00    +0.001 A 
ATOM     29  C   UNL     1       8.139 -10.072  32.107  0.00  0.00    +0.000 A 
ENDBRANCH  16  19
BRANCH   4  13
ATOM     13  C   UNL     1      17.278  -8.175  28.644  0.00  0.00    +0.158 C 
BRANCH  13  18
ATOM      2  O   UNL     1      15.772  -9.514  27.334  0.00  0.00    -0.461 OA
ATOM     18  C   UNL     1      16.521  -8.398  27.365  0.00  0.00    +0.119 A 
ATOM     20  C   UNL     1      16.444  -7.682  26.220  0.00  0.00    +0.046 A 
ATOM     22  C   UNL     1      15.184  -9.519  26.109  0.00  0.00    +0.131 A 
ATOM     23  C   UNL     1      15.566  -8.413  25.386  0.00  0.00    +0.047 A 
BRANCH  22  27
ATOM     27  C   UNL     1      14.298 -10.655  25.818  0.00  0.00    +0.230 C 
BRANCH  27   3
ATOM      3  O   UNL     1      13.555 -10.409  24.622  0.00  0.00    -0.387 OA
ATOM     30  H   UNL     1      14.151 -10.596  23.875  0.00  0.00    +0.210 HD
ENDBRANCH  27   3
ENDBRANCH  22  27
ENDBRANCH  13  18
ENDBRANCH   4  13
TORSDOF 5
ENDMDL
