MODEL 1
REMARK VINA RESULT:      -0.5      0.000      0.000
REMARK  Name = 26745175
REMARK  5 active torsions:
REMARK  status: ('A' for Active; 'I' for Inactive)
REMARK    1  A    between atoms: N_7  and  C_18
REMARK    2  A    between atoms: C_10  and  C_15
REMARK    3  A    between atoms: C_18  and  C_20
REMARK    4  A    between atoms: C_18  and  C_21
REMARK    5  A    between atoms: C_19  and  C_22
REMARK                            x       y       z     vdW  Elec       q    Type
REMARK                         _______ _______ _______ _____ _____    ______ ____
ROOT
ATOM      3  O   UNL     1      -2.332   2.768  25.923  0.00  0.00    -0.253 OA
ATOM      4  N   UNL     1      -2.822   0.844  24.703  0.00  0.00    -0.268 N 
ATOM      5  N   UNL     1      -4.512  -2.200  23.331  0.00  0.00    -0.347 N 
ATOM      6  N   UNL     1      -3.489  -3.263  25.008  0.00  0.00    -0.240 NA
ATOM      7  N   UNL     1      -3.949   2.885  24.295  0.00  0.00    -0.297 N 
ATOM     10  C   UNL     1      -1.711   0.073  25.360  0.00  0.00    +0.172 C 
ATOM     11  C   UNL     1      -2.207  -1.286  25.937  0.00  0.00    +0.089 C 
ATOM     12  C   UNL     1      -3.616   0.164  23.638  0.00  0.00    +0.165 C 
ATOM     13  C   UNL     1      -3.136  -1.943  24.994  0.00  0.00    +0.066 A 
ATOM     14  C   UNL     1      -3.754  -1.266  23.973  0.00  0.00    +0.056 A 
ATOM     16  C   UNL     1      -2.989   2.207  25.041  0.00  0.00    +0.303 C 
ATOM     17  C   UNL     1      -4.319  -3.388  23.993  0.00  0.00    +0.197 A 
ATOM     28  H   UNL     1      -5.102  -2.053  22.524  0.00  0.00    +0.167 HD
ATOM     29  H   UNL     1      -4.333   2.467  23.458  0.00  0.00    +0.150 HD
ENDROOT
BRANCH  10  15
ATOM      2  O   UNL     1      -0.728  -0.002  23.111  0.00  0.00    -0.336 OA
ATOM      8  N   UNL     1       0.784  -0.023  24.763  0.00  0.00    -0.190 NA
ATOM      9  N   UNL     1       0.528  -0.055  22.490  0.00  0.00    -0.056 NA
ATOM     15  C   UNL     1      -0.485   0.015  24.447  0.00  0.00    +0.249 A 
ATOM     19  C   UNL     1       1.367  -0.065  23.530  0.00  0.00    +0.202 A 
BRANCH  19  22
ATOM      1  F   UNL     1       6.893  -0.258  22.914  0.00  0.00    -0.205 F 
ATOM     22  C   UNL     1       2.791  -0.115  23.371  0.00  0.00    +0.023 A 
ATOM     23  C   UNL     1       3.467   0.963  22.798  0.00  0.00    +0.014 A 
ATOM     24  C   UNL     1       3.500  -1.241  23.789  0.00  0.00    +0.014 A 
ATOM     25  C   UNL     1       4.852   0.914  22.644  0.00  0.00    +0.039 A 
ATOM     26  C   UNL     1       4.887  -1.289  23.634  0.00  0.00    +0.039 A 
ATOM     27  C   UNL     1       5.563  -0.212  23.062  0.00  0.00    +0.123 A 
ENDBRANCH  19  22
ENDBRANCH  10  15
BRANCH   7  18
ATOM     18  C   UNL     1      -4.237   4.287  24.502  0.00  0.00    +0.068 C 
ATOM     20  C   UNL     1      -5.388   4.456  25.485  0.00  0.00    +0.027 C 
ATOM     21  C   UNL     1      -2.990   5.018  24.981  0.00  0.00    +0.027 C 
ENDBRANCH   7  18
TORSDOF 3
ENDMDL
MODEL 2
REMARK VINA RESULT:       2.9      3.785      5.888
REMARK  Name = 26745175
REMARK  5 active torsions:
REMARK  status: ('A' for Active; 'I' for Inactive)
REMARK    1  A    between atoms: N_7  and  C_18
REMARK    2  A    between atoms: C_10  and  C_15
REMARK    3  A    between atoms: C_18  and  C_20
REMARK    4  A    between atoms: C_18  and  C_21
REMARK    5  A    between atoms: C_19  and  C_22
REMARK                            x       y       z     vdW  Elec       q    Type
REMARK                         _______ _______ _______ _____ _____    ______ ____
ROOT
ATOM      3  O   UNL     1      -2.375  -0.528  23.305  0.00  0.00    -0.253 OA
ATOM      4  N   UNL     1      -3.440   1.049  24.651  0.00  0.00    -0.268 N 
ATOM      5  N   UNL     1      -6.004   3.268  26.234  0.00  0.00    -0.347 N 
ATOM      6  N   UNL     1      -5.452   4.704  24.615  0.00  0.00    -0.240 NA
ATOM      7  N   UNL     1      -3.805  -1.271  24.943  0.00  0.00    -0.297 N 
ATOM     10  C   UNL     1      -2.673   2.184  24.030  0.00  0.00    +0.172 C 
ATOM     11  C   UNL     1      -3.614   3.327  23.547  0.00  0.00    +0.089 C 
ATOM     12  C   UNL     1      -4.380   1.362  25.766  0.00  0.00    +0.165 C 
ATOM     13  C   UNL     1      -4.678   3.580  24.541  0.00  0.00    +0.066 A 
ATOM     14  C   UNL     1      -4.999   2.680  25.525  0.00  0.00    +0.056 A 
ATOM     16  C   UNL     1      -3.153  -0.269  24.229  0.00  0.00    +0.303 C 
ATOM     17  C   UNL     1      -6.242   4.486  25.646  0.00  0.00    +0.197 A 
ATOM     28  H   UNL     1      -6.485   2.886  27.037  0.00  0.00    +0.167 HD
ATOM     29  H   UNL     1      -4.279  -1.054  25.809  0.00  0.00    +0.150 HD
ENDROOT
BRANCH  10  15
ATOM      2  O   UNL     1      -0.750   3.640  24.497  0.00  0.00    -0.336 OA
ATOM      8  N   UNL     1      -1.121   2.092  26.073  0.00  0.00    -0.190 NA
ATOM      9  N   UNL     1       0.239   3.831  25.471  0.00  0.00    -0.056 NA
ATOM     15  C   UNL     1      -1.508   2.599  24.929  0.00  0.00    +0.249 A 
ATOM     19  C   UNL     1      -0.047   2.881  26.366  0.00  0.00    +0.202 A 
BRANCH  19  22
ATOM      1  F   UNL     1       2.929   2.158  31.011  0.00  0.00    -0.205 F 
ATOM     22  C   UNL     1       0.720   2.694  27.563  0.00  0.00    +0.023 A 
ATOM     23  C   UNL     1       2.101   2.893  27.545  0.00  0.00    +0.014 A 
ATOM     24  C   UNL     1       0.085   2.314  28.746  0.00  0.00    +0.014 A 
ATOM     25  C   UNL     1       2.847   2.712  28.710  0.00  0.00    +0.039 A 
ATOM     26  C   UNL     1       0.832   2.133  29.911  0.00  0.00    +0.039 A 
ATOM     27  C   UNL     1       2.212   2.332  29.893  0.00  0.00    +0.123 A 
ENDBRANCH  19  22
ENDBRANCH  10  15
BRANCH   7  18
ATOM     18  C   UNL     1      -3.614  -2.674  24.651  0.00  0.00    +0.068 C 
ATOM     20  C   UNL     1      -4.390  -3.070  23.402  0.00  0.00    +0.027 C 
ATOM     21  C   UNL     1      -2.131  -2.987  24.502  0.00  0.00    +0.027 C 
ENDBRANCH   7  18
TORSDOF 3
ENDMDL
