MODEL 1
REMARK VINA RESULT:      -6.5      0.000      0.000
REMARK  Name = 11943039
REMARK  4 active torsions:
REMARK  status: ('A' for Active; 'I' for Inactive)
REMARK    1  A    between atoms: N_3  and  C_11
REMARK    2  A    between atoms: C_5  and  C_11
REMARK    3  A    between atoms: C_6  and  C_12
REMARK    4  A    between atoms: C_13  and  C_14
REMARK                            x       y       z     vdW  Elec       q    Type
REMARK                         _______ _______ _______ _____ _____    ______ ____
ROOT
ATOM     11  C   UNL     1      -0.242  -0.427  24.383  0.00  0.00    +0.123 C 
ENDROOT
BRANCH  11   5
ATOM      2  N   UNL     1      -2.190  -1.860  23.717  0.00  0.00    -0.297 NA
ATOM      4  C   UNL     1      -3.548  -1.360  25.879  0.00  0.00    -0.000 C 
ATOM      5  C   UNL     1      -1.267  -1.476  24.820  0.00  0.00    +0.074 C 
ATOM      6  C   UNL     1      -4.098  -0.545  24.685  0.00  0.00    +0.028 C 
ATOM      7  C   UNL     1      -2.055  -1.022  26.069  0.00  0.00    +0.024 C 
ATOM      8  C   UNL     1      -3.639  -2.849  25.493  0.00  0.00    +0.019 C 
ATOM      9  C   UNL     1      -3.173  -0.778  23.467  0.00  0.00    +0.092 C 
ATOM     10  C   UNL     1      -2.934  -3.069  24.145  0.00  0.00    +0.085 C 
BRANCH   6  12
ATOM     12  C   UNL     1      -4.256   0.913  24.997  0.00  0.00    -0.030 C 
ATOM     20  C   UNL     1      -5.429   1.553  25.009  0.00  0.00    +0.004 C 
ENDBRANCH   6  12
ENDBRANCH  11   5
BRANCH  11   3
ATOM      1  O   UNL     1       1.224   2.055  24.034  0.00  0.00    -0.276 OA
ATOM      3  N   UNL     1      -0.590   0.866  24.887  0.00  0.00    -0.314 N 
ATOM     14  C   UNL     1       0.175   2.010  24.671  0.00  0.00    +0.216 C 
ATOM     21  H   UNL     1      -1.439   0.941  25.438  0.00  0.00    +0.149 HD
BRANCH  14  13
ATOM     13  C   UNL     1      -0.430   3.236  25.288  0.00  0.00    +0.075 C 
ATOM     15  C   UNL     1      -0.396   4.393  24.287  0.00  0.00    +0.013 C 
ATOM     16  C   UNL     1      -1.858   2.937  25.750  0.00  0.00    +0.013 C 
ATOM     17  C   UNL     1      -1.087   5.637  24.840  0.00  0.00    +0.001 C 
ATOM     18  C   UNL     1      -2.546   4.185  26.298  0.00  0.00    +0.001 C 
ATOM     19  C   UNL     1      -2.510   5.334  25.296  0.00  0.00    +0.000 C 
ENDBRANCH  14  13
ENDBRANCH  11   3
TORSDOF 4
ENDMDL
MODEL 2
REMARK VINA RESULT:      -5.7      2.124      5.917
REMARK  Name = 11943039
REMARK  4 active torsions:
REMARK  status: ('A' for Active; 'I' for Inactive)
REMARK    1  A    between atoms: N_3  and  C_11
REMARK    2  A    between atoms: C_5  and  C_11
REMARK    3  A    between atoms: C_6  and  C_12
REMARK    4  A    between atoms: C_13  and  C_14
REMARK                            x       y       z     vdW  Elec       q    Type
REMARK                         _______ _______ _______ _____ _____    ______ ____
ROOT
ATOM     11  C   UNL     1      -3.834   2.957  23.913  0.00  0.00    +0.123 C 
ENDROOT
BRANCH  11   5
ATOM      2  N   UNL     1      -1.433   3.634  23.660  0.00  0.00    -0.297 NA
ATOM      4  C   UNL     1      -0.704   2.623  25.943  0.00  0.00    -0.000 C 
ATOM      5  C   UNL     1      -2.599   3.565  24.581  0.00  0.00    +0.074 C 
ATOM      6  C   UNL     1      -0.276   1.703  24.775  0.00  0.00    +0.028 C 
ATOM      7  C   UNL     1      -2.231   2.825  25.886  0.00  0.00    +0.024 C 
ATOM      8  C   UNL     1      -0.046   3.996  25.705  0.00  0.00    +0.019 C 
ATOM      9  C   UNL     1      -0.852   2.284  23.462  0.00  0.00    +0.092 C 
ATOM     10  C   UNL     1      -0.401   4.490  24.293  0.00  0.00    +0.085 C 
BRANCH   6  12
ATOM     12  C   UNL     1      -0.681   0.274  24.980  0.00  0.00    -0.030 C 
ATOM     20  C   UNL     1      -0.247  -0.742  24.227  0.00  0.00    +0.004 C 
ENDBRANCH   6  12
ENDBRANCH  11   5
BRANCH  11   3
ATOM      1  O   UNL     1      -5.514   1.502  25.782  0.00  0.00    -0.276 OA
ATOM      3  N   UNL     1      -3.882   1.543  24.119  0.00  0.00    -0.314 N 
ATOM     14  C   UNL     1      -4.722   0.925  25.042  0.00  0.00    +0.216 C 
ATOM     21  H   UNL     1      -3.257   0.967  23.562  0.00  0.00    +0.149 HD
BRANCH  14  13
ATOM     13  C   UNL     1      -4.589  -0.570  25.037  0.00  0.00    +0.075 C 
ATOM     15  C   UNL     1      -4.320  -1.064  23.614  0.00  0.00    +0.013 C 
ATOM     16  C   UNL     1      -3.477  -0.997  25.998  0.00  0.00    +0.013 C 
ATOM     17  C   UNL     1      -4.085  -2.572  23.577  0.00  0.00    +0.001 C 
ATOM     18  C   UNL     1      -3.242  -2.505  25.954  0.00  0.00    +0.001 C 
ATOM     19  C   UNL     1      -2.974  -2.992  24.534  0.00  0.00    +0.000 C 
ENDBRANCH  14  13
ENDBRANCH  11   3
TORSDOF 4
ENDMDL
MODEL 3
REMARK VINA RESULT:      -5.7      1.605      5.578
REMARK  Name = 11943039
REMARK  4 active torsions:
REMARK  status: ('A' for Active; 'I' for Inactive)
REMARK    1  A    between atoms: N_3  and  C_11
REMARK    2  A    between atoms: C_5  and  C_11
REMARK    3  A    between atoms: C_6  and  C_12
REMARK    4  A    between atoms: C_13  and  C_14
REMARK                            x       y       z     vdW  Elec       q    Type
REMARK                         _______ _______ _______ _____ _____    ______ ____
ROOT
ATOM     11  C   UNL     1      -0.216   1.719  24.381  0.00  0.00    +0.123 C 
ENDROOT
BRANCH  11   5
ATOM      2  N   UNL     1      -0.872   3.905  25.420  0.00  0.00    -0.297 NA
ATOM      4  C   UNL     1      -3.116   4.075  24.117  0.00  0.00    -0.000 C 
ATOM      5  C   UNL     1      -0.788   3.121  24.158  0.00  0.00    +0.074 C 
ATOM      6  C   UNL     1      -3.363   3.627  25.577  0.00  0.00    +0.028 C 
ATOM      7  C   UNL     1      -2.156   3.075  23.443  0.00  0.00    +0.024 C 
ATOM      8  C   UNL     1      -2.400   5.438  24.175  0.00  0.00    +0.019 C 
ATOM      9  C   UNL     1      -1.992   3.413  26.260  0.00  0.00    +0.092 C 
ATOM     10  C   UNL     1      -1.150   5.317  25.063  0.00  0.00    +0.085 C 
BRANCH   6  12
ATOM     12  C   UNL     1      -4.233   2.409  25.674  0.00  0.00    -0.030 C 
ATOM     20  C   UNL     1      -5.511   2.369  25.288  0.00  0.00    +0.004 C 
ENDBRANCH   6  12
ENDBRANCH  11   5
BRANCH  11   3
ATOM      1  O   UNL     1      -0.765  -0.191  26.498  0.00  0.00    -0.276 OA
ATOM      3  N   UNL     1      -1.261   0.743  24.421  0.00  0.00    -0.314 N 
ATOM     14  C   UNL     1      -1.453  -0.139  25.482  0.00  0.00    +0.216 C 
ATOM     21  H   UNL     1      -1.886   0.693  23.622  0.00  0.00    +0.149 HD
BRANCH  14  13
ATOM     13  C   UNL     1      -2.636  -1.040  25.280  0.00  0.00    +0.075 C 
ATOM     15  C   UNL     1      -3.563  -0.451  24.215  0.00  0.00    +0.013 C 
ATOM     16  C   UNL     1      -2.162  -2.443  24.895  0.00  0.00    +0.013 C 
ATOM     17  C   UNL     1      -4.733  -1.382  23.909  0.00  0.00    +0.001 C 
ATOM     18  C   UNL     1      -3.335  -3.370  24.587  0.00  0.00    +0.001 C 
ATOM     19  C   UNL     1      -4.256  -2.778  23.524  0.00  0.00    +0.000 C 
ENDBRANCH  14  13
ENDBRANCH  11   3
TORSDOF 4
ENDMDL
MODEL 4
REMARK VINA RESULT:      -5.1      2.046      3.458
REMARK  Name = 11943039
REMARK  4 active torsions:
REMARK  status: ('A' for Active; 'I' for Inactive)
REMARK    1  A    between atoms: N_3  and  C_11
REMARK    2  A    between atoms: C_5  and  C_11
REMARK    3  A    between atoms: C_6  and  C_12
REMARK    4  A    between atoms: C_13  and  C_14
REMARK                            x       y       z     vdW  Elec       q    Type
REMARK                         _______ _______ _______ _____ _____    ______ ____
ROOT
ATOM     11  C   UNL     1      -4.904   0.401  25.021  0.00  0.00    +0.123 C 
ENDROOT
BRANCH  11   5
ATOM      2  N   UNL     1      -3.669  -1.623  25.836  0.00  0.00    -0.297 NA
ATOM      4  C   UNL     1      -1.995  -1.645  23.846  0.00  0.00    -0.000 C 
ATOM      5  C   UNL     1      -4.272  -0.944  24.657  0.00  0.00    +0.074 C 
ATOM      6  C   UNL     1      -1.327  -1.071  25.117  0.00  0.00    +0.028 C 
ATOM      7  C   UNL     1      -3.244  -0.804  23.513  0.00  0.00    +0.024 C 
ATOM      8  C   UNL     1      -2.474  -3.069  24.188  0.00  0.00    +0.019 C 
ATOM      9  C   UNL     1      -2.402  -0.956  26.223  0.00  0.00    +0.092 C 
ATOM     10  C   UNL     1      -3.354  -3.019  25.448  0.00  0.00    +0.085 C 
BRANCH   6  12
ATOM     12  C   UNL     1      -0.634   0.237  24.872  0.00  0.00    -0.030 C 
ATOM     20  C   UNL     1       0.231   0.451  23.875  0.00  0.00    +0.004 C 
ENDBRANCH   6  12
ENDBRANCH  11   5
BRANCH  11   3
ATOM      1  O   UNL     1      -5.410   3.242  25.340  0.00  0.00    -0.276 OA
ATOM      3  N   UNL     1      -4.026   1.482  24.695  0.00  0.00    -0.314 N 
ATOM     14  C   UNL     1      -4.350   2.824  24.882  0.00  0.00    +0.216 C 
ATOM     21  H   UNL     1      -3.121   1.247  24.299  0.00  0.00    +0.149 HD
BRANCH  14  13
ATOM     13  C   UNL     1      -3.240   3.750  24.482  0.00  0.00    +0.075 C 
ATOM     15  C   UNL     1      -2.819   4.606  25.679  0.00  0.00    +0.013 C 
ATOM     16  C   UNL     1      -2.063   2.943  23.929  0.00  0.00    +0.013 C 
ATOM     17  C   UNL     1      -1.627   5.498  25.342  0.00  0.00    +0.001 C 
ATOM     18  C   UNL     1      -0.871   3.839  23.597  0.00  0.00    +0.001 C 
ATOM     19  C   UNL     1      -0.456   4.689  24.794  0.00  0.00    +0.000 C 
ENDBRANCH  14  13
ENDBRANCH  11   3
TORSDOF 4
ENDMDL
MODEL 5
REMARK VINA RESULT:      -4.9      3.130      5.441
REMARK  Name = 11943039
REMARK  4 active torsions:
REMARK  status: ('A' for Active; 'I' for Inactive)
REMARK    1  A    between atoms: N_3  and  C_11
REMARK    2  A    between atoms: C_5  and  C_11
REMARK    3  A    between atoms: C_6  and  C_12
REMARK    4  A    between atoms: C_13  and  C_14
REMARK                            x       y       z     vdW  Elec       q    Type
REMARK                         _______ _______ _______ _____ _____    ______ ____
ROOT
ATOM     11  C   UNL     1      -0.680   0.316  23.114  0.00  0.00    +0.123 C 
ENDROOT
BRANCH  11   5
ATOM      2  N   UNL     1      -1.514   1.624  25.084  0.00  0.00    -0.297 NA
ATOM      4  C   UNL     1      -3.768   2.264  23.954  0.00  0.00    -0.000 C 
ATOM      5  C   UNL     1      -1.368   1.592  23.604  0.00  0.00    +0.074 C 
ATOM      6  C   UNL     1      -3.973   1.124  24.979  0.00  0.00    +0.028 C 
ATOM      7  C   UNL     1      -2.728   1.814  22.908  0.00  0.00    +0.024 C 
ATOM      8  C   UNL     1      -3.167   3.459  24.718  0.00  0.00    +0.019 C 
ATOM      9  C   UNL     1      -2.587   0.695  25.516  0.00  0.00    +0.092 C 
ATOM     10  C   UNL     1      -1.910   2.998  25.475  0.00  0.00    +0.085 C 
BRANCH   6  12
ATOM     12  C   UNL     1      -4.738  -0.037  24.415  0.00  0.00    -0.030 C 
ATOM     20  C   UNL     1      -4.200  -1.233  24.159  0.00  0.00    +0.004 C 
ENDBRANCH   6  12
ENDBRANCH  11   5
BRANCH  11   3
ATOM      1  O   UNL     1       1.675  -0.250  21.513  0.00  0.00    -0.276 OA
ATOM      3  N   UNL     1       0.680   0.267  23.555  0.00  0.00    -0.314 N 
ATOM     14  C   UNL     1       1.755  -0.013  22.716  0.00  0.00    +0.216 C 
ATOM     21  H   UNL     1       0.858   0.440  24.540  0.00  0.00    +0.149 HD
BRANCH  14  13
ATOM     13  C   UNL     1       3.073   0.025  23.430  0.00  0.00    +0.075 C 
ATOM     15  C   UNL     1       3.682  -1.378  23.473  0.00  0.00    +0.013 C 
ATOM     16  C   UNL     1       4.010   1.020  22.742  0.00  0.00    +0.013 C 
ATOM     17  C   UNL     1       5.070  -1.371  24.109  0.00  0.00    +0.001 C 
ATOM     18  C   UNL     1       5.398   1.022  23.379  0.00  0.00    +0.001 C 
ATOM     19  C   UNL     1       6.000  -0.379  23.418  0.00  0.00    +0.000 C 
ENDBRANCH  14  13
ENDBRANCH  11   3
TORSDOF 4
ENDMDL
MODEL 6
REMARK VINA RESULT:      -4.4      1.537      5.501
REMARK  Name = 11943039
REMARK  4 active torsions:
REMARK  status: ('A' for Active; 'I' for Inactive)
REMARK    1  A    between atoms: N_3  and  C_11
REMARK    2  A    between atoms: C_5  and  C_11
REMARK    3  A    between atoms: C_6  and  C_12
REMARK    4  A    between atoms: C_13  and  C_14
REMARK                            x       y       z     vdW  Elec       q    Type
REMARK                         _______ _______ _______ _____ _____    ______ ____
ROOT
ATOM     11  C   UNL     1       0.195   2.179  25.551  0.00  0.00    +0.123 C 
ENDROOT
BRANCH  11   5
ATOM      2  N   UNL     1      -2.083   2.974  26.235  0.00  0.00    -0.297 NA
ATOM      4  C   UNL     1      -2.311   4.640  24.251  0.00  0.00    -0.000 C 
ATOM      5  C   UNL     1      -0.735   3.378  25.752  0.00  0.00    +0.074 C 
ATOM      6  C   UNL     1      -3.143   3.362  23.991  0.00  0.00    +0.028 C 
ATOM      7  C   UNL     1      -0.839   4.242  24.476  0.00  0.00    +0.024 C 
ATOM      8  C   UNL     1      -2.829   5.260  25.563  0.00  0.00    +0.019 C 
ATOM      9  C   UNL     1      -2.862   2.357  25.133  0.00  0.00    +0.092 C 
ATOM     10  C   UNL     1      -2.796   4.197  26.674  0.00  0.00    +0.085 C 
BRANCH   6  12
ATOM     12  C   UNL     1      -2.883   2.761  22.641  0.00  0.00    -0.030 C 
ATOM     20  C   UNL     1      -2.522   1.489  22.446  0.00  0.00    +0.004 C 
ENDBRANCH   6  12
ENDBRANCH  11   5
BRANCH  11   3
ATOM      1  O   UNL     1       0.402  -0.097  23.760  0.00  0.00    -0.276 OA
ATOM      3  N   UNL     1      -0.535   0.950  25.619  0.00  0.00    -0.314 N 
ATOM     14  C   UNL     1      -0.373  -0.095  24.714  0.00  0.00    +0.216 C 
ATOM     21  H   UNL     1      -1.213   0.849  26.369  0.00  0.00    +0.149 HD
BRANCH  14  13
ATOM     13  C   UNL     1      -1.243  -1.276  25.030  0.00  0.00    +0.075 C 
ATOM     15  C   UNL     1      -2.591  -0.799  25.574  0.00  0.00    +0.013 C 
ATOM     16  C   UNL     1      -1.418  -2.142  23.781  0.00  0.00    +0.013 C 
ATOM     17  C   UNL     1      -3.543  -1.966  25.821  0.00  0.00    +0.001 C 
ATOM     18  C   UNL     1      -2.375  -3.306  24.031  0.00  0.00    +0.001 C 
ATOM     19  C   UNL     1      -3.717  -2.825  24.573  0.00  0.00    +0.000 C 
ENDBRANCH  14  13
ENDBRANCH  11   3
TORSDOF 4
ENDMDL
MODEL 7
REMARK VINA RESULT:      -4.2      2.335      6.168
REMARK  Name = 11943039
REMARK  4 active torsions:
REMARK  status: ('A' for Active; 'I' for Inactive)
REMARK    1  A    between atoms: N_3  and  C_11
REMARK    2  A    between atoms: C_5  and  C_11
REMARK    3  A    between atoms: C_6  and  C_12
REMARK    4  A    between atoms: C_13  and  C_14
REMARK                            x       y       z     vdW  Elec       q    Type
REMARK                         _______ _______ _______ _____ _____    ______ ____
ROOT
ATOM     11  C   UNL     1      -5.088   2.557  25.604  0.00  0.00    +0.123 C 
ENDROOT
BRANCH  11   5
ATOM      2  N   UNL     1      -3.651   3.818  23.981  0.00  0.00    -0.297 NA
ATOM      4  C   UNL     1      -1.879   4.482  25.765  0.00  0.00    -0.000 C 
ATOM      5  C   UNL     1      -4.269   3.821  25.335  0.00  0.00    +0.074 C 
ATOM      6  C   UNL     1      -1.362   3.318  24.887  0.00  0.00    +0.028 C 
ATOM      7  C   UNL     1      -3.204   4.058  26.429  0.00  0.00    +0.024 C 
ATOM      8  C   UNL     1      -2.190   5.660  24.822  0.00  0.00    +0.019 C 
ATOM      9  C   UNL     1      -2.504   2.878  23.940  0.00  0.00    +0.092 C 
ATOM     10  C   UNL     1      -3.138   5.182  23.710  0.00  0.00    +0.085 C 
BRANCH   6  12
ATOM     12  C   UNL     1      -0.831   2.170  25.693  0.00  0.00    -0.030 C 
ATOM     20  C   UNL     1       0.150   2.280  26.594  0.00  0.00    +0.004 C 
ENDBRANCH   6  12
ENDBRANCH  11   5
BRANCH  11   3
ATOM      1  O   UNL     1      -5.492  -0.005  24.298  0.00  0.00    -0.276 OA
ATOM      3  N   UNL     1      -4.242   1.405  25.669  0.00  0.00    -0.314 N 
ATOM     14  C   UNL     1      -4.513   0.210  25.007  0.00  0.00    +0.216 C 
ATOM     21  H   UNL     1      -3.404   1.471  26.239  0.00  0.00    +0.149 HD
BRANCH  14  13
ATOM     13  C   UNL     1      -3.450  -0.827  25.225  0.00  0.00    +0.075 C 
ATOM     15  C   UNL     1      -3.846  -2.132  24.531  0.00  0.00    +0.013 C 
ATOM     16  C   UNL     1      -2.104  -0.308  24.714  0.00  0.00    +0.013 C 
ATOM     17  C   UNL     1      -2.749  -3.187  24.647  0.00  0.00    +0.001 C 
ATOM     18  C   UNL     1      -1.011  -1.367  24.829  0.00  0.00    +0.001 C 
ATOM     19  C   UNL     1      -1.410  -2.666  24.135  0.00  0.00    +0.000 C 
ENDBRANCH  14  13
ENDBRANCH  11   3
TORSDOF 4
ENDMDL
MODEL 8
REMARK VINA RESULT:      -4.0     14.804     17.709
REMARK  Name = 11943039
REMARK  4 active torsions:
REMARK  status: ('A' for Active; 'I' for Inactive)
REMARK    1  A    between atoms: N_3  and  C_11
REMARK    2  A    between atoms: C_5  and  C_11
REMARK    3  A    between atoms: C_6  and  C_12
REMARK    4  A    between atoms: C_13  and  C_14
REMARK                            x       y       z     vdW  Elec       q    Type
REMARK                         _______ _______ _______ _____ _____    ______ ____
ROOT
ATOM     11  C   UNL     1      -6.285  -8.701  12.067  0.00  0.00    +0.123 C 
ENDROOT
BRANCH  11   5
ATOM      2  N   UNL     1      -5.787  -9.647   9.799  0.00  0.00    -0.297 NA
ATOM      4  C   UNL     1      -8.223  -9.368   8.932  0.00  0.00    -0.000 C 
ATOM      5  C   UNL     1      -6.737  -9.638  10.944  0.00  0.00    +0.074 C 
ATOM      6  C   UNL     1      -7.308  -8.259   8.362  0.00  0.00    +0.028 C 
ATOM      7  C   UNL     1      -8.171  -9.317  10.472  0.00  0.00    +0.024 C 
ATOM      8  C   UNL     1      -7.626 -10.719   8.494  0.00  0.00    +0.019 C 
ATOM      9  C   UNL     1      -5.912  -8.394   9.015  0.00  0.00    +0.092 C 
ATOM     10  C   UNL     1      -6.148 -10.781   8.915  0.00  0.00    +0.085 C 
BRANCH   6  12
ATOM     12  C   UNL     1      -7.879  -6.883   8.541  0.00  0.00    -0.030 C 
ATOM     20  C   UNL     1      -9.164  -6.574   8.343  0.00  0.00    +0.004 C 
ENDBRANCH   6  12
ENDBRANCH  11   5
BRANCH  11   3
ATOM      1  O   UNL     1      -4.340 -10.408  13.385  0.00  0.00    -0.276 OA
ATOM      3  N   UNL     1      -6.409  -9.337  13.343  0.00  0.00    -0.314 N 
ATOM     14  C   UNL     1      -5.422 -10.144  13.903  0.00  0.00    +0.216 C 
ATOM     21  H   UNL     1      -7.274  -9.192  13.856  0.00  0.00    +0.149 HD
BRANCH  14  13
ATOM     13  C   UNL     1      -5.798 -10.664  15.259  0.00  0.00    +0.075 C 
ATOM     15  C   UNL     1      -4.692 -10.342  16.266  0.00  0.00    +0.013 C 
ATOM     16  C   UNL     1      -7.139 -10.068  15.692  0.00  0.00    +0.013 C 
ATOM     17  C   UNL     1      -5.074 -10.770  17.680  0.00  0.00    +0.001 C 
ATOM     18  C   UNL     1      -7.516 -10.496  17.108  0.00  0.00    +0.001 C 
ATOM     19  C   UNL     1      -6.410 -10.172  18.107  0.00  0.00    +0.000 C 
ENDBRANCH  14  13
ENDBRANCH  11   3
TORSDOF 4
ENDMDL
MODEL 9
REMARK VINA RESULT:      -3.8      2.085      5.992
REMARK  Name = 11943039
REMARK  4 active torsions:
REMARK  status: ('A' for Active; 'I' for Inactive)
REMARK    1  A    between atoms: N_3  and  C_11
REMARK    2  A    between atoms: C_5  and  C_11
REMARK    3  A    between atoms: C_6  and  C_12
REMARK    4  A    between atoms: C_13  and  C_14
REMARK                            x       y       z     vdW  Elec       q    Type
REMARK                         _______ _______ _______ _____ _____    ______ ____
ROOT
ATOM     11  C   UNL     1      -3.483   2.426  22.933  0.00  0.00    +0.123 C 
ENDROOT
BRANCH  11   5
ATOM      2  N   UNL     1      -1.359   2.714  24.234  0.00  0.00    -0.297 NA
ATOM      4  C   UNL     1      -2.001   5.066  25.138  0.00  0.00    -0.000 C 
ATOM      5  C   UNL     1      -2.335   3.362  23.317  0.00  0.00    +0.074 C 
ATOM      6  C   UNL     1      -2.195   3.988  26.230  0.00  0.00    +0.028 C 
ATOM      7  C   UNL     1      -2.853   4.691  23.909  0.00  0.00    +0.024 C 
ATOM      8  C   UNL     1      -0.522   5.017  24.709  0.00  0.00    +0.019 C 
ATOM      9  C   UNL     1      -1.930   2.601  25.599  0.00  0.00    +0.092 C 
ATOM     10  C   UNL     1      -0.157   3.578  24.308  0.00  0.00    +0.085 C 
BRANCH   6  12
ATOM     12  C   UNL     1      -3.543   4.057  26.885  0.00  0.00    -0.030 C 
ATOM     20  C   UNL     1      -4.694   3.803  26.255  0.00  0.00    +0.004 C 
ENDBRANCH   6  12
ENDBRANCH  11   5
BRANCH  11   3
ATOM      1  O   UNL     1      -5.204   1.076  24.842  0.00  0.00    -0.276 OA
ATOM      3  N   UNL     1      -3.297   1.128  23.505  0.00  0.00    -0.314 N 
ATOM     14  C   UNL     1      -4.177   0.553  24.418  0.00  0.00    +0.216 C 
ATOM     21  H   UNL     1      -2.469   0.609  23.228  0.00  0.00    +0.149 HD
BRANCH  14  13
ATOM     13  C   UNL     1      -3.757  -0.824  24.839  0.00  0.00    +0.075 C 
ATOM     15  C   UNL     1      -4.266  -1.855  23.829  0.00  0.00    +0.013 C 
ATOM     16  C   UNL     1      -2.235  -0.885  24.981  0.00  0.00    +0.013 C 
ATOM     17  C   UNL     1      -3.782  -3.263  24.168  0.00  0.00    +0.001 C 
ATOM     18  C   UNL     1      -1.755  -2.295  25.316  0.00  0.00    +0.001 C 
ATOM     19  C   UNL     1      -2.265  -3.318  24.306  0.00  0.00    +0.000 C 
ENDBRANCH  14  13
ENDBRANCH  11   3
TORSDOF 4
ENDMDL
MODEL 10
REMARK VINA RESULT:      -3.5     17.666     20.009
REMARK  Name = 11943039
REMARK  4 active torsions:
REMARK  status: ('A' for Active; 'I' for Inactive)
REMARK    1  A    between atoms: N_3  and  C_11
REMARK    2  A    between atoms: C_5  and  C_11
REMARK    3  A    between atoms: C_6  and  C_12
REMARK    4  A    between atoms: C_13  and  C_14
REMARK                            x       y       z     vdW  Elec       q    Type
REMARK                         _______ _______ _______ _____ _____    ______ ____
ROOT
ATOM     11  C   UNL     1      16.161  -5.806  30.076  0.00  0.00    +0.123 C 
ENDROOT
BRANCH  11   5
ATOM      2  N   UNL     1      14.602  -5.555  32.024  0.00  0.00    -0.297 NA
ATOM      4  C   UNL     1      12.632  -6.791  30.859  0.00  0.00    -0.000 C 
ATOM      5  C   UNL     1      14.746  -5.461  30.546  0.00  0.00    +0.074 C 
ATOM      6  C   UNL     1      13.324  -7.713  31.890  0.00  0.00    +0.028 C 
ATOM      7  C   UNL     1      13.679  -6.318  29.830  0.00  0.00    +0.024 C 
ATOM      8  C   UNL     1      12.138  -5.547  31.622  0.00  0.00    +0.019 C 
ATOM      9  C   UNL     1      14.564  -6.976  32.449  0.00  0.00    +0.092 C 
ATOM     10  C   UNL     1      13.312  -4.928  32.398  0.00  0.00    +0.085 C 
BRANCH   6  12
ATOM     12  C   UNL     1      13.680  -9.057  31.326  0.00  0.00    -0.030 C 
ATOM     20  C   UNL     1      12.867  -9.781  30.551  0.00  0.00    +0.004 C 
ENDBRANCH   6  12
ENDBRANCH  11   5
BRANCH  11   3
ATOM      1  O   UNL     1      16.767  -5.962  27.240  0.00  0.00    -0.276 OA
ATOM      3  N   UNL     1      16.152  -6.973  29.248  0.00  0.00    -0.314 N 
ATOM     14  C   UNL     1      16.458  -6.957  27.889  0.00  0.00    +0.216 C 
ATOM     21  H   UNL     1      15.900  -7.855  29.684  0.00  0.00    +0.149 HD
BRANCH  14  13
ATOM     13  C   UNL     1      16.398  -8.321  27.266  0.00  0.00    +0.075 C 
ATOM     15  C   UNL     1      15.809  -9.323  28.261  0.00  0.00    +0.013 C 
ATOM     16  C   UNL     1      15.579  -8.268  25.975  0.00  0.00    +0.013 C 
ATOM     17  C   UNL     1      15.643 -10.706  27.637  0.00  0.00    +0.001 C 
ATOM     18  C   UNL     1      15.412  -9.654  25.355  0.00  0.00    +0.001 C 
ATOM     19  C   UNL     1      14.824 -10.648  26.352  0.00  0.00    +0.000 C 
ENDBRANCH  14  13
ENDBRANCH  11   3
TORSDOF 4
ENDMDL
