MODEL 1
REMARK VINA RESULT:       0.1      0.000      0.000
REMARK  Name = 45784294
REMARK  5 active torsions:
REMARK  status: ('A' for Active; 'I' for Inactive)
REMARK    1  A    between atoms: O_1  and  C_21
REMARK    2  A    between atoms: O_1  and  C_23
REMARK    3  A    between atoms: N_2  and  C_6
REMARK    4  A    between atoms: N_3  and  C_16
REMARK    5  A    between atoms: C_7  and  C_15
REMARK                            x       y       z     vdW  Elec       q    Type
REMARK                         _______ _______ _______ _____ _____    ______ ____
ROOT
ATOM      2  N   UNL     1      -2.946   0.129  24.588  0.00  0.00    -0.299 NA
ATOM      7  C   UNL     1      -0.995  -0.644  23.540  0.00  0.00    +0.070 C 
ATOM      8  C   UNL     1      -1.795   0.632  23.836  0.00  0.00    +0.096 C 
ATOM      9  C   UNL     1      -2.389  -0.853  25.519  0.00  0.00    +0.085 C 
ATOM     10  C   UNL     1      -1.409  -1.629  24.647  0.00  0.00    +0.028 C 
ENDROOT
BRANCH   7  15
ATOM      4  N   UNL     1       1.399  -1.329  23.860  0.00  0.00    -0.341 N 
ATOM      5  N   UNL     1       1.079   0.674  22.950  0.00  0.00    -0.232 NA
ATOM     15  C   UNL     1       0.492  -0.397  23.434  0.00  0.00    +0.113 A 
ATOM     17  C   UNL     1       2.653  -0.823  23.636  0.00  0.00    +0.070 A 
ATOM     18  C   UNL     1       2.427   0.427  23.069  0.00  0.00    +0.089 A 
ATOM     19  C   UNL     1       3.929  -1.338  23.874  0.00  0.00    +0.073 A 
ATOM     20  C   UNL     1       3.527   1.227  22.712  0.00  0.00    +0.033 A 
ATOM     21  C   UNL     1       5.011  -0.529  23.513  0.00  0.00    +0.122 A 
ATOM     22  C   UNL     1       4.816   0.731  22.942  0.00  0.00    +0.048 A 
ATOM     24  H   UNL     1       1.186  -2.229  24.267  0.00  0.00    +0.167 HD
BRANCH  21   1
ATOM      1  O   UNL     1       6.281  -0.980  23.723  0.00  0.00    -0.495 OA
ATOM     23  C   UNL     1       7.333  -0.283  23.060  0.00  0.00    +0.277 C 
ENDBRANCH  21   1
ENDBRANCH   7  15
BRANCH   2   6
ATOM      3  N   UNL     1      -5.258   3.651  25.142  0.00  0.00    -0.305 NA
ATOM      6  C   UNL     1      -3.673   1.193  25.272  0.00  0.00    +0.059 C 
ATOM     11  C   UNL     1      -3.042   2.560  24.990  0.00  0.00    +0.034 C 
ATOM     12  C   UNL     1      -5.141   1.198  24.837  0.00  0.00    +0.034 C 
ATOM     13  C   UNL     1      -3.867   3.687  25.615  0.00  0.00    +0.085 C 
ATOM     14  C   UNL     1      -5.898   2.369  25.468  0.00  0.00    +0.085 C 
ATOM     16  C   UNL     1      -6.020   4.763  25.710  0.00  0.00    +0.104 C 
ENDBRANCH   2   6
TORSDOF 3
ENDMDL
MODEL 2
REMARK VINA RESULT:       2.8      3.121      8.428
REMARK  Name = 45784294
REMARK  5 active torsions:
REMARK  status: ('A' for Active; 'I' for Inactive)
REMARK    1  A    between atoms: O_1  and  C_21
REMARK    2  A    between atoms: O_1  and  C_23
REMARK    3  A    between atoms: N_2  and  C_6
REMARK    4  A    between atoms: N_3  and  C_16
REMARK    5  A    between atoms: C_7  and  C_15
REMARK                            x       y       z     vdW  Elec       q    Type
REMARK                         _______ _______ _______ _____ _____    ______ ____
ROOT
ATOM      2  N   UNL     1       1.623  -0.892  22.790  0.00  0.00    -0.299 NA
ATOM      7  C   UNL     1      -0.523  -0.413  23.607  0.00  0.00    +0.070 C 
ATOM      8  C   UNL     1       0.968  -0.284  23.950  0.00  0.00    +0.096 C 
ATOM      9  C   UNL     1       0.891  -0.379  21.631  0.00  0.00    +0.085 C 
ATOM     10  C   UNL     1      -0.563  -0.495  22.071  0.00  0.00    +0.028 C 
ENDROOT
BRANCH   7  15
ATOM      4  N   UNL     1      -2.730   0.646  24.164  0.00  0.00    -0.341 N 
ATOM      5  N   UNL     1      -0.925   1.774  24.807  0.00  0.00    -0.232 NA
ATOM     15  C   UNL     1      -1.363   0.691  24.205  0.00  0.00    +0.113 A 
ATOM     17  C   UNL     1      -3.204   1.775  24.781  0.00  0.00    +0.070 A 
ATOM     18  C   UNL     1      -2.060   2.463  25.172  0.00  0.00    +0.089 A 
ATOM     19  C   UNL     1      -4.498   2.240  25.022  0.00  0.00    +0.073 A 
ATOM     20  C   UNL     1      -2.194   3.689  25.846  0.00  0.00    +0.033 A 
ATOM     21  C   UNL     1      -4.613   3.462  25.693  0.00  0.00    +0.122 A 
ATOM     22  C   UNL     1      -3.482   4.175  26.099  0.00  0.00    +0.048 A 
ATOM     24  H   UNL     1      -3.292  -0.087  23.754  0.00  0.00    +0.167 HD
BRANCH  21   1
ATOM      1  O   UNL     1      -5.854   3.965  25.955  0.00  0.00    -0.495 OA
ATOM     23  C   UNL     1      -6.170   5.233  25.385  0.00  0.00    +0.277 C 
ENDBRANCH  21   1
ENDBRANCH   7  15
BRANCH   2   6
ATOM      3  N   UNL     1       5.450   0.498  24.006  0.00  0.00    -0.305 NA
ATOM      6  C   UNL     1       3.048  -0.582  22.729  0.00  0.00    +0.059 C 
ATOM     11  C   UNL     1       3.290   0.923  22.876  0.00  0.00    +0.034 C 
ATOM     12  C   UNL     1       3.803  -1.340  23.823  0.00  0.00    +0.034 C 
ATOM     13  C   UNL     1       4.787   1.237  22.923  0.00  0.00    +0.085 C 
ATOM     14  C   UNL     1       5.284  -0.953  23.839  0.00  0.00    +0.085 C 
ATOM     16  C   UNL     1       6.869   0.847  24.069  0.00  0.00    +0.104 C 
ENDBRANCH   2   6
TORSDOF 3
ENDMDL
MODEL 3
REMARK VINA RESULT:       2.9      2.949      8.653
REMARK  Name = 45784294
REMARK  5 active torsions:
REMARK  status: ('A' for Active; 'I' for Inactive)
REMARK    1  A    between atoms: O_1  and  C_21
REMARK    2  A    between atoms: O_1  and  C_23
REMARK    3  A    between atoms: N_2  and  C_6
REMARK    4  A    between atoms: N_3  and  C_16
REMARK    5  A    between atoms: C_7  and  C_15
REMARK                            x       y       z     vdW  Elec       q    Type
REMARK                         _______ _______ _______ _____ _____    ______ ____
ROOT
ATOM      2  N   UNL     1       1.676  -0.825  23.240  0.00  0.00    -0.299 NA
ATOM      7  C   UNL     1      -0.660  -0.760  23.452  0.00  0.00    +0.070 C 
ATOM      8  C   UNL     1       0.642  -0.586  24.249  0.00  0.00    +0.096 C 
ATOM      9  C   UNL     1       1.215  -0.109  22.050  0.00  0.00    +0.085 C 
ATOM     10  C   UNL     1      -0.266  -0.461  21.995  0.00  0.00    +0.028 C 
ENDROOT
BRANCH   7  15
ATOM      4  N   UNL     1      -1.625   1.408  24.270  0.00  0.00    -0.341 N 
ATOM      5  N   UNL     1      -3.021  -0.321  24.240  0.00  0.00    -0.232 NA
ATOM     15  C   UNL     1      -1.795   0.081  23.988  0.00  0.00    +0.113 A 
ATOM     17  C   UNL     1      -2.820   1.894  24.734  0.00  0.00    +0.070 A 
ATOM     18  C   UNL     1      -3.674   0.796  24.707  0.00  0.00    +0.089 A 
ATOM     19  C   UNL     1      -3.215   3.162  25.163  0.00  0.00    +0.073 A 
ATOM     20  C   UNL     1      -5.006   0.952  25.129  0.00  0.00    +0.033 A 
ATOM     21  C   UNL     1      -4.543   3.300  25.580  0.00  0.00    +0.122 A 
ATOM     22  C   UNL     1      -5.424   2.216  25.564  0.00  0.00    +0.048 A 
ATOM     24  H   UNL     1      -0.772   1.940  24.157  0.00  0.00    +0.167 HD
BRANCH  21   1
ATOM      1  O   UNL     1      -4.984   4.517  26.010  0.00  0.00    -0.495 OA
ATOM     23  C   UNL     1      -6.283   4.922  25.582  0.00  0.00    +0.277 C 
ENDBRANCH  21   1
ENDBRANCH   7  15
BRANCH   2   6
ATOM      3  N   UNL     1       5.872  -0.156  23.189  0.00  0.00    -0.305 NA
ATOM      6  C   UNL     1       2.995  -0.382  23.680  0.00  0.00    +0.059 C 
ATOM     11  C   UNL     1       3.949  -1.570  23.842  0.00  0.00    +0.034 C 
ATOM     12  C   UNL     1       3.578   0.621  22.681  0.00  0.00    +0.034 C 
ATOM     13  C   UNL     1       5.360  -1.097  24.195  0.00  0.00    +0.085 C 
ATOM     14  C   UNL     1       5.003   1.023  23.073  0.00  0.00    +0.085 C 
ATOM     16  C   UNL     1       7.240   0.246  23.515  0.00  0.00    +0.104 C 
ENDBRANCH   2   6
TORSDOF 3
ENDMDL
MODEL 4
REMARK VINA RESULT:       3.6      1.225      2.117
REMARK  Name = 45784294
REMARK  5 active torsions:
REMARK  status: ('A' for Active; 'I' for Inactive)
REMARK    1  A    between atoms: O_1  and  C_21
REMARK    2  A    between atoms: O_1  and  C_23
REMARK    3  A    between atoms: N_2  and  C_6
REMARK    4  A    between atoms: N_3  and  C_16
REMARK    5  A    between atoms: C_7  and  C_15
REMARK                            x       y       z     vdW  Elec       q    Type
REMARK                         _______ _______ _______ _____ _____    ______ ____
ROOT
ATOM      2  N   UNL     1      -4.237   0.013  24.533  0.00  0.00    -0.299 NA
ATOM      7  C   UNL     1      -2.292  -1.242  24.157  0.00  0.00    +0.070 C 
ATOM      8  C   UNL     1      -3.045   0.009  23.683  0.00  0.00    +0.096 C 
ATOM      9  C   UNL     1      -3.749  -0.323  25.870  0.00  0.00    +0.085 C 
ATOM     10  C   UNL     1      -2.779  -1.467  25.599  0.00  0.00    +0.028 C 
ENDROOT
BRANCH   7  15
ATOM      4  N   UNL     1      -0.228  -0.047  23.375  0.00  0.00    -0.341 N 
ATOM      5  N   UNL     1       0.112  -1.974  24.429  0.00  0.00    -0.232 NA
ATOM     15  C   UNL     1      -0.793  -1.121  24.005  0.00  0.00    +0.113 A 
ATOM     17  C   UNL     1       1.132  -0.219  23.394  0.00  0.00    +0.070 A 
ATOM     18  C   UNL     1       1.319  -1.429  24.055  0.00  0.00    +0.089 A 
ATOM     19  C   UNL     1       2.183   0.557  22.902  0.00  0.00    +0.073 A 
ATOM     20  C   UNL     1       2.626  -1.909  24.248  0.00  0.00    +0.033 A 
ATOM     21  C   UNL     1       3.477   0.063  23.103  0.00  0.00    +0.122 A 
ATOM     22  C   UNL     1       3.696  -1.148  23.764  0.00  0.00    +0.048 A 
ATOM     24  H   UNL     1      -0.721   0.736  22.967  0.00  0.00    +0.167 HD
BRANCH  21   1
ATOM      1  O   UNL     1       4.543   0.780  22.644  0.00  0.00    -0.495 OA
ATOM     23  C   UNL     1       5.783   0.603  23.326  0.00  0.00    +0.277 C 
ENDBRANCH  21   1
ENDBRANCH   7  15
BRANCH   2   6
ATOM      3  N   UNL     1      -5.383   3.952  25.643  0.00  0.00    -0.305 NA
ATOM      6  C   UNL     1      -4.938   1.293  24.503  0.00  0.00    +0.059 C 
ATOM     11  C   UNL     1      -5.746   1.508  25.787  0.00  0.00    +0.034 C 
ATOM     12  C   UNL     1      -3.942   2.440  24.316  0.00  0.00    +0.034 C 
ATOM     13  C   UNL     1      -6.391   2.895  25.804  0.00  0.00    +0.085 C 
ATOM     14  C   UNL     1      -4.647   3.797  24.381  0.00  0.00    +0.085 C 
ATOM     16  C   UNL     1      -6.009   5.272  25.712  0.00  0.00    +0.104 C 
ENDBRANCH   2   6
TORSDOF 3
ENDMDL
MODEL 5
REMARK VINA RESULT:       4.0      1.235      2.153
REMARK  Name = 45784294
REMARK  5 active torsions:
REMARK  status: ('A' for Active; 'I' for Inactive)
REMARK    1  A    between atoms: O_1  and  C_21
REMARK    2  A    between atoms: O_1  and  C_23
REMARK    3  A    between atoms: N_2  and  C_6
REMARK    4  A    between atoms: N_3  and  C_16
REMARK    5  A    between atoms: C_7  and  C_15
REMARK                            x       y       z     vdW  Elec       q    Type
REMARK                         _______ _______ _______ _____ _____    ______ ____
ROOT
ATOM      2  N   UNL     1      -2.116   1.184  23.513  0.00  0.00    -0.299 NA
ATOM      7  C   UNL     1      -0.278  -0.140  22.904  0.00  0.00    +0.070 C 
ATOM      8  C   UNL     1      -0.741   1.319  23.027  0.00  0.00    +0.096 C 
ATOM      9  C   UNL     1      -2.054   0.143  24.539  0.00  0.00    +0.085 C 
ATOM     10  C   UNL     1      -1.166  -0.915  23.894  0.00  0.00    +0.028 C 
ENDROOT
BRANCH   7  15
ATOM      4  N   UNL     1       2.089   0.689  22.797  0.00  0.00    -0.341 N 
ATOM      5  N   UNL     1       1.818  -1.360  23.616  0.00  0.00    -0.232 NA
ATOM     15  C   UNL     1       1.208  -0.307  23.121  0.00  0.00    +0.113 A 
ATOM     17  C   UNL     1       3.350   0.247  23.105  0.00  0.00    +0.070 A 
ATOM     18  C   UNL     1       3.155  -1.033  23.613  0.00  0.00    +0.089 A 
ATOM     19  C   UNL     1       4.608   0.841  22.984  0.00  0.00    +0.073 A 
ATOM     20  C   UNL     1       4.268  -1.782  24.031  0.00  0.00    +0.033 A 
ATOM     21  C   UNL     1       5.705   0.081  23.406  0.00  0.00    +0.122 A 
ATOM     22  C   UNL     1       5.540  -1.207  23.921  0.00  0.00    +0.048 A 
ATOM     24  H   UNL     1       1.856   1.590  22.403  0.00  0.00    +0.167 HD
BRANCH  21   1
ATOM      1  O   UNL     1       6.958   0.611  23.311  0.00  0.00    -0.495 OA
ATOM     23  C   UNL     1       8.028  -0.300  23.070  0.00  0.00    +0.277 C 
ENDBRANCH  21   1
ENDBRANCH   7  15
BRANCH   2   6
ATOM      3  N   UNL     1      -3.243   4.183  26.305  0.00  0.00    -0.305 NA
ATOM      6  C   UNL     1      -2.649   2.442  24.029  0.00  0.00    +0.059 C 
ATOM     11  C   UNL     1      -3.839   2.193  24.961  0.00  0.00    +0.034 C 
ATOM     12  C   UNL     1      -1.558   3.216  24.772  0.00  0.00    +0.034 C 
ATOM     13  C   UNL     1      -4.328   3.500  25.588  0.00  0.00    +0.085 C 
ATOM     14  C   UNL     1      -2.122   4.491  25.405  0.00  0.00    +0.085 C 
ATOM     16  C   UNL     1      -3.739   5.404  26.940  0.00  0.00    +0.104 C 
ENDBRANCH   2   6
TORSDOF 3
ENDMDL
