MODEL 1
REMARK VINA RESULT:      -1.3      0.000      0.000
REMARK  Name = 7685242
REMARK  4 active torsions:
REMARK  status: ('A' for Active; 'I' for Inactive)
REMARK    1  A    between atoms: S_2  and  C_20
REMARK    2  A    between atoms: S_2  and  C_24
REMARK    3  A    between atoms: C_14  and  C_19
REMARK    4  A    between atoms: C_16  and  C_20
REMARK                            x       y       z     vdW  Elec       q    Type
REMARK                         _______ _______ _______ _____ _____    ______ ____
ROOT
ATOM      3  O   UNL     1      -2.385   4.576  26.843  0.00  0.00    -0.268 OA
ATOM      4  O   UNL     1      -5.393   0.344  26.002  0.00  0.00    -0.275 OA
ATOM      5  N   UNL     1      -4.093   0.764  24.123  0.00  0.00    -0.300 N 
ATOM      6  N   UNL     1      -2.245   3.224  24.934  0.00  0.00    -0.311 N 
ATOM      7  C   UNL     1      -4.175   3.094  23.249  0.00  0.00    +0.027 C 
ATOM      8  C   UNL     1      -2.152   1.741  22.907  0.00  0.00    +0.054 C 
ATOM      9  C   UNL     1      -3.084   2.755  22.246  0.00  0.00    +0.018 C 
ATOM     10  C   UNL     1      -4.965   1.835  23.643  0.00  0.00    +0.113 C 
ATOM     11  C   UNL     1      -3.528   3.765  24.461  0.00  0.00    +0.130 C 
ATOM     12  C   UNL     1      -2.946   0.465  23.256  0.00  0.00    +0.117 C 
ATOM     13  C   UNL     1      -1.490   2.315  24.165  0.00  0.00    +0.035 A 
ATOM     14  C   UNL     1      -0.239   1.964  24.569  0.00  0.00    +0.009 A 
ATOM     15  C   UNL     1      -1.773   3.770  26.141  0.00  0.00    +0.252 A 
ATOM     16  C   UNL     1      -4.424   0.073  25.288  0.00  0.00    +0.225 C 
ATOM     17  C   UNL     1       0.278   2.505  25.814  0.00  0.00    +0.016 A 
ATOM     18  C   UNL     1      -0.426   3.341  26.578  0.00  0.00    +0.071 A 
ENDROOT
BRANCH  14  19
ATOM      1  S   UNL     1       2.107   1.555  23.251  0.00  0.00    -0.097 S 
ATOM     19  C   UNL     1       0.561   1.059  23.791  0.00  0.00    +0.021 A 
ATOM     21  C   UNL     1       0.258  -0.223  23.386  0.00  0.00    +0.016 A 
ATOM     22  C   UNL     1       1.310  -0.805  22.622  0.00  0.00    +0.008 A 
ATOM     23  C   UNL     1       2.377   0.054  22.473  0.00  0.00    +0.046 A 
ENDBRANCH  14  19
BRANCH  16  20
ATOM     20  C   UNL     1      -3.517  -1.066  25.680  0.00  0.00    +0.164 C 
BRANCH  20   2
ATOM      2  S   UNL     1      -3.742  -2.383  24.476  0.00  0.00    -0.155 S 
ATOM     24  C   UNL     1      -2.014  -2.891  24.292  0.00  0.00    +0.085 C 
ENDBRANCH  20   2
ENDBRANCH  16  20
TORSDOF 3
ENDMDL
MODEL 2
REMARK VINA RESULT:       1.3      2.041      4.625
REMARK  Name = 7685242
REMARK  4 active torsions:
REMARK  status: ('A' for Active; 'I' for Inactive)
REMARK    1  A    between atoms: S_2  and  C_20
REMARK    2  A    between atoms: S_2  and  C_24
REMARK    3  A    between atoms: C_14  and  C_19
REMARK    4  A    between atoms: C_16  and  C_20
REMARK                            x       y       z     vdW  Elec       q    Type
REMARK                         _______ _______ _______ _____ _____    ______ ____
ROOT
ATOM      3  O   UNL     1      -3.908   4.007  21.128  0.00  0.00    -0.268 OA
ATOM      4  O   UNL     1      -1.206   5.524  25.379  0.00  0.00    -0.275 OA
ATOM      5  N   UNL     1      -2.551   3.707  25.915  0.00  0.00    -0.300 N 
ATOM      6  N   UNL     1      -3.925   2.862  23.172  0.00  0.00    -0.311 N 
ATOM      7  C   UNL     1      -4.950   3.909  25.278  0.00  0.00    +0.027 C 
ATOM      8  C   UNL     1      -3.909   1.685  25.394  0.00  0.00    +0.054 C 
ATOM      9  C   UNL     1      -5.183   2.469  25.704  0.00  0.00    +0.018 C 
ATOM     10  C   UNL     1      -3.761   4.518  26.040  0.00  0.00    +0.113 C 
ATOM     11  C   UNL     1      -4.733   3.938  23.764  0.00  0.00    +0.130 C 
ATOM     12  C   UNL     1      -2.733   2.277  26.198  0.00  0.00    +0.117 C 
ATOM     13  C   UNL     1      -3.587   1.700  23.894  0.00  0.00    +0.035 A 
ATOM     14  C   UNL     1      -2.975   0.663  23.259  0.00  0.00    +0.009 A 
ATOM     15  C   UNL     1      -3.624   3.020  21.808  0.00  0.00    +0.252 A 
ATOM     16  C   UNL     1      -1.335   4.320  25.615  0.00  0.00    +0.225 C 
ATOM     17  C   UNL     1      -2.644   0.795  21.852  0.00  0.00    +0.016 A 
ATOM     18  C   UNL     1      -2.923   1.895  21.151  0.00  0.00    +0.071 A 
ENDROOT
BRANCH  14  19
ATOM      1  S   UNL     1      -3.836  -1.749  24.182  0.00  0.00    -0.097 S 
ATOM     19  C   UNL     1      -2.642  -0.542  23.967  0.00  0.00    +0.021 A 
ATOM     21  C   UNL     1      -1.438  -0.899  24.535  0.00  0.00    +0.016 A 
ATOM     22  C   UNL     1      -1.498  -2.181  25.155  0.00  0.00    +0.008 A 
ATOM     23  C   UNL     1      -2.745  -2.754  25.036  0.00  0.00    +0.046 A 
ENDBRANCH  14  19
BRANCH  16  20
ATOM     20  C   UNL     1      -0.119   3.428  25.575  0.00  0.00    +0.164 C 
BRANCH  20   2
ATOM      2  S   UNL     1       0.107   2.886  23.875  0.00  0.00    -0.155 S 
ATOM     24  C   UNL     1       0.930   1.306  24.193  0.00  0.00    +0.085 C 
ENDBRANCH  20   2
ENDBRANCH  16  20
TORSDOF 3
ENDMDL
MODEL 3
REMARK VINA RESULT:       1.9      2.537      4.093
REMARK  Name = 7685242
REMARK  4 active torsions:
REMARK  status: ('A' for Active; 'I' for Inactive)
REMARK    1  A    between atoms: S_2  and  C_20
REMARK    2  A    between atoms: S_2  and  C_24
REMARK    3  A    between atoms: C_14  and  C_19
REMARK    4  A    between atoms: C_16  and  C_20
REMARK                            x       y       z     vdW  Elec       q    Type
REMARK                         _______ _______ _______ _____ _____    ______ ____
ROOT
ATOM      3  O   UNL     1       0.829   2.483  26.994  0.00  0.00    -0.268 OA
ATOM      4  O   UNL     1      -3.753   4.985  26.350  0.00  0.00    -0.275 OA
ATOM      5  N   UNL     1      -3.413   3.510  24.587  0.00  0.00    -0.300 N 
ATOM      6  N   UNL     1      -0.705   1.996  25.291  0.00  0.00    -0.311 N 
ATOM      7  C   UNL     1      -1.215   3.690  23.433  0.00  0.00    +0.027 C 
ATOM      8  C   UNL     1      -2.386   1.529  23.481  0.00  0.00    +0.054 C 
ATOM      9  C   UNL     1      -1.551   2.460  22.604  0.00  0.00    +0.018 C 
ATOM     10  C   UNL     1      -2.496   4.408  23.888  0.00  0.00    +0.113 C 
ATOM     11  C   UNL     1      -0.352   3.255  24.618  0.00  0.00    +0.130 C 
ATOM     12  C   UNL     1      -3.689   2.245  23.894  0.00  0.00    +0.117 C 
ATOM     13  C   UNL     1      -1.612   1.077  24.725  0.00  0.00    +0.035 A 
ATOM     14  C   UNL     1      -1.787  -0.142  25.303  0.00  0.00    +0.009 A 
ATOM     15  C   UNL     1       0.016   1.723  26.467  0.00  0.00    +0.252 A 
ATOM     16  C   UNL     1      -4.002   3.917  25.785  0.00  0.00    +0.225 C 
ATOM     17  C   UNL     1      -1.063  -0.456  26.522  0.00  0.00    +0.016 A 
ATOM     18  C   UNL     1      -0.223   0.406  27.097  0.00  0.00    +0.071 A 
ENDROOT
BRANCH  14  19
ATOM      1  S   UNL     1      -2.111  -2.672  24.351  0.00  0.00    -0.097 S 
ATOM     19  C   UNL     1      -2.688  -1.106  24.733  0.00  0.00    +0.021 A 
ATOM     21  C   UNL     1      -4.022  -0.957  24.426  0.00  0.00    +0.016 A 
ATOM     22  C   UNL     1      -4.579  -2.145  23.870  0.00  0.00    +0.008 A 
ATOM     23  C   UNL     1      -3.648  -3.156  23.773  0.00  0.00    +0.046 A 
ENDBRANCH  14  19
BRANCH  16  20
ATOM     20  C   UNL     1      -4.993   2.967  26.409  0.00  0.00    +0.164 C 
BRANCH  20   2
ATOM      2  S   UNL     1      -6.557   3.161  25.542  0.00  0.00    -0.155 S 
ATOM     24  C   UNL     1      -6.684   1.504  24.824  0.00  0.00    +0.085 C 
ENDBRANCH  20   2
ENDBRANCH  16  20
TORSDOF 3
ENDMDL
MODEL 4
REMARK VINA RESULT:       2.3      2.511      3.613
REMARK  Name = 7685242
REMARK  4 active torsions:
REMARK  status: ('A' for Active; 'I' for Inactive)
REMARK    1  A    between atoms: S_2  and  C_20
REMARK    2  A    between atoms: S_2  and  C_24
REMARK    3  A    between atoms: C_14  and  C_19
REMARK    4  A    between atoms: C_16  and  C_20
REMARK                            x       y       z     vdW  Elec       q    Type
REMARK                         _______ _______ _______ _____ _____    ______ ____
ROOT
ATOM      3  O   UNL     1       0.280   4.252  25.322  0.00  0.00    -0.268 OA
ATOM      4  O   UNL     1      -4.945   4.797  25.597  0.00  0.00    -0.275 OA
ATOM      5  N   UNL     1      -4.417   3.015  24.204  0.00  0.00    -0.300 N 
ATOM      6  N   UNL     1      -1.248   2.768  24.346  0.00  0.00    -0.311 N 
ATOM      7  C   UNL     1      -2.762   3.497  22.408  0.00  0.00    +0.027 C 
ATOM      8  C   UNL     1      -2.938   1.219  23.314  0.00  0.00    +0.054 C 
ATOM      9  C   UNL     1      -2.743   2.025  22.031  0.00  0.00    +0.018 C 
ATOM     10  C   UNL     1      -4.099   3.876  23.066  0.00  0.00    +0.113 C 
ATOM     11  C   UNL     1      -1.572   3.777  23.328  0.00  0.00    +0.130 C 
ATOM     12  C   UNL     1      -4.303   1.574  23.941  0.00  0.00    +0.117 C 
ATOM     13  C   UNL     1      -1.810   1.475  24.320  0.00  0.00    +0.035 A 
ATOM     14  C   UNL     1      -1.362   0.526  25.187  0.00  0.00    +0.009 A 
ATOM     15  C   UNL     1      -0.252   3.143  25.266  0.00  0.00    +0.252 A 
ATOM     16  C   UNL     1      -4.858   3.583  25.399  0.00  0.00    +0.225 C 
ATOM     17  C   UNL     1      -0.338   0.881  26.154  0.00  0.00    +0.016 A 
ATOM     18  C   UNL     1       0.188   2.104  26.222  0.00  0.00    +0.071 A 
ENDROOT
BRANCH  14  19
ATOM      1  S   UNL     1      -3.367  -1.134  25.984  0.00  0.00    -0.097 S 
ATOM     19  C   UNL     1      -1.901  -0.806  25.165  0.00  0.00    +0.021 A 
ATOM     21  C   UNL     1      -1.389  -1.928  24.551  0.00  0.00    +0.016 A 
ATOM     22  C   UNL     1      -2.213  -3.073  24.756  0.00  0.00    +0.008 A 
ATOM     23  C   UNL     1      -3.322  -2.781  25.519  0.00  0.00    +0.046 A 
ENDBRANCH  14  19
BRANCH  16  20
ATOM     20  C   UNL     1      -5.237   2.627  26.502  0.00  0.00    +0.164 C 
BRANCH  20   2
ATOM      2  S   UNL     1      -6.694   1.721  25.964  0.00  0.00    -0.155 S 
ATOM     24  C   UNL     1      -7.181   1.007  27.554  0.00  0.00    +0.085 C 
ENDBRANCH  20   2
ENDBRANCH  16  20
TORSDOF 3
ENDMDL
MODEL 5
REMARK VINA RESULT:       2.4      1.915      3.800
REMARK  Name = 7685242
REMARK  4 active torsions:
REMARK  status: ('A' for Active; 'I' for Inactive)
REMARK    1  A    between atoms: S_2  and  C_20
REMARK    2  A    between atoms: S_2  and  C_24
REMARK    3  A    between atoms: C_14  and  C_19
REMARK    4  A    between atoms: C_16  and  C_20
REMARK                            x       y       z     vdW  Elec       q    Type
REMARK                         _______ _______ _______ _____ _____    ______ ____
ROOT
ATOM      3  O   UNL     1      -2.979  -1.035  26.475  0.00  0.00    -0.268 OA
ATOM      4  O   UNL     1      -4.153   3.257  23.669  0.00  0.00    -0.275 OA
ATOM      5  N   UNL     1      -1.888   3.256  24.186  0.00  0.00    -0.300 N 
ATOM      6  N   UNL     1      -1.390   0.503  25.702  0.00  0.00    -0.311 N 
ATOM      7  C   UNL     1      -1.325   2.910  26.587  0.00  0.00    +0.027 C 
ATOM      8  C   UNL     1       0.264   2.195  24.853  0.00  0.00    +0.054 C 
ATOM      9  C   UNL     1       0.151   2.847  26.230  0.00  0.00    +0.018 C 
ATOM     10  C   UNL     1      -2.103   3.738  25.550  0.00  0.00    +0.113 C 
ATOM     11  C   UNL     1      -1.860   1.481  26.694  0.00  0.00    +0.130 C 
ATOM     12  C   UNL     1      -0.481   3.058  23.814  0.00  0.00    +0.117 C 
ATOM     13  C   UNL     1      -0.294   0.767  24.855  0.00  0.00    +0.035 A 
ATOM     14  C   UNL     1       0.203  -0.223  24.066  0.00  0.00    +0.009 A 
ATOM     15  C   UNL     1      -2.029  -0.749  25.745  0.00  0.00    +0.252 A 
ATOM     16  C   UNL     1      -2.978   3.086  23.333  0.00  0.00    +0.225 C 
ATOM     17  C   UNL     1      -0.436  -1.527  24.082  0.00  0.00    +0.016 A 
ATOM     18  C   UNL     1      -1.493  -1.796  24.848  0.00  0.00    +0.071 A 
ENDROOT
BRANCH  14  19
ATOM      1  S   UNL     1       1.335  -0.620  21.622  0.00  0.00    -0.097 S 
ATOM     19  C   UNL     1       1.335   0.013  23.212  0.00  0.00    +0.021 A 
ATOM     21  C   UNL     1       2.490   0.710  23.491  0.00  0.00    +0.016 A 
ATOM     22  C   UNL     1       3.387   0.725  22.384  0.00  0.00    +0.008 A 
ATOM     23  C   UNL     1       2.883   0.038  21.301  0.00  0.00    +0.046 A 
ENDBRANCH  14  19
BRANCH  16  20
ATOM     20  C   UNL     1      -2.671   2.657  21.920  0.00  0.00    +0.164 C 
BRANCH  20   2
ATOM      2  S   UNL     1      -2.450   0.872  21.926  0.00  0.00    -0.155 S 
ATOM     24  C   UNL     1      -3.688   0.442  23.174  0.00  0.00    +0.085 C 
ENDBRANCH  20   2
ENDBRANCH  16  20
TORSDOF 3
ENDMDL
MODEL 6
REMARK VINA RESULT:       2.6      2.566      5.812
REMARK  Name = 7685242
REMARK  4 active torsions:
REMARK  status: ('A' for Active; 'I' for Inactive)
REMARK    1  A    between atoms: S_2  and  C_20
REMARK    2  A    between atoms: S_2  and  C_24
REMARK    3  A    between atoms: C_14  and  C_19
REMARK    4  A    between atoms: C_16  and  C_20
REMARK                            x       y       z     vdW  Elec       q    Type
REMARK                         _______ _______ _______ _____ _____    ______ ____
ROOT
ATOM      3  O   UNL     1      -0.451  -2.364  25.731  0.00  0.00    -0.268 OA
ATOM      4  O   UNL     1       1.019   2.657  26.281  0.00  0.00    -0.275 OA
ATOM      5  N   UNL     1      -0.623   2.498  24.645  0.00  0.00    -0.300 N 
ATOM      6  N   UNL     1      -1.475  -0.567  24.629  0.00  0.00    -0.311 N 
ATOM      7  C   UNL     1      -0.218   0.806  22.864  0.00  0.00    +0.027 C 
ATOM      8  C   UNL     1      -2.525   1.401  23.469  0.00  0.00    +0.054 C 
ATOM      9  C   UNL     1      -1.603   1.073  22.296  0.00  0.00    +0.018 C 
ATOM     10  C   UNL     1       0.310   2.037  23.619  0.00  0.00    +0.113 C 
ATOM     11  C   UNL     1      -0.294  -0.428  23.766  0.00  0.00    +0.130 C 
ATOM     12  C   UNL     1      -2.010   2.664  24.190  0.00  0.00    +0.117 C 
ATOM     13  C   UNL     1      -2.625   0.230  24.455  0.00  0.00    +0.035 A 
ATOM     14  C   UNL     1      -3.750  -0.040  25.171  0.00  0.00    +0.009 A 
ATOM     15  C   UNL     1      -1.423  -1.629  25.550  0.00  0.00    +0.252 A 
ATOM     16  C   UNL     1      -0.152   2.806  25.921  0.00  0.00    +0.225 C 
ATOM     17  C   UNL     1      -3.729  -1.125  26.135  0.00  0.00    +0.016 A 
ATOM     18  C   UNL     1      -2.647  -1.876  26.344  0.00  0.00    +0.071 A 
ENDROOT
BRANCH  14  19
ATOM      1  S   UNL     1      -5.102   2.230  25.826  0.00  0.00    -0.097 S 
ATOM     19  C   UNL     1      -4.942   0.743  24.995  0.00  0.00    +0.021 A 
ATOM     21  C   UNL     1      -6.044   0.465  24.216  0.00  0.00    +0.016 A 
ATOM     22  C   UNL     1      -7.032   1.488  24.302  0.00  0.00    +0.008 A 
ATOM     23  C   UNL     1      -6.647   2.508  25.144  0.00  0.00    +0.046 A 
ENDBRANCH  14  19
BRANCH  16  20
ATOM     20  C   UNL     1      -1.161   3.345  26.903  0.00  0.00    +0.164 C 
BRANCH  20   2
ATOM      2  S   UNL     1      -2.301   4.398  25.993  0.00  0.00    -0.155 S 
ATOM     24  C   UNL     1      -1.094   5.416  25.108  0.00  0.00    +0.085 C 
ENDBRANCH  20   2
ENDBRANCH  16  20
TORSDOF 3
ENDMDL
