MODEL 1
REMARK VINA RESULT:       0.8      0.000      0.000
REMARK  Name = 7143745
REMARK  4 active torsions:
REMARK  status: ('A' for Active; 'I' for Inactive)
REMARK    1  A    between atoms: S_2  and  C_19
REMARK    2  A    between atoms: S_2  and  C_25
REMARK    3  A    between atoms: C_16  and  C_19
REMARK    4  A    between atoms: C_17  and  C_20
REMARK                            x       y       z     vdW  Elec       q    Type
REMARK                         _______ _______ _______ _____ _____    ______ ____
ROOT
ATOM      3  O   UNL     1       0.863   1.868  25.251  0.00  0.00    -0.267 OA
ATOM      4  O   UNL     1      -3.267  -1.089  26.925  0.00  0.00    -0.275 OA
ATOM      5  N   UNL     1      -3.855   0.161  25.057  0.00  0.00    -0.300 N 
ATOM      6  N   UNL     1      -1.195   1.689  24.168  0.00  0.00    -0.311 N 
ATOM      7  C   UNL     1      -3.364   2.607  25.173  0.00  0.00    +0.027 C 
ATOM      8  C   UNL     1      -3.412   1.476  22.991  0.00  0.00    +0.054 C 
ATOM      9  C   UNL     1      -3.809   2.756  23.724  0.00  0.00    +0.018 C 
ATOM     10  C   UNL     1      -4.046   1.392  25.827  0.00  0.00    +0.113 C 
ATOM     11  C   UNL     1      -1.835   2.501  25.213  0.00  0.00    +0.130 C 
ATOM     12  C   UNL     1      -4.143   0.273  23.618  0.00  0.00    +0.117 C 
ATOM     13  C   UNL     1      -1.913   1.254  23.052  0.00  0.00    +0.027 A 
ATOM     14  C   UNL     1      -1.281   0.618  22.052  0.00  0.00    +0.022 A 
ATOM     15  C   UNL     1       0.190   1.470  24.298  0.00  0.00    +0.259 A 
ATOM     16  C   UNL     1      -3.504  -1.017  25.716  0.00  0.00    +0.225 C 
ATOM     17  C   UNL     1       0.864   0.722  23.179  0.00  0.00    +0.047 A 
ATOM     18  C   UNL     1       0.126   0.345  22.123  0.00  0.00    +0.015 A 
ENDROOT
BRANCH  17  20
ATOM      1 CL   UNL     1       6.696  -0.598  23.397  0.00  0.00    -0.084 Cl
ATOM     20  C   UNL     1       2.299   0.397  23.233  0.00  0.00    -0.013 A 
ATOM     21  C   UNL     1       3.248   1.366  22.901  0.00  0.00    +0.010 A 
ATOM     22  C   UNL     1       2.713  -0.880  23.616  0.00  0.00    +0.010 A 
ATOM     23  C   UNL     1       4.607   1.058  22.951  0.00  0.00    +0.020 A 
ATOM     24  C   UNL     1       4.073  -1.187  23.666  0.00  0.00    +0.020 A 
ATOM     26  C   UNL     1       5.019  -0.218  23.333  0.00  0.00    +0.041 A 
ENDBRANCH  17  20
BRANCH  16  19
ATOM     19  C   UNL     1      -3.411  -2.263  24.871  0.00  0.00    +0.164 C 
BRANCH  19   2
ATOM      2  S   UNL     1      -1.721  -2.389  24.269  0.00  0.00    -0.155 S 
ATOM     25  C   UNL     1      -0.879  -1.526  25.618  0.00  0.00    +0.085 C 
ENDBRANCH  19   2
ENDBRANCH  16  19
TORSDOF 3
ENDMDL
MODEL 2
REMARK VINA RESULT:       1.2      0.863      1.294
REMARK  Name = 7143745
REMARK  4 active torsions:
REMARK  status: ('A' for Active; 'I' for Inactive)
REMARK    1  A    between atoms: S_2  and  C_19
REMARK    2  A    between atoms: S_2  and  C_25
REMARK    3  A    between atoms: C_16  and  C_19
REMARK    4  A    between atoms: C_17  and  C_20
REMARK                            x       y       z     vdW  Elec       q    Type
REMARK                         _______ _______ _______ _____ _____    ______ ____
ROOT
ATOM      3  O   UNL     1       0.549   1.968  25.554  0.00  0.00    -0.267 OA
ATOM      4  O   UNL     1      -3.941  -0.749  26.582  0.00  0.00    -0.275 OA
ATOM      5  N   UNL     1      -4.335   0.931  25.026  0.00  0.00    -0.300 N 
ATOM      6  N   UNL     1      -1.493   2.275  24.469  0.00  0.00    -0.311 N 
ATOM      7  C   UNL     1      -3.555   3.218  25.658  0.00  0.00    +0.027 C 
ATOM      8  C   UNL     1      -3.694   2.589  23.285  0.00  0.00    +0.054 C 
ATOM      9  C   UNL     1      -3.949   3.723  24.276  0.00  0.00    +0.018 C 
ATOM     10  C   UNL     1      -4.392   1.984  26.041  0.00  0.00    +0.113 C 
ATOM     11  C   UNL     1      -2.051   2.919  25.666  0.00  0.00    +0.130 C 
ATOM     12  C   UNL     1      -4.578   1.379  23.646  0.00  0.00    +0.117 C 
ATOM     13  C   UNL     1      -2.234   2.177  23.289  0.00  0.00    +0.027 A 
ATOM     14  C   UNL     1      -1.662   1.696  22.174  0.00  0.00    +0.022 A 
ATOM     15  C   UNL     1      -0.147   1.866  24.542  0.00  0.00    +0.259 A 
ATOM     16  C   UNL     1      -4.143  -0.394  25.418  0.00  0.00    +0.225 C 
ATOM     17  C   UNL     1       0.455   1.295  23.286  0.00  0.00    +0.047 A 
ATOM     18  C   UNL     1      -0.301   1.243  22.178  0.00  0.00    +0.015 A 
ENDROOT
BRANCH  17  20
ATOM      1 CL   UNL     1       6.081  -0.742  23.193  0.00  0.00    -0.084 Cl
ATOM     20  C   UNL     1       1.839   0.793  23.262  0.00  0.00    -0.013 A 
ATOM     21  C   UNL     1       2.099  -0.553  23.521  0.00  0.00    +0.010 A 
ATOM     22  C   UNL     1       2.894   1.664  22.983  0.00  0.00    +0.010 A 
ATOM     23  C   UNL     1       3.411  -1.028  23.500  0.00  0.00    +0.020 A 
ATOM     24  C   UNL     1       4.205   1.190  22.961  0.00  0.00    +0.020 A 
ATOM     26  C   UNL     1       4.463  -0.157  23.220  0.00  0.00    +0.041 A 
ENDBRANCH  17  20
BRANCH  16  19
ATOM     19  C   UNL     1      -4.183  -1.434  24.327  0.00  0.00    +0.164 C 
BRANCH  19   2
ATOM      2  S   UNL     1      -2.935  -2.672  24.705  0.00  0.00    -0.155 S 
ATOM     25  C   UNL     1      -1.456  -1.646  24.509  0.00  0.00    +0.085 C 
ENDBRANCH  19   2
ENDBRANCH  16  19
TORSDOF 3
ENDMDL
