MODEL 1
REMARK VINA RESULT:      -4.2      0.000      0.000
REMARK  Name = 51137362
REMARK  4 active torsions:
REMARK  status: ('A' for Active; 'I' for Inactive)
REMARK    1  A    between atoms: N_2  and  C_6
REMARK    2  A    between atoms: C_8  and  C_16
REMARK    3  A    between atoms: C_17  and  C_18
REMARK    4  A    between atoms: C_18  and  C_19
REMARK                            x       y       z     vdW  Elec       q    Type
REMARK                         _______ _______ _______ _____ _____    ______ ____
ROOT
ATOM      1  O   UNL     1      -3.395   1.695  24.751  0.00  0.00    -0.424 OA
ATOM      3  N   UNL     1      -4.165   3.781  24.996  0.00  0.00    -0.112 NA
ATOM      4  N   UNL     1      -5.239   2.915  25.092  0.00  0.00    -0.112 NA
ATOM     16  C   UNL     1      -3.111   3.025  24.798  0.00  0.00    +0.222 A 
ATOM     17  C   UNL     1      -4.743   1.709  24.941  0.00  0.00    +0.222 A 
ENDROOT
BRANCH  16   8
ATOM      2  N   UNL     1       0.489   2.537  24.320  0.00  0.00    -0.299 NA
ATOM      7  C   UNL     1      -0.867   2.411  23.781  0.00  0.00    +0.097 C 
ATOM      8  C   UNL     1      -1.663   3.420  24.620  0.00  0.00    +0.092 C 
ATOM      9  C   UNL     1       0.314   2.601  25.771  0.00  0.00    +0.085 C 
ATOM     12  C   UNL     1      -0.864   3.553  25.929  0.00  0.00    +0.029 C 
BRANCH   2   6
ATOM      6  C   UNL     1       1.356   1.434  23.912  0.00  0.00    +0.057 C 
ATOM     10  C   UNL     1       2.589   1.981  23.184  0.00  0.00    +0.019 C 
ATOM     11  C   UNL     1       0.576   0.460  23.022  0.00  0.00    +0.019 C 
ATOM     13  C   UNL     1       3.482   0.851  22.675  0.00  0.00    +0.002 C 
ATOM     14  C   UNL     1       1.472  -0.668  22.513  0.00  0.00    +0.002 C 
ATOM     15  C   UNL     1       2.706  -0.127  21.797  0.00  0.00    +0.000 C 
ENDBRANCH   2   6
ENDBRANCH  16   8
BRANCH  17  18
ATOM     18  C   UNL     1      -5.425   0.409  24.955  0.00  0.00    +0.135 C 
BRANCH  18  19
ATOM      5  N   UNL     1      -3.846  -2.683  23.678  0.00  0.00    -0.360 N 
ATOM     19  C   UNL     1      -4.543  -0.778  24.579  0.00  0.00    -0.013 A 
ATOM     20  C   UNL     1      -3.201  -1.002  24.996  0.00  0.00    +0.003 A 
ATOM     21  C   UNL     1      -4.911  -1.827  23.771  0.00  0.00    +0.087 A 
ATOM     22  C   UNL     1      -2.788  -2.203  24.417  0.00  0.00    +0.047 A 
ATOM     23  C   UNL     1      -2.296  -0.295  25.813  0.00  0.00    +0.010 A 
ATOM     24  C   UNL     1      -1.509  -2.736  24.615  0.00  0.00    +0.026 A 
ATOM     25  C   UNL     1      -1.013  -0.816  26.019  0.00  0.00    +0.001 A 
ATOM     26  C   UNL     1      -0.628  -2.018  25.429  0.00  0.00    +0.002 A 
ATOM     27  H   UNL     1      -3.836  -3.541  23.146  0.00  0.00    +0.165 HD
ENDBRANCH  18  19
ENDBRANCH  17  18
TORSDOF 4
ENDMDL
MODEL 2
REMARK VINA RESULT:      -3.7      1.901      4.303
REMARK  Name = 51137362
REMARK  4 active torsions:
REMARK  status: ('A' for Active; 'I' for Inactive)
REMARK    1  A    between atoms: N_2  and  C_6
REMARK    2  A    between atoms: C_8  and  C_16
REMARK    3  A    between atoms: C_17  and  C_18
REMARK    4  A    between atoms: C_18  and  C_19
REMARK                            x       y       z     vdW  Elec       q    Type
REMARK                         _______ _______ _______ _____ _____    ______ ____
ROOT
ATOM      1  O   UNL     1      -2.459   0.170  23.892  0.00  0.00    -0.424 OA
ATOM      3  N   UNL     1      -1.064  -1.341  24.773  0.00  0.00    -0.112 NA
ATOM      4  N   UNL     1      -2.308  -1.522  25.348  0.00  0.00    -0.112 NA
ATOM     16  C   UNL     1      -1.199  -0.344  23.930  0.00  0.00    +0.222 A 
ATOM     17  C   UNL     1      -3.090  -0.618  24.805  0.00  0.00    +0.222 A 
ENDROOT
BRANCH  16   8
ATOM      2  N   UNL     1       2.128   0.401  22.588  0.00  0.00    -0.299 NA
ATOM      7  C   UNL     1       1.067  -0.584  22.812  0.00  0.00    +0.097 C 
ATOM      8  C   UNL     1      -0.175   0.293  23.019  0.00  0.00    +0.092 C 
ATOM      9  C   UNL     1       1.888   1.446  23.582  0.00  0.00    +0.085 C 
ATOM     12  C   UNL     1       0.379   1.642  23.512  0.00  0.00    +0.029 C 
BRANCH   2   6
ATOM      6  C   UNL     1       3.463  -0.182  22.703  0.00  0.00    +0.057 C 
ATOM     10  C   UNL     1       3.445  -1.328  23.721  0.00  0.00    +0.019 C 
ATOM     11  C   UNL     1       4.470   0.900  23.108  0.00  0.00    +0.019 C 
ATOM     13  C   UNL     1       4.842  -1.913  23.925  0.00  0.00    +0.002 C 
ATOM     14  C   UNL     1       5.866   0.312  23.313  0.00  0.00    +0.002 C 
ATOM     15  C   UNL     1       5.851  -0.837  24.317  0.00  0.00    +0.000 C 
ENDBRANCH   2   6
ENDBRANCH  16   8
BRANCH  17  18
ATOM     18  C   UNL     1      -4.515  -0.351  25.039  0.00  0.00    +0.135 C 
BRANCH  18  19
ATOM      5  N   UNL     1      -6.031   3.000  25.422  0.00  0.00    -0.360 N 
ATOM     19  C   UNL     1      -4.867   1.122  25.223  0.00  0.00    -0.013 A 
ATOM     20  C   UNL     1      -3.951   2.193  25.419  0.00  0.00    +0.003 A 
ATOM     21  C   UNL     1      -6.136   1.649  25.230  0.00  0.00    +0.087 A 
ATOM     22  C   UNL     1      -4.707   3.360  25.541  0.00  0.00    +0.047 A 
ATOM     23  C   UNL     1      -2.547   2.282  25.505  0.00  0.00    +0.010 A 
ATOM     24  C   UNL     1      -4.128   4.617  25.744  0.00  0.00    +0.026 A 
ATOM     25  C   UNL     1      -1.954   3.533  25.708  0.00  0.00    +0.001 A 
ATOM     26  C   UNL     1      -2.733   4.682  25.825  0.00  0.00    +0.002 A 
ATOM     27  H   UNL     1      -6.810   3.642  25.469  0.00  0.00    +0.165 HD
ENDBRANCH  18  19
ENDBRANCH  17  18
TORSDOF 4
ENDMDL
MODEL 3
REMARK VINA RESULT:      -3.2      1.564      5.454
REMARK  Name = 51137362
REMARK  4 active torsions:
REMARK  status: ('A' for Active; 'I' for Inactive)
REMARK    1  A    between atoms: N_2  and  C_6
REMARK    2  A    between atoms: C_8  and  C_16
REMARK    3  A    between atoms: C_17  and  C_18
REMARK    4  A    between atoms: C_18  and  C_19
REMARK                            x       y       z     vdW  Elec       q    Type
REMARK                         _______ _______ _______ _____ _____    ______ ____
ROOT
ATOM      1  O   UNL     1      -2.908  -0.716  24.344  0.00  0.00    -0.424 OA
ATOM      3  N   UNL     1      -4.603  -2.173  24.245  0.00  0.00    -0.112 NA
ATOM      4  N   UNL     1      -3.424  -2.893  24.301  0.00  0.00    -0.112 NA
ATOM     16  C   UNL     1      -4.253  -0.908  24.273  0.00  0.00    +0.222 A 
ATOM     17  C   UNL     1      -2.461  -2.002  24.357  0.00  0.00    +0.222 A 
ENDROOT
BRANCH  16   8
ATOM      2  N   UNL     1      -5.090   2.639  24.648  0.00  0.00    -0.299 NA
ATOM      7  C   UNL     1      -4.321   1.609  23.947  0.00  0.00    +0.097 C 
ATOM      8  C   UNL     1      -5.119   0.331  24.239  0.00  0.00    +0.092 C 
ATOM      9  C   UNL     1      -5.438   2.039  25.936  0.00  0.00    +0.085 C 
ATOM     12  C   UNL     1      -5.870   0.631  25.548  0.00  0.00    +0.029 C 
BRANCH   2   6
ATOM      6  C   UNL     1      -4.342   3.886  24.800  0.00  0.00    +0.057 C 
ATOM     10  C   UNL     1      -3.259   3.978  23.719  0.00  0.00    +0.019 C 
ATOM     11  C   UNL     1      -3.730   3.959  26.203  0.00  0.00    +0.019 C 
ATOM     13  C   UNL     1      -2.406   5.234  23.892  0.00  0.00    +0.002 C 
ATOM     14  C   UNL     1      -2.876   5.215  26.372  0.00  0.00    +0.002 C 
ATOM     15  C   UNL     1      -1.804   5.317  25.292  0.00  0.00    +0.000 C 
ENDBRANCH   2   6
ENDBRANCH  16   8
BRANCH  17  18
ATOM     18  C   UNL     1      -1.008  -2.198  24.434  0.00  0.00    +0.135 C 
BRANCH  18  19
ATOM      5  N   UNL     1       1.280   0.362  23.061  0.00  0.00    -0.360 N 
ATOM     19  C   UNL     1      -0.178  -0.971  24.071  0.00  0.00    -0.013 A 
ATOM     20  C   UNL     1      -0.229   0.303  24.704  0.00  0.00    +0.003 A 
ATOM     21  C   UNL     1       0.757  -0.903  23.066  0.00  0.00    +0.087 A 
ATOM     22  C   UNL     1       0.695   1.120  24.051  0.00  0.00    +0.047 A 
ATOM     23  C   UNL     1      -0.974   0.840  25.772  0.00  0.00    +0.010 A 
ATOM     24  C   UNL     1       0.913   2.454  24.415  0.00  0.00    +0.026 A 
ATOM     25  C   UNL     1      -0.768   2.172  26.147  0.00  0.00    +0.001 A 
ATOM     26  C   UNL     1       0.162   2.965  25.478  0.00  0.00    +0.002 A 
ATOM     27  H   UNL     1       1.991   0.694  22.424  0.00  0.00    +0.165 HD
ENDBRANCH  18  19
ENDBRANCH  17  18
TORSDOF 4
ENDMDL
MODEL 4
REMARK VINA RESULT:      -2.4      1.614      4.766
REMARK  Name = 51137362
REMARK  4 active torsions:
REMARK  status: ('A' for Active; 'I' for Inactive)
REMARK    1  A    between atoms: N_2  and  C_6
REMARK    2  A    between atoms: C_8  and  C_16
REMARK    3  A    between atoms: C_17  and  C_18
REMARK    4  A    between atoms: C_18  and  C_19
REMARK                            x       y       z     vdW  Elec       q    Type
REMARK                         _______ _______ _______ _____ _____    ______ ____
ROOT
ATOM      1  O   UNL     1      -3.133  -0.500  24.719  0.00  0.00    -0.424 OA
ATOM      3  N   UNL     1      -2.394  -2.597  24.474  0.00  0.00    -0.112 NA
ATOM      4  N   UNL     1      -3.773  -2.618  24.383  0.00  0.00    -0.112 NA
ATOM     16  C   UNL     1      -2.065  -1.342  24.669  0.00  0.00    +0.222 A 
ATOM     17  C   UNL     1      -4.161  -1.373  24.533  0.00  0.00    +0.222 A 
ENDROOT
BRANCH  16   8
ATOM      2  N   UNL     1       0.435   1.333  24.818  0.00  0.00    -0.299 NA
ATOM      7  C   UNL     1      -0.757   0.709  25.397  0.00  0.00    +0.097 C 
ATOM      8  C   UNL     1      -0.698  -0.720  24.841  0.00  0.00    +0.092 C 
ATOM      9  C   UNL     1       0.460   0.880  23.428  0.00  0.00    +0.085 C 
ATOM     12  C   UNL     1       0.126  -0.601  23.547  0.00  0.00    +0.029 C 
BRANCH   2   6
ATOM      6  C   UNL     1       0.411   2.790  24.929  0.00  0.00    +0.057 C 
ATOM     10  C   UNL     1      -0.770   3.226  25.803  0.00  0.00    +0.019 C 
ATOM     11  C   UNL     1       0.327   3.417  23.533  0.00  0.00    +0.019 C 
ATOM     13  C   UNL     1      -0.872   4.749  25.880  0.00  0.00    +0.002 C 
ATOM     14  C   UNL     1       0.222   4.940  23.613  0.00  0.00    +0.002 C 
ATOM     15  C   UNL     1      -0.945   5.379  24.492  0.00  0.00    +0.000 C 
ENDBRANCH   2   6
ENDBRANCH  16   8
BRANCH  17  18
ATOM     18  C   UNL     1      -5.517  -0.808  24.523  0.00  0.00    +0.135 C 
BRANCH  18  19
ATOM      5  N   UNL     1      -6.214   2.346  26.324  0.00  0.00    -0.360 N 
ATOM     19  C   UNL     1      -5.621   0.610  25.075  0.00  0.00    -0.013 A 
ATOM     20  C   UNL     1      -4.944   1.762  24.585  0.00  0.00    +0.003 A 
ATOM     21  C   UNL     1      -6.393   1.001  26.143  0.00  0.00    +0.087 A 
ATOM     22  C   UNL     1      -5.334   2.837  25.386  0.00  0.00    +0.047 A 
ATOM     23  C   UNL     1      -4.035   1.994  23.533  0.00  0.00    +0.010 A 
ATOM     24  C   UNL     1      -4.858   4.138  25.187  0.00  0.00    +0.026 A 
ATOM     25  C   UNL     1      -3.550   3.289  23.323  0.00  0.00    +0.001 A 
ATOM     26  C   UNL     1      -3.957   4.344  24.138  0.00  0.00    +0.002 A 
ATOM     27  H   UNL     1      -6.662   2.900  27.041  0.00  0.00    +0.165 HD
ENDBRANCH  18  19
ENDBRANCH  17  18
TORSDOF 4
ENDMDL
MODEL 5
REMARK VINA RESULT:      -1.4      2.286      4.518
REMARK  Name = 51137362
REMARK  4 active torsions:
REMARK  status: ('A' for Active; 'I' for Inactive)
REMARK    1  A    between atoms: N_2  and  C_6
REMARK    2  A    between atoms: C_8  and  C_16
REMARK    3  A    between atoms: C_17  and  C_18
REMARK    4  A    between atoms: C_18  and  C_19
REMARK                            x       y       z     vdW  Elec       q    Type
REMARK                         _______ _______ _______ _____ _____    ______ ____
ROOT
ATOM      1  O   UNL     1      -2.056   3.615  24.986  0.00  0.00    -0.424 OA
ATOM      3  N   UNL     1      -0.277   4.952  24.753  0.00  0.00    -0.112 NA
ATOM      4  N   UNL     1      -1.412   5.709  24.530  0.00  0.00    -0.112 NA
ATOM     16  C   UNL     1      -0.700   3.738  25.016  0.00  0.00    +0.222 A 
ATOM     17  C   UNL     1      -2.426   4.887  24.675  0.00  0.00    +0.222 A 
ENDROOT
BRANCH  16   8
ATOM      2  N   UNL     1      -0.131   0.194  25.752  0.00  0.00    -0.299 NA
ATOM      7  C   UNL     1      -0.555   1.213  24.789  0.00  0.00    +0.097 C 
ATOM      8  C   UNL     1       0.091   2.492  25.340  0.00  0.00    +0.092 C 
ATOM      9  C   UNL     1      -0.293   0.822  27.063  0.00  0.00    +0.085 C 
ATOM     12  C   UNL     1       0.278   2.217  26.843  0.00  0.00    +0.029 C 
BRANCH   2   6
ATOM      6  C   UNL     1      -0.900  -1.043  25.628  0.00  0.00    +0.057 C 
ATOM     10  C   UNL     1      -0.932  -1.492  24.163  0.00  0.00    +0.019 C 
ATOM     11  C   UNL     1      -2.318  -0.831  26.172  0.00  0.00    +0.019 C 
ATOM     13  C   UNL     1      -1.792  -2.742  23.983  0.00  0.00    +0.002 C 
ATOM     14  C   UNL     1      -3.176  -2.082  25.989  0.00  0.00    +0.002 C 
ATOM     15  C   UNL     1      -3.201  -2.540  24.534  0.00  0.00    +0.000 C 
ENDBRANCH   2   6
ENDBRANCH  16   8
BRANCH  17  18
ATOM     18  C   UNL     1      -3.866   5.147  24.555  0.00  0.00    +0.135 C 
BRANCH  18  19
ATOM      5  N   UNL     1      -6.371   2.818  25.962  0.00  0.00    -0.360 N 
ATOM     19  C   UNL     1      -4.762   3.987  24.977  0.00  0.00    -0.013 A 
ATOM     20  C   UNL     1      -4.651   2.634  24.552  0.00  0.00    +0.003 A 
ATOM     21  C   UNL     1      -5.827   4.069  25.842  0.00  0.00    +0.087 A 
ATOM     22  C   UNL     1      -5.672   1.922  25.185  0.00  0.00    +0.047 A 
ATOM     23  C   UNL     1      -3.778   1.944  23.688  0.00  0.00    +0.010 A 
ATOM     24  C   UNL     1      -5.863   0.548  24.996  0.00  0.00    +0.026 A 
ATOM     25  C   UNL     1      -3.958   0.570  23.489  0.00  0.00    +0.001 A 
ATOM     26  C   UNL     1      -4.985  -0.115  24.135  0.00  0.00    +0.002 A 
ATOM     27  H   UNL     1      -7.168   2.585  26.537  0.00  0.00    +0.165 HD
ENDBRANCH  18  19
ENDBRANCH  17  18
TORSDOF 4
ENDMDL
MODEL 6
REMARK VINA RESULT:      -1.3      1.780      5.540
REMARK  Name = 51137362
REMARK  4 active torsions:
REMARK  status: ('A' for Active; 'I' for Inactive)
REMARK    1  A    between atoms: N_2  and  C_6
REMARK    2  A    between atoms: C_8  and  C_16
REMARK    3  A    between atoms: C_17  and  C_18
REMARK    4  A    between atoms: C_18  and  C_19
REMARK                            x       y       z     vdW  Elec       q    Type
REMARK                         _______ _______ _______ _____ _____    ______ ____
ROOT
ATOM      1  O   UNL     1      -1.270   2.858  24.458  0.00  0.00    -0.424 OA
ATOM      3  N   UNL     1      -1.830   4.857  25.292  0.00  0.00    -0.112 NA
ATOM      4  N   UNL     1      -0.582   4.972  24.708  0.00  0.00    -0.112 NA
ATOM     16  C   UNL     1      -2.192   3.607  25.122  0.00  0.00    +0.222 A 
ATOM     17  C   UNL     1      -0.295   3.782  24.235  0.00  0.00    +0.222 A 
ENDROOT
BRANCH  16   8
ATOM      2  N   UNL     1      -4.586   0.851  25.438  0.00  0.00    -0.299 NA
ATOM      7  C   UNL     1      -3.267   1.398  25.763  0.00  0.00    +0.097 C 
ATOM      8  C   UNL     1      -3.461   2.905  25.550  0.00  0.00    +0.092 C 
ATOM      9  C   UNL     1      -5.007   1.570  24.235  0.00  0.00    +0.085 C 
ATOM     12  C   UNL     1      -4.627   3.011  24.551  0.00  0.00    +0.029 C 
BRANCH   2   6
ATOM      6  C   UNL     1      -4.556  -0.597  25.238  0.00  0.00    +0.057 C 
ATOM     10  C   UNL     1      -3.391  -1.207  26.026  0.00  0.00    +0.019 C 
ATOM     11  C   UNL     1      -4.438  -0.914  23.744  0.00  0.00    +0.019 C 
ATOM     13  C   UNL     1      -3.281  -2.711  25.782  0.00  0.00    +0.002 C 
ATOM     14  C   UNL     1      -4.326  -2.419  23.502  0.00  0.00    +0.002 C 
ATOM     15  C   UNL     1      -3.175  -3.033  24.294  0.00  0.00    +0.000 C 
ENDBRANCH   2   6
ENDBRANCH  16   8
BRANCH  17  18
ATOM     18  C   UNL     1       0.900   3.325  23.515  0.00  0.00    +0.135 C 
BRANCH  18  19
ATOM      5  N   UNL     1       0.722  -0.367  23.653  0.00  0.00    -0.360 N 
ATOM     19  C   UNL     1       1.112   1.814  23.524  0.00  0.00    -0.013 A 
ATOM     20  C   UNL     1       2.346   1.130  23.339  0.00  0.00    +0.003 A 
ATOM     21  C   UNL     1       0.133   0.867  23.714  0.00  0.00    +0.087 A 
ATOM     22  C   UNL     1       2.073  -0.236  23.425  0.00  0.00    +0.047 A 
ATOM     23  C   UNL     1       3.673   1.545  23.107  0.00  0.00    +0.010 A 
ATOM     24  C   UNL     1       3.066  -1.213  23.290  0.00  0.00    +0.026 A 
ATOM     25  C   UNL     1       4.675   0.578  22.969  0.00  0.00    +0.001 A 
ATOM     26  C   UNL     1       4.375  -0.779  23.060  0.00  0.00    +0.002 A 
ATOM     27  H   UNL     1       0.237  -1.247  23.760  0.00  0.00    +0.165 HD
ENDBRANCH  18  19
ENDBRANCH  17  18
TORSDOF 4
ENDMDL
MODEL 7
REMARK VINA RESULT:      -1.1      1.649      5.917
REMARK  Name = 51137362
REMARK  4 active torsions:
REMARK  status: ('A' for Active; 'I' for Inactive)
REMARK    1  A    between atoms: N_2  and  C_6
REMARK    2  A    between atoms: C_8  and  C_16
REMARK    3  A    between atoms: C_17  and  C_18
REMARK    4  A    between atoms: C_18  and  C_19
REMARK                            x       y       z     vdW  Elec       q    Type
REMARK                         _______ _______ _______ _____ _____    ______ ____
ROOT
ATOM      1  O   UNL     1      -1.733  -0.804  24.279  0.00  0.00    -0.424 OA
ATOM      3  N   UNL     1      -3.223  -2.473  24.291  0.00  0.00    -0.112 NA
ATOM      4  N   UNL     1      -1.966  -3.023  24.456  0.00  0.00    -0.112 NA
ATOM     16  C   UNL     1      -3.039  -1.177  24.192  0.00  0.00    +0.222 A 
ATOM     17  C   UNL     1      -1.127  -2.012  24.442  0.00  0.00    +0.222 A 
ENDROOT
BRANCH  16   8
ATOM      2  N   UNL     1      -4.374   2.234  24.279  0.00  0.00    -0.299 NA
ATOM      7  C   UNL     1      -3.406   1.290  23.717  0.00  0.00    +0.097 C 
ATOM      8  C   UNL     1      -4.053  -0.072  24.002  0.00  0.00    +0.092 C 
ATOM      9  C   UNL     1      -4.774   1.648  25.558  0.00  0.00    +0.085 C 
ATOM     12  C   UNL     1      -4.971   0.178  25.211  0.00  0.00    +0.029 C 
BRANCH   2   6
ATOM      6  C   UNL     1      -3.819   3.577  24.431  0.00  0.00    +0.057 C 
ATOM     10  C   UNL     1      -2.471   3.669  23.707  0.00  0.00    +0.019 C 
ATOM     11  C   UNL     1      -3.671   3.914  25.919  0.00  0.00    +0.019 C 
ATOM     13  C   UNL     1      -1.823   5.038  23.908  0.00  0.00    +0.002 C 
ATOM     14  C   UNL     1      -3.020   5.283  26.118  0.00  0.00    +0.002 C 
ATOM     15  C   UNL     1      -1.684   5.383  25.388  0.00  0.00    +0.000 C 
ENDBRANCH   2   6
ENDBRANCH  16   8
BRANCH  17  18
ATOM     18  C   UNL     1       0.335  -2.008  24.578  0.00  0.00    +0.135 C 
BRANCH  18  19
ATOM      5  N   UNL     1       1.385   1.104  22.878  0.00  0.00    -0.360 N 
ATOM     19  C   UNL     1       1.035  -0.832  23.905  0.00  0.00    -0.013 A 
ATOM     20  C   UNL     1       2.434  -0.689  23.692  0.00  0.00    +0.003 A 
ATOM     21  C   UNL     1       0.417   0.285  23.395  0.00  0.00    +0.087 A 
ATOM     22  C   UNL     1       2.627   0.534  23.046  0.00  0.00    +0.047 A 
ATOM     23  C   UNL     1       3.559  -1.485  23.987  0.00  0.00    +0.010 A 
ATOM     24  C   UNL     1       3.893   1.002  22.678  0.00  0.00    +0.026 A 
ATOM     25  C   UNL     1       4.832  -1.029  23.625  0.00  0.00    +0.001 A 
ATOM     26  C   UNL     1       4.994   0.195  22.980  0.00  0.00    +0.002 A 
ATOM     27  H   UNL     1       1.215   1.997  22.437  0.00  0.00    +0.165 HD
ENDBRANCH  18  19
ENDBRANCH  17  18
TORSDOF 4
ENDMDL
