MODEL 1
REMARK VINA RESULT:      -4.3      0.000      0.000
REMARK  Name = 45783753
REMARK  4 active torsions:
REMARK  status: ('A' for Active; 'I' for Inactive)
REMARK    1  A    between atoms: N_2  and  C_14
REMARK    2  A    between atoms: C_10  and  C_15
REMARK    3  A    between atoms: C_14  and  C_16
REMARK    4  A    between atoms: C_17  and  C_20
REMARK                            x       y       z     vdW  Elec       q    Type
REMARK                         _______ _______ _______ _____ _____    ______ ____
ROOT
ATOM      1  O   UNL     1      -1.710   2.774  25.568  0.00  0.00    -0.336 OA
ATOM      3  N   UNL     1      -1.598   1.631  23.645  0.00  0.00    -0.190 NA
ATOM      6  N   UNL     1      -0.370   2.393  25.419  0.00  0.00    -0.056 NA
ATOM     15  C   UNL     1      -2.364   2.285  24.482  0.00  0.00    +0.245 A 
ATOM     17  C   UNL     1      -0.385   1.724  24.262  0.00  0.00    +0.207 A 
ENDROOT
BRANCH  17  20
ATOM      7  N   UNL     1       1.992  -0.743  22.780  0.00  0.00    -0.220 NA
ATOM      8  N   UNL     1      -0.249  -1.025  23.484  0.00  0.00    -0.342 N 
ATOM      9  N   UNL     1       3.075   1.401  22.974  0.00  0.00    -0.243 NA
ATOM     20  C   UNL     1       0.795   1.134  23.696  0.00  0.00    +0.080 A 
ATOM     21  C   UNL     1       0.882  -0.189  23.313  0.00  0.00    +0.130 A 
ATOM     22  C   UNL     1       1.933   1.889  23.501  0.00  0.00    +0.127 A 
ATOM     23  C   UNL     1       3.035   0.097  22.642  0.00  0.00    +0.223 A 
ATOM     25  H   UNL     1      -0.147  -1.986  23.182  0.00  0.00    +0.144 HD
ATOM     26  H   UNL     1      -0.874  -0.849  24.262  0.00  0.00    +0.144 HD
ENDBRANCH  17  20
BRANCH  15  10
ATOM      2  N   UNL     1      -4.661   1.517  25.052  0.00  0.00    -0.284 NA
ATOM     10  C   UNL     1      -3.850   2.567  24.406  0.00  0.00    +0.146 C 
ATOM     11  C   UNL     1      -4.244   3.868  25.128  0.00  0.00    +0.030 C 
ATOM     12  C   UNL     1      -5.325   3.461  26.119  0.00  0.00    +0.017 C 
ATOM     13  C   UNL     1      -5.876   2.174  25.537  0.00  0.00    +0.085 C 
BRANCH   2  14
ATOM     14  C   UNL     1      -4.959   0.397  24.170  0.00  0.00    +0.159 C 
BRANCH  14  16
ATOM      4  N   UNL     1      -4.214  -1.964  23.786  0.00  0.00    -0.347 N 
ATOM      5  N   UNL     1      -3.513  -1.025  25.672  0.00  0.00    -0.239 NA
ATOM     16  C   UNL     1      -4.216  -0.849  24.575  0.00  0.00    +0.121 A 
ATOM     18  C   UNL     1      -3.462  -2.914  24.419  0.00  0.00    +0.104 A 
ATOM     19  C   UNL     1      -3.041  -2.310  25.581  0.00  0.00    +0.130 A 
ATOM     24  H   UNL     1      -4.685  -2.071  22.897  0.00  0.00    +0.167 HD
ENDBRANCH  14  16
ENDBRANCH   2  14
ENDBRANCH  15  10
TORSDOF 4
ENDMDL
MODEL 2
REMARK VINA RESULT:      -3.5     17.705     19.630
REMARK  Name = 45783753
REMARK  4 active torsions:
REMARK  status: ('A' for Active; 'I' for Inactive)
REMARK    1  A    between atoms: N_2  and  C_14
REMARK    2  A    between atoms: C_10  and  C_15
REMARK    3  A    between atoms: C_14  and  C_16
REMARK    4  A    between atoms: C_17  and  C_20
REMARK                            x       y       z     vdW  Elec       q    Type
REMARK                         _______ _______ _______ _____ _____    ______ ____
ROOT
ATOM      1  O   UNL     1      15.914  -8.157  30.112  0.00  0.00    -0.336 OA
ATOM      3  N   UNL     1      14.977  -6.649  28.747  0.00  0.00    -0.190 NA
ATOM      6  N   UNL     1      16.695  -8.145  28.950  0.00  0.00    -0.056 NA
ATOM     15  C   UNL     1      14.923  -7.249  29.910  0.00  0.00    +0.245 A 
ATOM     17  C   UNL     1      16.080  -7.231  28.194  0.00  0.00    +0.207 A 
ENDROOT
BRANCH  17  20
ATOM      7  N   UNL     1      17.076  -7.441  24.604  0.00  0.00    -0.220 NA
ATOM      8  N   UNL     1      16.282  -9.126  26.063  0.00  0.00    -0.342 N 
ATOM      9  N   UNL     1      17.347  -5.177  25.382  0.00  0.00    -0.243 NA
ATOM     20  C   UNL     1      16.539  -6.878  26.881  0.00  0.00    +0.080 A 
ATOM     21  C   UNL     1      16.644  -7.775  25.839  0.00  0.00    +0.130 A 
ATOM     22  C   UNL     1      16.907  -5.580  26.592  0.00  0.00    +0.127 A 
ATOM     23  C   UNL     1      17.405  -6.145  24.449  0.00  0.00    +0.223 A 
ATOM     25  H   UNL     1      16.364  -9.750  25.269  0.00  0.00    +0.144 HD
ATOM     26  H   UNL     1      16.429  -9.525  26.982  0.00  0.00    +0.144 HD
ENDBRANCH  17  20
BRANCH  15  10
ATOM      2  N   UNL     1      13.659  -5.651  31.338  0.00  0.00    -0.284 NA
ATOM     10  C   UNL     1      13.930  -7.071  31.039  0.00  0.00    +0.146 C 
ATOM     11  C   UNL     1      12.550  -7.672  30.715  0.00  0.00    +0.030 C 
ATOM     12  C   UNL     1      11.562  -6.533  30.919  0.00  0.00    +0.017 C 
ATOM     13  C   UNL     1      12.292  -5.590  31.855  0.00  0.00    +0.085 C 
BRANCH   2  14
ATOM     14  C   UNL     1      14.621  -5.066  32.263  0.00  0.00    +0.159 C 
BRANCH  14  16
ATOM      4  N   UNL     1      15.995  -4.082  30.413  0.00  0.00    -0.347 N 
ATOM      5  N   UNL     1      15.584  -2.737  32.132  0.00  0.00    -0.239 NA
ATOM     16  C   UNL     1      15.393  -3.938  31.632  0.00  0.00    +0.121 A 
ATOM     18  C   UNL     1      16.609  -2.897  30.116  0.00  0.00    +0.104 A 
ATOM     19  C   UNL     1      16.340  -2.084  31.192  0.00  0.00    +0.130 A 
ATOM     24  H   UNL     1      15.991  -4.913  29.837  0.00  0.00    +0.167 HD
ENDBRANCH  14  16
ENDBRANCH   2  14
ENDBRANCH  15  10
TORSDOF 4
ENDMDL
MODEL 3
REMARK VINA RESULT:      -3.2      1.621      5.917
REMARK  Name = 45783753
REMARK  4 active torsions:
REMARK  status: ('A' for Active; 'I' for Inactive)
REMARK    1  A    between atoms: N_2  and  C_14
REMARK    2  A    between atoms: C_10  and  C_15
REMARK    3  A    between atoms: C_14  and  C_16
REMARK    4  A    between atoms: C_17  and  C_20
REMARK                            x       y       z     vdW  Elec       q    Type
REMARK                         _______ _______ _______ _____ _____    ______ ____
ROOT
ATOM      1  O   UNL     1      -1.330   1.661  22.810  0.00  0.00    -0.336 OA
ATOM      3  N   UNL     1      -1.895   1.519  24.973  0.00  0.00    -0.190 NA
ATOM      6  N   UNL     1      -2.625   2.184  22.909  0.00  0.00    -0.056 NA
ATOM     15  C   UNL     1      -0.975   1.292  24.069  0.00  0.00    +0.245 A 
ATOM     17  C   UNL     1      -2.888   2.066  24.214  0.00  0.00    +0.207 A 
ENDROOT
BRANCH  17  20
ATOM      7  N   UNL     1      -5.452   4.011  26.105  0.00  0.00    -0.220 NA
ATOM      8  N   UNL     1      -3.142   4.429  25.804  0.00  0.00    -0.342 N 
ATOM      9  N   UNL     1      -6.485   2.076  25.108  0.00  0.00    -0.243 NA
ATOM     20  C   UNL     1      -4.134   2.484  24.792  0.00  0.00    +0.080 A 
ATOM     21  C   UNL     1      -4.279   3.619  25.561  0.00  0.00    +0.130 A 
ATOM     22  C   UNL     1      -5.282   1.743  24.596  0.00  0.00    +0.127 A 
ATOM     23  C   UNL     1      -6.497   3.204  25.841  0.00  0.00    +0.223 A 
ATOM     25  H   UNL     1      -3.294   5.259  26.365  0.00  0.00    +0.144 HD
ATOM     26  H   UNL     1      -2.233   3.988  25.867  0.00  0.00    +0.144 HD
ENDBRANCH  17  20
BRANCH  15  10
ATOM      2  N   UNL     1       0.459  -0.725  23.812  0.00  0.00    -0.284 NA
ATOM     10  C   UNL     1       0.404   0.689  24.232  0.00  0.00    +0.146 C 
ATOM     11  C   UNL     1       1.466   1.395  23.370  0.00  0.00    +0.030 C 
ATOM     12  C   UNL     1       2.106   0.290  22.543  0.00  0.00    +0.017 C 
ATOM     13  C   UNL     1       1.825  -0.966  23.346  0.00  0.00    +0.085 C 
BRANCH   2  14
ATOM     14  C   UNL     1       0.068  -1.653  24.866  0.00  0.00    +0.159 C 
BRANCH  14  16
ATOM      4  N   UNL     1      -2.240  -1.255  25.754  0.00  0.00    -0.347 N 
ATOM      5  N   UNL     1      -2.085  -2.716  24.089  0.00  0.00    -0.239 NA
ATOM     16  C   UNL     1      -1.417  -1.899  24.874  0.00  0.00    +0.121 A 
ATOM     18  C   UNL     1      -3.515  -1.688  25.516  0.00  0.00    +0.104 A 
ATOM     19  C   UNL     1      -3.392  -2.588  24.484  0.00  0.00    +0.130 A 
ATOM     24  H   UNL     1      -1.959  -0.584  26.457  0.00  0.00    +0.167 HD
ENDBRANCH  14  16
ENDBRANCH   2  14
ENDBRANCH  15  10
TORSDOF 4
ENDMDL
MODEL 4
REMARK VINA RESULT:      -3.1     17.786     19.950
REMARK  Name = 45783753
REMARK  4 active torsions:
REMARK  status: ('A' for Active; 'I' for Inactive)
REMARK    1  A    between atoms: N_2  and  C_14
REMARK    2  A    between atoms: C_10  and  C_15
REMARK    3  A    between atoms: C_14  and  C_16
REMARK    4  A    between atoms: C_17  and  C_20
REMARK                            x       y       z     vdW  Elec       q    Type
REMARK                         _______ _______ _______ _____ _____    ______ ____
ROOT
ATOM      1  O   UNL     1      14.694  -6.160  29.147  0.00  0.00    -0.336 OA
ATOM      3  N   UNL     1      14.866  -8.362  29.514  0.00  0.00    -0.190 NA
ATOM      6  N   UNL     1      15.285  -6.701  27.998  0.00  0.00    -0.056 NA
ATOM     15  C   UNL     1      14.481  -7.205  29.989  0.00  0.00    +0.245 A 
ATOM     17  C   UNL     1      15.352  -8.003  28.291  0.00  0.00    +0.207 A 
ENDROOT
BRANCH  17  20
ATOM      7  N   UNL     1      17.405 -10.781  26.878  0.00  0.00    -0.220 NA
ATOM      8  N   UNL     1      17.402  -9.846  29.051  0.00  0.00    -0.342 N 
ATOM      9  N   UNL     1      15.918  -9.937  25.180  0.00  0.00    -0.243 NA
ATOM     20  C   UNL     1      15.901  -8.972  27.385  0.00  0.00    +0.080 A 
ATOM     21  C   UNL     1      16.889  -9.870  27.730  0.00  0.00    +0.130 A 
ATOM     22  C   UNL     1      15.449  -9.052  26.084  0.00  0.00    +0.127 A 
ATOM     23  C   UNL     1      16.881 -10.758  25.638  0.00  0.00    +0.223 A 
ATOM     25  H   UNL     1      18.119 -10.528  29.266  0.00  0.00    +0.144 HD
ATOM     26  H   UNL     1      17.442  -8.962  29.544  0.00  0.00    +0.144 HD
ENDBRANCH  17  20
BRANCH  15  10
ATOM      2  N   UNL     1      13.930  -5.442  31.657  0.00  0.00    -0.284 NA
ATOM     10  C   UNL     1      13.841  -6.877  31.322  0.00  0.00    +0.146 C 
ATOM     11  C   UNL     1      12.334  -7.193  31.350  0.00  0.00    +0.030 C 
ATOM     12  C   UNL     1      11.663  -5.894  31.769  0.00  0.00    +0.017 C 
ATOM     13  C   UNL     1      12.764  -5.139  32.488  0.00  0.00    +0.085 C 
BRANCH   2  14
ATOM     14  C   UNL     1      15.180  -5.083  32.313  0.00  0.00    +0.159 C 
BRANCH  14  16
ATOM      4  N   UNL     1      15.993  -3.550  30.506  0.00  0.00    -0.347 N 
ATOM      5  N   UNL     1      15.958  -2.694  32.555  0.00  0.00    -0.239 NA
ATOM     16  C   UNL     1      15.709  -3.760  31.826  0.00  0.00    +0.121 A 
ATOM     18  C   UNL     1      16.451  -2.268  30.383  0.00  0.00    +0.104 A 
ATOM     19  C   UNL     1      16.421  -1.762  31.661  0.00  0.00    +0.130 A 
ATOM     24  H   UNL     1      15.887  -4.220  29.756  0.00  0.00    +0.167 HD
ENDBRANCH  14  16
ENDBRANCH   2  14
ENDBRANCH  15  10
TORSDOF 4
ENDMDL
MODEL 5
REMARK VINA RESULT:      -3.0     19.201     20.225
REMARK  Name = 45783753
REMARK  4 active torsions:
REMARK  status: ('A' for Active; 'I' for Inactive)
REMARK    1  A    between atoms: N_2  and  C_14
REMARK    2  A    between atoms: C_10  and  C_15
REMARK    3  A    between atoms: C_14  and  C_16
REMARK    4  A    between atoms: C_17  and  C_20
REMARK                            x       y       z     vdW  Elec       q    Type
REMARK                         _______ _______ _______ _____ _____    ______ ____
ROOT
ATOM      1  O   UNL     1      14.838  -6.339  29.509  0.00  0.00    -0.336 OA
ATOM      3  N   UNL     1      16.810  -5.284  29.402  0.00  0.00    -0.190 NA
ATOM      6  N   UNL     1      14.710  -5.194  30.305  0.00  0.00    -0.056 NA
ATOM     15  C   UNL     1      16.104  -6.317  29.016  0.00  0.00    +0.245 A 
ATOM     17  C   UNL     1      15.914  -4.624  30.190  0.00  0.00    +0.207 A 
ENDROOT
BRANCH  17  20
ATOM      7  N   UNL     1      17.195  -1.181  30.850  0.00  0.00    -0.220 NA
ATOM      8  N   UNL     1      17.205  -2.450  28.853  0.00  0.00    -0.342 N 
ATOM      9  N   UNL     1      16.252  -2.089  32.873  0.00  0.00    -0.243 NA
ATOM     20  C   UNL     1      16.253  -3.396  30.852  0.00  0.00    +0.080 A 
ATOM     21  C   UNL     1      16.876  -2.335  30.227  0.00  0.00    +0.130 A 
ATOM     22  C   UNL     1      15.962  -3.215  32.188  0.00  0.00    +0.127 A 
ATOM     23  C   UNL     1      16.859  -1.128  32.153  0.00  0.00    +0.223 A 
ATOM     25  H   UNL     1      17.651  -1.646  28.430  0.00  0.00    +0.144 HD
ATOM     26  H   UNL     1      17.447  -3.362  28.484  0.00  0.00    +0.144 HD
ENDBRANCH  17  20
BRANCH  15  10
ATOM      2  N   UNL     1      15.600  -8.630  28.252  0.00  0.00    -0.284 NA
ATOM     10  C   UNL     1      16.497  -7.466  28.112  0.00  0.00    +0.146 C 
ATOM     11  C   UNL     1      16.428  -7.096  26.619  0.00  0.00    +0.030 C 
ATOM     12  C   UNL     1      15.520  -8.143  25.991  0.00  0.00    +0.017 C 
ATOM     13  C   UNL     1      15.600  -9.310  26.956  0.00  0.00    +0.085 C 
BRANCH   2  14
ATOM     14  C   UNL     1      15.983  -9.522  29.338  0.00  0.00    +0.159 C 
BRANCH  14  16
ATOM      4  N   UNL     1      13.725  -8.999  30.288  0.00  0.00    -0.347 N 
ATOM      5  N   UNL     1      14.741 -10.781  31.138  0.00  0.00    -0.239 NA
ATOM     16  C   UNL     1      14.833  -9.798  30.269  0.00  0.00    +0.121 A 
ATOM     18  C   UNL     1      12.870  -9.504  31.228  0.00  0.00    +0.104 A 
ATOM     19  C   UNL     1      13.521 -10.603  31.739  0.00  0.00    +0.130 A 
ATOM     24  H   UNL     1      13.565  -8.182  29.714  0.00  0.00    +0.167 HD
ENDBRANCH  14  16
ENDBRANCH   2  14
ENDBRANCH  15  10
TORSDOF 4
ENDMDL
MODEL 6
REMARK VINA RESULT:      -3.0      2.446      4.671
REMARK  Name = 45783753
REMARK  4 active torsions:
REMARK  status: ('A' for Active; 'I' for Inactive)
REMARK    1  A    between atoms: N_2  and  C_14
REMARK    2  A    between atoms: C_10  and  C_15
REMARK    3  A    between atoms: C_14  and  C_16
REMARK    4  A    between atoms: C_17  and  C_20
REMARK                            x       y       z     vdW  Elec       q    Type
REMARK                         _______ _______ _______ _____ _____    ______ ____
ROOT
ATOM      1  O   UNL     1      -1.116   1.669  25.537  0.00  0.00    -0.336 OA
ATOM      3  N   UNL     1      -2.538   1.130  23.893  0.00  0.00    -0.190 NA
ATOM      6  N   UNL     1      -1.380   0.302  25.683  0.00  0.00    -0.056 NA
ATOM     15  C   UNL     1      -1.838   2.080  24.461  0.00  0.00    +0.245 A 
ATOM     17  C   UNL     1      -2.225   0.058  24.677  0.00  0.00    +0.207 A 
ENDROOT
BRANCH  17  20
ATOM      7  N   UNL     1      -2.584  -3.641  24.333  0.00  0.00    -0.220 NA
ATOM      8  N   UNL     1      -0.709  -2.348  24.977  0.00  0.00    -0.342 N 
ATOM      9  N   UNL     1      -4.672  -2.575  23.777  0.00  0.00    -0.243 NA
ATOM     20  C   UNL     1      -2.776  -1.243  24.429  0.00  0.00    +0.080 A 
ATOM     21  C   UNL     1      -2.064  -2.417  24.567  0.00  0.00    +0.130 A 
ATOM     22  C   UNL     1      -4.089  -1.384  24.028  0.00  0.00    +0.127 A 
ATOM     23  C   UNL     1      -3.874  -3.645  23.947  0.00  0.00    +0.223 A 
ATOM     25  H   UNL     1      -0.226  -3.232  25.076  0.00  0.00    +0.144 HD
ATOM     26  H   UNL     1      -0.156  -1.546  24.701  0.00  0.00    +0.144 HD
ENDBRANCH  17  20
BRANCH  15  10
ATOM      2  N   UNL     1      -2.539   4.415  24.957  0.00  0.00    -0.284 NA
ATOM     10  C   UNL     1      -1.723   3.543  24.089  0.00  0.00    +0.146 C 
ATOM     11  C   UNL     1      -0.287   4.080  24.232  0.00  0.00    +0.030 C 
ATOM     12  C   UNL     1      -0.404   5.289  25.149  0.00  0.00    +0.017 C 
ATOM     13  C   UNL     1      -1.855   5.708  25.004  0.00  0.00    +0.085 C 
BRANCH   2  14
ATOM     14  C   UNL     1      -3.919   4.541  24.509  0.00  0.00    +0.159 C 
BRANCH  14  16
ATOM      4  N   UNL     1      -5.177   2.384  24.309  0.00  0.00    -0.347 N 
ATOM      5  N   UNL     1      -5.279   3.382  26.291  0.00  0.00    -0.239 NA
ATOM     16  C   UNL     1      -4.793   3.452  25.071  0.00  0.00    +0.121 A 
ATOM     18  C   UNL     1      -5.957   1.580  25.093  0.00  0.00    +0.104 A 
ATOM     19  C   UNL     1      -6.005   2.218  26.311  0.00  0.00    +0.130 A 
ATOM     24  H   UNL     1      -4.932   2.218  23.342  0.00  0.00    +0.167 HD
ENDBRANCH  14  16
ENDBRANCH   2  14
ENDBRANCH  15  10
TORSDOF 4
ENDMDL
MODEL 7
REMARK VINA RESULT:      -2.9      1.417      5.615
REMARK  Name = 45783753
REMARK  4 active torsions:
REMARK  status: ('A' for Active; 'I' for Inactive)
REMARK    1  A    between atoms: N_2  and  C_14
REMARK    2  A    between atoms: C_10  and  C_15
REMARK    3  A    between atoms: C_14  and  C_16
REMARK    4  A    between atoms: C_17  and  C_20
REMARK                            x       y       z     vdW  Elec       q    Type
REMARK                         _______ _______ _______ _____ _____    ______ ____
ROOT
ATOM      1  O   UNL     1      -0.355   3.049  24.193  0.00  0.00    -0.336 OA
ATOM      3  N   UNL     1      -1.751   1.408  24.805  0.00  0.00    -0.190 NA
ATOM      6  N   UNL     1      -1.606   3.652  24.380  0.00  0.00    -0.056 NA
ATOM     15  C   UNL     1      -0.528   1.729  24.463  0.00  0.00    +0.245 A 
ATOM     17  C   UNL     1      -2.375   2.620  24.740  0.00  0.00    +0.207 A 
ENDROOT
BRANCH  17  20
ATOM      7  N   UNL     1      -6.050   1.998  24.928  0.00  0.00    -0.220 NA
ATOM      8  N   UNL     1      -4.343   0.721  23.902  0.00  0.00    -0.342 N 
ATOM      9  N   UNL     1      -5.522   4.049  26.077  0.00  0.00    -0.243 NA
ATOM     20  C   UNL     1      -3.771   2.764  25.039  0.00  0.00    +0.080 A 
ATOM     21  C   UNL     1      -4.737   1.861  24.646  0.00  0.00    +0.130 A 
ATOM     22  C   UNL     1      -4.226   3.850  25.759  0.00  0.00    +0.127 A 
ATOM     23  C   UNL     1      -6.367   3.099  25.636  0.00  0.00    +0.223 A 
ATOM     25  H   UNL     1      -5.080   0.078  23.642  0.00  0.00    +0.144 HD
ATOM     26  H   UNL     1      -3.552   0.797  23.274  0.00  0.00    +0.144 HD
ENDBRANCH  17  20
BRANCH  15  10
ATOM      2  N   UNL     1       0.364  -0.522  23.888  0.00  0.00    -0.284 NA
ATOM     10  C   UNL     1       0.695   0.847  24.332  0.00  0.00    +0.146 C 
ATOM     11  C   UNL     1       1.692   1.368  23.281  0.00  0.00    +0.030 C 
ATOM     12  C   UNL     1       1.907   0.204  22.324  0.00  0.00    +0.017 C 
ATOM     13  C   UNL     1       1.528  -1.010  23.149  0.00  0.00    +0.085 C 
BRANCH   2  14
ATOM     14  C   UNL     1      -0.000  -1.408  24.985  0.00  0.00    +0.159 C 
BRANCH  14  16
ATOM      4  N   UNL     1      -2.366  -1.265  25.798  0.00  0.00    -0.347 N 
ATOM      5  N   UNL     1      -2.009  -2.654  24.103  0.00  0.00    -0.239 NA
ATOM     16  C   UNL     1      -1.453  -1.799  24.933  0.00  0.00    +0.121 A 
ATOM     18  C   UNL     1      -3.582  -1.813  25.501  0.00  0.00    +0.104 A 
ATOM     19  C   UNL     1      -3.336  -2.667  24.452  0.00  0.00    +0.130 A 
ATOM     24  H   UNL     1      -2.177  -0.590  26.527  0.00  0.00    +0.167 HD
ENDBRANCH  14  16
ENDBRANCH   2  14
ENDBRANCH  15  10
TORSDOF 4
ENDMDL
MODEL 8
REMARK VINA RESULT:      -2.8     17.852     19.663
REMARK  Name = 45783753
REMARK  4 active torsions:
REMARK  status: ('A' for Active; 'I' for Inactive)
REMARK    1  A    between atoms: N_2  and  C_14
REMARK    2  A    between atoms: C_10  and  C_15
REMARK    3  A    between atoms: C_14  and  C_16
REMARK    4  A    between atoms: C_17  and  C_20
REMARK                            x       y       z     vdW  Elec       q    Type
REMARK                         _______ _______ _______ _____ _____    ______ ____
ROOT
ATOM      1  O   UNL     1      13.996  -6.851  32.593  0.00  0.00    -0.336 OA
ATOM      3  N   UNL     1      13.881  -5.766  30.637  0.00  0.00    -0.190 NA
ATOM      6  N   UNL     1      14.967  -5.843  32.649  0.00  0.00    -0.056 NA
ATOM     15  C   UNL     1      13.403  -6.736  31.375  0.00  0.00    +0.245 A 
ATOM     17  C   UNL     1      14.838  -5.247  31.460  0.00  0.00    +0.207 A 
ENDROOT
BRANCH  17  20
ATOM      7  N   UNL     1      17.298  -3.119  29.632  0.00  0.00    -0.220 NA
ATOM      8  N   UNL     1      16.663  -5.367  29.262  0.00  0.00    -0.342 N 
ATOM      9  N   UNL     1      16.308  -1.846  31.422  0.00  0.00    -0.243 NA
ATOM     20  C   UNL     1      15.649  -4.132  31.062  0.00  0.00    +0.080 A 
ATOM     21  C   UNL     1      16.535  -4.168  30.006  0.00  0.00    +0.130 A 
ATOM     22  C   UNL     1      15.576  -2.933  31.741  0.00  0.00    +0.127 A 
ATOM     23  C   UNL     1      17.136  -2.006  30.374  0.00  0.00    +0.223 A 
ATOM     25  H   UNL     1      17.316  -5.349  28.489  0.00  0.00    +0.144 HD
ATOM     26  H   UNL     1      16.534  -6.253  29.737  0.00  0.00    +0.144 HD
ENDBRANCH  17  20
BRANCH  15  10
ATOM      2  N   UNL     1      12.681  -9.117  31.384  0.00  0.00    -0.284 NA
ATOM     10  C   UNL     1      12.301  -7.727  31.065  0.00  0.00    +0.146 C 
ATOM     11  C   UNL     1      11.025  -7.471  31.887  0.00  0.00    +0.030 C 
ATOM     12  C   UNL     1      10.731  -8.791  32.586  0.00  0.00    +0.017 C 
ATOM     13  C   UNL     1      11.442  -9.816  31.725  0.00  0.00    +0.085 C 
BRANCH   2  14
ATOM     14  C   UNL     1      13.403  -9.777  30.304  0.00  0.00    +0.159 C 
BRANCH  14  16
ATOM      4  N   UNL     1      15.573  -9.435  31.508  0.00  0.00    -0.347 N 
ATOM      5  N   UNL     1      15.640  -9.170  29.304  0.00  0.00    -0.239 NA
ATOM     16  C   UNL     1      14.874  -9.457  30.334  0.00  0.00    +0.121 A 
ATOM     18  C   UNL     1      16.868  -9.116  31.209  0.00  0.00    +0.104 A 
ATOM     19  C   UNL     1      16.883  -8.957  29.843  0.00  0.00    +0.130 A 
ATOM     24  H   UNL     1      15.201  -9.619  32.431  0.00  0.00    +0.167 HD
ENDBRANCH  14  16
ENDBRANCH   2  14
ENDBRANCH  15  10
TORSDOF 4
ENDMDL
MODEL 9
REMARK VINA RESULT:      -2.6      1.436      3.609
REMARK  Name = 45783753
REMARK  4 active torsions:
REMARK  status: ('A' for Active; 'I' for Inactive)
REMARK    1  A    between atoms: N_2  and  C_14
REMARK    2  A    between atoms: C_10  and  C_15
REMARK    3  A    between atoms: C_14  and  C_16
REMARK    4  A    between atoms: C_17  and  C_20
REMARK                            x       y       z     vdW  Elec       q    Type
REMARK                         _______ _______ _______ _____ _____    ______ ____
ROOT
ATOM      1  O   UNL     1      -1.225   0.903  25.033  0.00  0.00    -0.336 OA
ATOM      3  N   UNL     1      -0.256  -0.770  23.903  0.00  0.00    -0.190 NA
ATOM      6  N   UNL     1      -0.027   1.420  24.524  0.00  0.00    -0.056 NA
ATOM     15  C   UNL     1      -1.283  -0.391  24.623  0.00  0.00    +0.245 A 
ATOM     17  C   UNL     1       0.486   0.374  23.870  0.00  0.00    +0.207 A 
ENDROOT
BRANCH  17  20
ATOM      7  N   UNL     1       3.114   0.010  21.245  0.00  0.00    -0.220 NA
ATOM      8  N   UNL     1       0.843  -0.652  21.224  0.00  0.00    -0.342 N 
ATOM      9  N   UNL     1       4.053   1.104  23.176  0.00  0.00    -0.243 NA
ATOM     20  C   UNL     1       1.740   0.437  23.174  0.00  0.00    +0.080 A 
ATOM     21  C   UNL     1       1.935  -0.051  21.899  0.00  0.00    +0.130 A 
ATOM     22  C   UNL     1       2.845   1.010  23.770  0.00  0.00    +0.127 A 
ATOM     23  C   UNL     1       4.115   0.591  21.933  0.00  0.00    +0.223 A 
ATOM     25  H   UNL     1       1.025  -0.988  20.287  0.00  0.00    +0.144 HD
ATOM     26  H   UNL     1       0.148  -1.150  21.768  0.00  0.00    +0.144 HD
ENDBRANCH  17  20
BRANCH  15  10
ATOM      2  N   UNL     1      -3.755  -0.635  24.493  0.00  0.00    -0.284 NA
ATOM     10  C   UNL     1      -2.502  -1.181  25.049  0.00  0.00    +0.146 C 
ATOM     11  C   UNL     1      -2.461  -2.642  24.564  0.00  0.00    +0.030 C 
ATOM     12  C   UNL     1      -3.760  -2.842  23.797  0.00  0.00    +0.017 C 
ATOM     13  C   UNL     1      -4.673  -1.766  24.353  0.00  0.00    +0.085 C 
BRANCH   2  14
ATOM     14  C   UNL     1      -4.324   0.435  25.301  0.00  0.00    +0.159 C 
BRANCH  14  16
ATOM      4  N   UNL     1      -3.626   1.929  23.415  0.00  0.00    -0.347 N 
ATOM      5  N   UNL     1      -4.190   2.955  25.302  0.00  0.00    -0.239 NA
ATOM     16  C   UNL     1      -4.057   1.791  24.705  0.00  0.00    +0.121 A 
ATOM     18  C   UNL     1      -3.475   3.266  23.174  0.00  0.00    +0.104 A 
ATOM     19  C   UNL     1      -3.829   3.878  24.354  0.00  0.00    +0.130 A 
ATOM     24  H   UNL     1      -3.448   1.181  22.759  0.00  0.00    +0.167 HD
ENDBRANCH  14  16
ENDBRANCH   2  14
ENDBRANCH  15  10
TORSDOF 4
ENDMDL
MODEL 10
REMARK VINA RESULT:      -2.4     15.318     17.952
REMARK  Name = 45783753
REMARK  4 active torsions:
REMARK  status: ('A' for Active; 'I' for Inactive)
REMARK    1  A    between atoms: N_2  and  C_14
REMARK    2  A    between atoms: C_10  and  C_15
REMARK    3  A    between atoms: C_14  and  C_16
REMARK    4  A    between atoms: C_17  and  C_20
REMARK                            x       y       z     vdW  Elec       q    Type
REMARK                         _______ _______ _______ _____ _____    ______ ____
ROOT
ATOM      1  O   UNL     1      11.774  -6.503  31.319  0.00  0.00    -0.336 OA
ATOM      3  N   UNL     1      13.813  -6.892  32.159  0.00  0.00    -0.190 NA
ATOM      6  N   UNL     1      12.542  -5.371  31.016  0.00  0.00    -0.056 NA
ATOM     15  C   UNL     1      12.597  -7.348  31.993  0.00  0.00    +0.245 A 
ATOM     17  C   UNL     1      13.731  -5.677  31.544  0.00  0.00    +0.207 A 
ENDROOT
BRANCH  17  20
ATOM      7  N   UNL     1      16.927  -4.070  30.479  0.00  0.00    -0.220 NA
ATOM      8  N   UNL     1      15.802  -5.952  29.591  0.00  0.00    -0.342 N 
ATOM      9  N   UNL     1      16.016  -2.877  32.364  0.00  0.00    -0.243 NA
ATOM     20  C   UNL     1      14.858  -4.791  31.476  0.00  0.00    +0.080 A 
ATOM     21  C   UNL     1      15.867  -4.904  30.543  0.00  0.00    +0.130 A 
ATOM     22  C   UNL     1      14.986  -3.748  32.370  0.00  0.00    +0.127 A 
ATOM     23  C   UNL     1      16.937  -3.094  31.407  0.00  0.00    +0.223 A 
ATOM     25  H   UNL     1      16.557  -5.995  28.918  0.00  0.00    +0.144 HD
ATOM     26  H   UNL     1      15.371  -6.829  29.859  0.00  0.00    +0.144 HD
ENDBRANCH  17  20
BRANCH  15  10
ATOM      2  N   UNL     1      10.602  -8.836  31.978  0.00  0.00    -0.284 NA
ATOM     10  C   UNL     1      11.995  -8.665  32.437  0.00  0.00    +0.146 C 
ATOM     11  C   UNL     1      12.747  -9.882  31.870  0.00  0.00    +0.030 C 
ATOM     12  C   UNL     1      11.685 -10.711  31.161  0.00  0.00    +0.017 C 
ATOM     13  C   UNL     1      10.392 -10.275  31.823  0.00  0.00    +0.085 C 
BRANCH   2  14
ATOM     14  C   UNL     1       9.624  -8.232  32.873  0.00  0.00    +0.159 C 
BRANCH  14  16
ATOM      4  N   UNL     1       7.996  -8.783  31.051  0.00  0.00    -0.347 N 
ATOM      5  N   UNL     1       7.152  -7.728  32.813  0.00  0.00    -0.239 NA
ATOM     16  C   UNL     1       8.242  -8.230  32.276  0.00  0.00    +0.121 A 
ATOM     18  C   UNL     1       6.664  -8.624  30.789  0.00  0.00    +0.104 A 
ATOM     19  C   UNL     1       6.166  -7.970  31.892  0.00  0.00    +0.130 A 
ATOM     24  H   UNL     1       8.675  -9.225  30.445  0.00  0.00    +0.167 HD
ENDBRANCH  14  16
ENDBRANCH   2  14
ENDBRANCH  15  10
TORSDOF 4
ENDMDL
