MODEL 1
REMARK VINA RESULT:       7.7      0.000      0.000
REMARK  Name = 11912792
REMARK  8 active torsions:
REMARK  status: ('A' for Active; 'I' for Inactive)
REMARK    1  A    between atoms: O_4  and  C_28
REMARK    2  A    between atoms: O_6  and  C_34
REMARK    3  A    between atoms: O_6  and  C_35
REMARK    4  A    between atoms: N_7  and  C_13
REMARK    5  A    between atoms: N_8  and  C_14
REMARK    6  A    between atoms: C_17  and  C_19
REMARK    7  A    between atoms: C_20  and  C_28
REMARK    8  A    between atoms: C_21  and  C_27
REMARK                            x       y       z     vdW  Elec       q    Type
REMARK                         _______ _______ _______ _____ _____    ______ ____
ROOT
ATOM      1  O   UNL     1      -1.865   3.750  23.074  0.00  0.00    -0.370 OA
ATOM      2  O   UNL     1      -1.745   5.603  25.582  0.00  0.00    -0.370 OA
ATOM     11  C   UNL     1      -1.752   4.176  25.412  0.00  0.00    +0.171 C 
ATOM     12  C   UNL     1      -2.678   3.863  24.254  0.00  0.00    +0.171 C 
ATOM     13  C   UNL     1      -0.398   3.697  24.939  0.00  0.00    +0.130 C 
ATOM     14  C   UNL     1      -3.573   5.076  24.158  0.00  0.00    +0.130 C 
ATOM     15  C   UNL     1      -0.484   3.906  23.438  0.00  0.00    +0.185 C 
ATOM     16  C   UNL     1      -2.675   6.192  24.661  0.00  0.00    +0.185 C 
ENDROOT
BRANCH  14   8
ATOM      8  N   UNL     1      -4.714   4.921  25.033  0.00  0.00    -0.306 N 
ATOM      9  N   UNL     1      -4.566   2.579  24.993  0.00  0.00    -0.214 NA
ATOM     10  N   UNL     1      -6.281   3.689  26.271  0.00  0.00    -0.223 NA
ATOM     18  C   UNL     1      -5.202   3.694  25.445  0.00  0.00    +0.216 A 
ATOM     21  C   UNL     1      -5.068   1.401  25.413  0.00  0.00    +0.076 A 
ATOM     23  C   UNL     1      -6.730   2.475  26.653  0.00  0.00    +0.116 A 
ATOM     24  C   UNL     1      -6.158   1.285  26.252  0.00  0.00    +0.048 A 
ATOM     37  H   UNL     1      -5.162   5.745  25.417  0.00  0.00    +0.149 HD
BRANCH  21  27
ATOM     27  C   UNL     1      -4.377   0.231  24.923  0.00  0.00    +0.001 A 
ATOM     30  C   UNL     1      -3.874   0.209  23.621  0.00  0.00    +0.013 A 
ATOM     31  C   UNL     1      -4.212  -0.882  25.749  0.00  0.00    +0.013 A 
ATOM     32  C   UNL     1      -3.207  -0.921  23.147  0.00  0.00    +0.046 A 
ATOM     33  C   UNL     1      -3.546  -2.012  25.276  0.00  0.00    +0.046 A 
ATOM     34  C   UNL     1      -3.043  -2.032  23.974  0.00  0.00    +0.120 A 
BRANCH  34   6
ATOM      6  O   UNL     1      -2.395  -3.135  23.512  0.00  0.00    -0.495 OA
ATOM     35  C   UNL     1      -3.185  -4.297  23.262  0.00  0.00    +0.277 C 
ENDBRANCH  34   6
ENDBRANCH  21  27
ENDBRANCH  14   8
BRANCH  13   7
ATOM      3  O   UNL     1      -0.852   1.451  23.208  0.00  0.00    -0.270 OA
ATOM      7  N   UNL     1      -0.194   2.305  25.262  0.00  0.00    -0.304 N 
ATOM     17  C   UNL     1      -0.442   1.285  24.354  0.00  0.00    +0.245 C 
ATOM     36  H   UNL     1       0.180   2.069  26.177  0.00  0.00    +0.149 HD
BRANCH  17  19
ATOM     19  C   UNL     1      -0.208  -0.096  24.848  0.00  0.00    +0.051 A 
ATOM     20  C   UNL     1       0.617  -0.955  24.149  0.00  0.00    +0.071 A 
ATOM     22  C   UNL     1      -0.840  -0.476  26.016  0.00  0.00    +0.014 A 
ATOM     25  C   UNL     1       0.818  -2.245  24.638  0.00  0.00    +0.016 A 
ATOM     26  C   UNL     1      -0.639  -1.767  26.505  0.00  0.00    +0.001 A 
ATOM     29  C   UNL     1       0.191  -2.651  25.815  0.00  0.00    +0.001 A 
BRANCH  20  28
ATOM      5  O   UNL     1       0.795  -0.623  21.786  0.00  0.00    -0.245 OA
ATOM     28  C   UNL     1       1.286  -0.560  22.916  0.00  0.00    +0.338 C 
BRANCH  28   4
ATOM      4  O   UNL     1       2.546  -0.099  23.137  0.00  0.00    -0.477 OA
ATOM     38  H   UNL     1       2.608   0.410  23.973  0.00  0.00    +0.295 HD
ENDBRANCH  28   4
ENDBRANCH  20  28
ENDBRANCH  17  19
ENDBRANCH  13   7
TORSDOF 7
ENDMDL
MODEL 2
REMARK VINA RESULT:       8.3      2.462      5.078
REMARK  Name = 11912792
REMARK  8 active torsions:
REMARK  status: ('A' for Active; 'I' for Inactive)
REMARK    1  A    between atoms: O_4  and  C_28
REMARK    2  A    between atoms: O_6  and  C_34
REMARK    3  A    between atoms: O_6  and  C_35
REMARK    4  A    between atoms: N_7  and  C_13
REMARK    5  A    between atoms: N_8  and  C_14
REMARK    6  A    between atoms: C_17  and  C_19
REMARK    7  A    between atoms: C_20  and  C_28
REMARK    8  A    between atoms: C_21  and  C_27
REMARK                            x       y       z     vdW  Elec       q    Type
REMARK                         _______ _______ _______ _____ _____    ______ ____
ROOT
ATOM      1  O   UNL     1      -3.767   2.769  23.460  0.00  0.00    -0.370 OA
ATOM      2  O   UNL     1      -5.898   2.183  25.664  0.00  0.00    -0.370 OA
ATOM     11  C   UNL     1      -4.460   2.180  25.659  0.00  0.00    +0.171 C 
ATOM     12  C   UNL     1      -4.015   1.640  24.314  0.00  0.00    +0.171 C 
ATOM     13  C   UNL     1      -3.932   3.597  25.678  0.00  0.00    +0.130 C 
ATOM     14  C   UNL     1      -5.208   0.858  23.817  0.00  0.00    +0.130 C 
ATOM     15  C   UNL     1      -3.967   3.978  24.209  0.00  0.00    +0.185 C 
ATOM     16  C   UNL     1      -6.376   1.598  24.443  0.00  0.00    +0.185 C 
ENDROOT
BRANCH  14   8
ATOM      8  N   UNL     1      -5.153  -0.499  24.312  0.00  0.00    -0.306 N 
ATOM      9  N   UNL     1      -2.829  -0.632  24.011  0.00  0.00    -0.214 NA
ATOM     10  N   UNL     1      -4.071  -2.499  24.894  0.00  0.00    -0.223 NA
ATOM     18  C   UNL     1      -3.984  -1.232  24.409  0.00  0.00    +0.216 A 
ATOM     21  C   UNL     1      -1.709  -1.375  24.119  0.00  0.00    +0.076 A 
ATOM     23  C   UNL     1      -2.912  -3.184  24.976  0.00  0.00    +0.116 A 
ATOM     24  C   UNL     1      -1.689  -2.669  24.598  0.00  0.00    +0.048 A 
ATOM     37  H   UNL     1      -5.998  -0.937  24.660  0.00  0.00    +0.149 HD
BRANCH  21  27
ATOM     27  C   UNL     1      -0.495  -0.719  23.692  0.00  0.00    +0.001 A 
ATOM     30  C   UNL     1       0.112  -1.083  22.489  0.00  0.00    +0.013 A 
ATOM     31  C   UNL     1       0.075   0.281  24.482  0.00  0.00    +0.013 A 
ATOM     32  C   UNL     1       1.285  -0.450  22.077  0.00  0.00    +0.046 A 
ATOM     33  C   UNL     1       1.247   0.914  24.071  0.00  0.00    +0.046 A 
ATOM     34  C   UNL     1       1.853   0.549  22.868  0.00  0.00    +0.120 A 
BRANCH  34   6
ATOM      6  O   UNL     1       2.998   1.166  22.468  0.00  0.00    -0.495 OA
ATOM     35  C   UNL     1       4.230   0.587  22.893  0.00  0.00    +0.277 C 
ENDBRANCH  34   6
ENDBRANCH  21  27
ENDBRANCH  14   8
BRANCH  13   7
ATOM      3  O   UNL     1      -2.168   1.367  26.083  0.00  0.00    -0.270 OA
ATOM      7  N   UNL     1      -2.587   3.646  26.199  0.00  0.00    -0.304 N 
ATOM     17  C   UNL     1      -1.808   2.509  26.359  0.00  0.00    +0.245 C 
ATOM     36  H   UNL     1      -2.186   4.552  26.422  0.00  0.00    +0.149 HD
BRANCH  17  19
ATOM     19  C   UNL     1      -0.454   2.724  26.932  0.00  0.00    +0.051 A 
ATOM     20  C   UNL     1       0.473   3.494  26.259  0.00  0.00    +0.071 A 
ATOM     22  C   UNL     1      -0.170   2.130  28.146  0.00  0.00    +0.014 A 
ATOM     25  C   UNL     1       1.735   3.679  26.822  0.00  0.00    +0.016 A 
ATOM     26  C   UNL     1       1.093   2.314  28.710  0.00  0.00    +0.001 A 
ATOM     29  C   UNL     1       2.045   3.089  28.047  0.00  0.00    +0.001 A 
BRANCH  20  28
ATOM      5  O   UNL     1       0.460   3.656  23.871  0.00  0.00    -0.245 OA
ATOM     28  C   UNL     1       0.178   4.124  24.977  0.00  0.00    +0.338 C 
BRANCH  28   4
ATOM      4  O   UNL     1      -0.460   5.316  25.122  0.00  0.00    -0.477 OA
ATOM     38  H   UNL     1       0.027   5.920  25.722  0.00  0.00    +0.295 HD
ENDBRANCH  28   4
ENDBRANCH  20  28
ENDBRANCH  17  19
ENDBRANCH  13   7
TORSDOF 7
ENDMDL
MODEL 3
REMARK VINA RESULT:       8.4      2.198      6.075
REMARK  Name = 11912792
REMARK  8 active torsions:
REMARK  status: ('A' for Active; 'I' for Inactive)
REMARK    1  A    between atoms: O_4  and  C_28
REMARK    2  A    between atoms: O_6  and  C_34
REMARK    3  A    between atoms: O_6  and  C_35
REMARK    4  A    between atoms: N_7  and  C_13
REMARK    5  A    between atoms: N_8  and  C_14
REMARK    6  A    between atoms: C_17  and  C_19
REMARK    7  A    between atoms: C_20  and  C_28
REMARK    8  A    between atoms: C_21  and  C_27
REMARK                            x       y       z     vdW  Elec       q    Type
REMARK                         _______ _______ _______ _____ _____    ______ ____
ROOT
ATOM      1  O   UNL     1      -0.305   0.532  26.467  0.00  0.00    -0.370 OA
ATOM      2  O   UNL     1       0.935  -0.668  23.867  0.00  0.00    -0.370 OA
ATOM     11  C   UNL     1      -0.176   0.210  24.114  0.00  0.00    +0.171 C 
ATOM     12  C   UNL     1      -0.844  -0.255  25.392  0.00  0.00    +0.171 C 
ATOM     13  C   UNL     1       0.317   1.601  24.442  0.00  0.00    +0.130 C 
ATOM     14  C   UNL     1      -0.414  -1.696  25.531  0.00  0.00    +0.130 C 
ATOM     15  C   UNL     1       0.607   1.502  25.928  0.00  0.00    +0.185 C 
ATOM     16  C   UNL     1       0.949  -1.702  24.863  0.00  0.00    +0.185 C 
ENDROOT
BRANCH  14   8
ATOM      8  N   UNL     1      -1.327  -2.557  24.813  0.00  0.00    -0.306 N 
ATOM      9  N   UNL     1      -3.052  -0.967  24.876  0.00  0.00    -0.214 NA
ATOM     10  N   UNL     1      -3.377  -3.103  23.809  0.00  0.00    -0.223 NA
ATOM     18  C   UNL     1      -2.623  -2.199  24.489  0.00  0.00    +0.216 A 
ATOM     21  C   UNL     1      -4.320  -0.651  24.545  0.00  0.00    +0.076 A 
ATOM     23  C   UNL     1      -4.635  -2.721  23.510  0.00  0.00    +0.116 A 
ATOM     24  C   UNL     1      -5.167  -1.495  23.856  0.00  0.00    +0.048 A 
ATOM     37  H   UNL     1      -1.002  -3.455  24.474  0.00  0.00    +0.149 HD
BRANCH  21  27
ATOM     27  C   UNL     1      -4.754   0.661  24.964  0.00  0.00    +0.001 A 
ATOM     30  C   UNL     1      -6.019   1.129  24.602  0.00  0.00    +0.013 A 
ATOM     31  C   UNL     1      -3.910   1.466  25.731  0.00  0.00    +0.013 A 
ATOM     32  C   UNL     1      -6.438   2.397  25.006  0.00  0.00    +0.046 A 
ATOM     33  C   UNL     1      -4.328   2.734  26.135  0.00  0.00    +0.046 A 
ATOM     34  C   UNL     1      -5.592   3.199  25.773  0.00  0.00    +0.120 A 
BRANCH  34   6
ATOM      6  O   UNL     1      -5.999   4.437  26.165  0.00  0.00    -0.495 OA
ATOM     35  C   UNL     1      -6.575   5.279  25.168  0.00  0.00    +0.277 C 
ENDBRANCH  34   6
ENDBRANCH  21  27
ENDBRANCH  14   8
BRANCH  13   7
ATOM      3  O   UNL     1      -1.994   1.280  22.767  0.00  0.00    -0.270 OA
ATOM      7  N   UNL     1      -0.697   2.592  24.173  0.00  0.00    -0.304 N 
ATOM     17  C   UNL     1      -1.783   2.343  23.345  0.00  0.00    +0.245 C 
ATOM     36  H   UNL     1      -0.629   3.493  24.637  0.00  0.00    +0.149 HD
BRANCH  17  19
ATOM     19  C   UNL     1      -2.725   3.475  23.149  0.00  0.00    +0.051 A 
ATOM     20  C   UNL     1      -2.649   4.591  23.957  0.00  0.00    +0.071 A 
ATOM     22  C   UNL     1      -3.661   3.362  22.140  0.00  0.00    +0.014 A 
ATOM     25  C   UNL     1      -3.546   5.638  23.748  0.00  0.00    +0.016 A 
ATOM     26  C   UNL     1      -4.558   4.410  21.930  0.00  0.00    +0.001 A 
ATOM     29  C   UNL     1      -4.500   5.548  22.735  0.00  0.00    +0.001 A 
BRANCH  20  28
ATOM      5  O   UNL     1      -1.780   4.250  26.161  0.00  0.00    -0.245 OA
ATOM     28  C   UNL     1      -1.664   4.715  25.024  0.00  0.00    +0.338 C 
BRANCH  28   4
ATOM      4  O   UNL     1      -0.565   5.415  24.634  0.00  0.00    -0.477 OA
ATOM     38  H   UNL     1       0.042   4.869  24.089  0.00  0.00    +0.295 HD
ENDBRANCH  28   4
ENDBRANCH  20  28
ENDBRANCH  17  19
ENDBRANCH  13   7
TORSDOF 7
ENDMDL
MODEL 4
REMARK VINA RESULT:       8.5      2.327      5.500
REMARK  Name = 11912792
REMARK  8 active torsions:
REMARK  status: ('A' for Active; 'I' for Inactive)
REMARK    1  A    between atoms: O_4  and  C_28
REMARK    2  A    between atoms: O_6  and  C_34
REMARK    3  A    between atoms: O_6  and  C_35
REMARK    4  A    between atoms: N_7  and  C_13
REMARK    5  A    between atoms: N_8  and  C_14
REMARK    6  A    between atoms: C_17  and  C_19
REMARK    7  A    between atoms: C_20  and  C_28
REMARK    8  A    between atoms: C_21  and  C_27
REMARK                            x       y       z     vdW  Elec       q    Type
REMARK                         _______ _______ _______ _____ _____    ______ ____
ROOT
ATOM      1  O   UNL     1      -2.381  -1.600  26.093  0.00  0.00    -0.370 OA
ATOM      2  O   UNL     1      -3.585  -2.011  23.243  0.00  0.00    -0.370 OA
ATOM     11  C   UNL     1      -2.486  -1.231  23.745  0.00  0.00    +0.171 C 
ATOM     12  C   UNL     1      -2.896  -0.695  25.103  0.00  0.00    +0.171 C 
ATOM     13  C   UNL     1      -1.303  -2.123  24.044  0.00  0.00    +0.130 C 
ATOM     14  C   UNL     1      -4.405  -0.747  25.080  0.00  0.00    +0.130 C 
ATOM     15  C   UNL     1      -1.621  -2.629  25.440  0.00  0.00    +0.185 C 
ATOM     16  C   UNL     1      -4.684  -1.923  24.162  0.00  0.00    +0.185 C 
ENDROOT
BRANCH  14   8
ATOM      8  N   UNL     1      -4.935   0.471  24.508  0.00  0.00    -0.306 N 
ATOM      9  N   UNL     1      -3.110   1.745  25.253  0.00  0.00    -0.214 NA
ATOM     10  N   UNL     1      -4.904   2.763  24.006  0.00  0.00    -0.223 NA
ATOM     18  C   UNL     1      -4.298   1.696  24.591  0.00  0.00    +0.216 A 
ATOM     21  C   UNL     1      -2.518   2.955  25.315  0.00  0.00    +0.076 A 
ATOM     23  C   UNL     1      -4.256   3.942  24.106  0.00  0.00    +0.116 A 
ATOM     24  C   UNL     1      -3.048   4.100  24.755  0.00  0.00    +0.048 A 
ATOM     37  H   UNL     1      -5.792   0.436  23.968  0.00  0.00    +0.149 HD
BRANCH  21  27
ATOM     27  C   UNL     1      -1.258   2.985  26.020  0.00  0.00    +0.001 A 
ATOM     30  C   UNL     1      -0.919   1.947  26.891  0.00  0.00    +0.013 A 
ATOM     31  C   UNL     1      -0.376   4.050  25.834  0.00  0.00    +0.013 A 
ATOM     32  C   UNL     1       0.298   1.976  27.573  0.00  0.00    +0.046 A 
ATOM     33  C   UNL     1       0.840   4.080  26.516  0.00  0.00    +0.046 A 
ATOM     34  C   UNL     1       1.178   3.042  27.386  0.00  0.00    +0.120 A 
BRANCH  34   6
ATOM      6  O   UNL     1       2.364   3.072  28.052  0.00  0.00    -0.495 OA
ATOM     35  C   UNL     1       2.358   2.630  29.408  0.00  0.00    +0.277 C 
ENDBRANCH  34   6
ENDBRANCH  21  27
ENDBRANCH  14   8
BRANCH  13   7
ATOM      3  O   UNL     1       0.181  -1.312  21.723  0.00  0.00    -0.270 OA
ATOM      7  N   UNL     1      -0.068  -1.375  24.028  0.00  0.00    -0.304 N 
ATOM     17  C   UNL     1       0.578  -1.028  22.850  0.00  0.00    +0.245 C 
ATOM     36  H   UNL     1       0.320  -1.062  24.913  0.00  0.00    +0.149 HD
BRANCH  17  19
ATOM     19  C   UNL     1       1.853  -0.281  23.004  0.00  0.00    +0.051 A 
ATOM     20  C   UNL     1       1.839   1.081  23.231  0.00  0.00    +0.071 A 
ATOM     22  C   UNL     1       3.031  -0.997  22.912  0.00  0.00    +0.014 A 
ATOM     25  C   UNL     1       3.052   1.754  23.372  0.00  0.00    +0.016 A 
ATOM     26  C   UNL     1       4.244  -0.323  23.054  0.00  0.00    +0.001 A 
ATOM     29  C   UNL     1       4.254   1.053  23.283  0.00  0.00    +0.001 A 
BRANCH  20  28
ATOM      5  O   UNL     1      -0.534   1.355  23.375  0.00  0.00    -0.245 OA
ATOM     28  C   UNL     1       0.599   1.841  23.328  0.00  0.00    +0.338 C 
BRANCH  28   4
ATOM      4  O   UNL     1       0.817   3.182  23.365  0.00  0.00    -0.477 OA
ATOM     38  H   UNL     1       1.703   3.418  23.015  0.00  0.00    +0.295 HD
ENDBRANCH  28   4
ENDBRANCH  20  28
ENDBRANCH  17  19
ENDBRANCH  13   7
TORSDOF 7
ENDMDL
MODEL 5
REMARK VINA RESULT:       8.8      2.135      6.959
REMARK  Name = 11912792
REMARK  8 active torsions:
REMARK  status: ('A' for Active; 'I' for Inactive)
REMARK    1  A    between atoms: O_4  and  C_28
REMARK    2  A    between atoms: O_6  and  C_34
REMARK    3  A    between atoms: O_6  and  C_35
REMARK    4  A    between atoms: N_7  and  C_13
REMARK    5  A    between atoms: N_8  and  C_14
REMARK    6  A    between atoms: C_17  and  C_19
REMARK    7  A    between atoms: C_20  and  C_28
REMARK    8  A    between atoms: C_21  and  C_27
REMARK                            x       y       z     vdW  Elec       q    Type
REMARK                         _______ _______ _______ _____ _____    ______ ____
ROOT
ATOM      1  O   UNL     1      -2.915  -1.869  23.965  0.00  0.00    -0.370 OA
ATOM      2  O   UNL     1      -0.526  -1.883  25.973  0.00  0.00    -0.370 OA
ATOM     11  C   UNL     1      -1.222  -0.835  25.278  0.00  0.00    +0.171 C 
ATOM     12  C   UNL     1      -1.572  -1.361  23.900  0.00  0.00    +0.171 C 
ATOM     13  C   UNL     1      -2.564  -0.577  25.925  0.00  0.00    +0.130 C 
ATOM     14  C   UNL     1      -0.594  -2.491  23.677  0.00  0.00    +0.130 C 
ATOM     15  C   UNL     1      -3.444  -1.631  25.278  0.00  0.00    +0.185 C 
ATOM     16  C   UNL     1      -0.344  -2.997  25.086  0.00  0.00    +0.185 C 
ENDROOT
BRANCH  14   8
ATOM      8  N   UNL     1       0.631  -1.981  23.103  0.00  0.00    -0.306 N 
ATOM      9  N   UNL     1       0.238   0.187  23.914  0.00  0.00    -0.214 NA
ATOM     10  N   UNL     1       2.218  -0.316  22.636  0.00  0.00    -0.223 NA
ATOM     18  C   UNL     1       1.042  -0.665  23.221  0.00  0.00    +0.216 A 
ATOM     21  C   UNL     1       0.668   1.461  24.008  0.00  0.00    +0.076 A 
ATOM     23  C   UNL     1       2.588   0.974  22.770  0.00  0.00    +0.116 A 
ATOM     24  C   UNL     1       1.846   1.917  23.452  0.00  0.00    +0.048 A 
ATOM     37  H   UNL     1       1.263  -2.617  22.631  0.00  0.00    +0.149 HD
BRANCH  21  27
ATOM     27  C   UNL     1      -0.199   2.347  24.749  0.00  0.00    +0.001 A 
ATOM     30  C   UNL     1      -0.577   2.028  26.054  0.00  0.00    +0.013 A 
ATOM     31  C   UNL     1      -0.662   3.525  24.161  0.00  0.00    +0.013 A 
ATOM     32  C   UNL     1      -1.415   2.884  26.770  0.00  0.00    +0.046 A 
ATOM     33  C   UNL     1      -1.501   4.381  24.875  0.00  0.00    +0.046 A 
ATOM     34  C   UNL     1      -1.877   4.061  26.180  0.00  0.00    +0.120 A 
BRANCH  34   6
ATOM      6  O   UNL     1      -2.696   4.895  26.876  0.00  0.00    -0.495 OA
ATOM     35  C   UNL     1      -3.286   4.380  28.069  0.00  0.00    +0.277 C 
ENDBRANCH  34   6
ENDBRANCH  21  27
ENDBRANCH  14   8
BRANCH  13   7
ATOM      3  O   UNL     1      -5.134   0.128  24.856  0.00  0.00    -0.270 OA
ATOM      7  N   UNL     1      -3.039   0.754  25.629  0.00  0.00    -0.304 N 
ATOM     17  C   UNL     1      -4.304   0.996  25.112  0.00  0.00    +0.245 C 
ATOM     36  H   UNL     1      -2.435   1.542  25.843  0.00  0.00    +0.149 HD
BRANCH  17  19
ATOM     19  C   UNL     1      -4.632   2.419  24.838  0.00  0.00    +0.051 A 
ATOM     20  C   UNL     1      -4.170   3.031  23.691  0.00  0.00    +0.071 A 
ATOM     22  C   UNL     1      -5.407   3.088  25.765  0.00  0.00    +0.014 A 
ATOM     25  C   UNL     1      -4.495   4.368  23.461  0.00  0.00    +0.016 A 
ATOM     26  C   UNL     1      -5.733   4.425  25.535  0.00  0.00    +0.001 A 
ATOM     29  C   UNL     1      -5.277   5.064  24.382  0.00  0.00    +0.001 A 
BRANCH  20  28
ATOM      5  O   UNL     1      -2.834   1.223  22.873  0.00  0.00    -0.245 OA
ATOM     28  C   UNL     1      -3.352   2.330  22.709  0.00  0.00    +0.338 C 
BRANCH  28   4
ATOM      4  O   UNL     1      -3.210   3.036  21.556  0.00  0.00    -0.477 OA
ATOM     38  H   UNL     1      -3.951   2.873  20.934  0.00  0.00    +0.295 HD
ENDBRANCH  28   4
ENDBRANCH  20  28
ENDBRANCH  17  19
ENDBRANCH  13   7
TORSDOF 7
ENDMDL
MODEL 6
REMARK VINA RESULT:       9.7      1.662      2.589
REMARK  Name = 11912792
REMARK  8 active torsions:
REMARK  status: ('A' for Active; 'I' for Inactive)
REMARK    1  A    between atoms: O_4  and  C_28
REMARK    2  A    between atoms: O_6  and  C_34
REMARK    3  A    between atoms: O_6  and  C_35
REMARK    4  A    between atoms: N_7  and  C_13
REMARK    5  A    between atoms: N_8  and  C_14
REMARK    6  A    between atoms: C_17  and  C_19
REMARK    7  A    between atoms: C_20  and  C_28
REMARK    8  A    between atoms: C_21  and  C_27
REMARK                            x       y       z     vdW  Elec       q    Type
REMARK                         _______ _______ _______ _____ _____    ______ ____
ROOT
ATOM      1  O   UNL     1      -1.312   4.725  24.672  0.00  0.00    -0.370 OA
ATOM      2  O   UNL     1      -2.648   3.255  27.079  0.00  0.00    -0.370 OA
ATOM     11  C   UNL     1      -2.284   2.841  25.751  0.00  0.00    +0.171 C 
ATOM     12  C   UNL     1      -2.550   4.011  24.824  0.00  0.00    +0.171 C 
ATOM     13  C   UNL     1      -0.790   2.631  25.658  0.00  0.00    +0.130 C 
ATOM     14  C   UNL     1      -3.553   4.856  25.574  0.00  0.00    +0.130 C 
ATOM     15  C   UNL     1      -0.279   4.035  25.392  0.00  0.00    +0.185 C 
ATOM     16  C   UNL     1      -3.204   4.578  27.025  0.00  0.00    +0.185 C 
ENDROOT
BRANCH  14   8
ATOM      8  N   UNL     1      -4.896   4.403  25.287  0.00  0.00    -0.306 N 
ATOM      9  N   UNL     1      -4.229   2.156  25.159  0.00  0.00    -0.214 NA
ATOM     10  N   UNL     1      -6.531   2.784  24.826  0.00  0.00    -0.223 NA
ATOM     18  C   UNL     1      -5.229   3.075  25.085  0.00  0.00    +0.216 A 
ATOM     21  C   UNL     1      -4.589   0.872  24.957  0.00  0.00    +0.076 A 
ATOM     23  C   UNL     1      -6.821   1.480  24.634  0.00  0.00    +0.116 A 
ATOM     24  C   UNL     1      -5.882   0.471  24.688  0.00  0.00    +0.048 A 
ATOM     37  H   UNL     1      -5.657   5.072  25.281  0.00  0.00    +0.149 HD
BRANCH  21  27
ATOM     27  C   UNL     1      -3.512  -0.087  25.042  0.00  0.00    +0.001 A 
ATOM     30  C   UNL     1      -3.391  -1.090  24.079  0.00  0.00    +0.013 A 
ATOM     31  C   UNL     1      -2.591  -0.013  26.087  0.00  0.00    +0.013 A 
ATOM     32  C   UNL     1      -2.351  -2.017  24.161  0.00  0.00    +0.046 A 
ATOM     33  C   UNL     1      -1.551  -0.940  26.170  0.00  0.00    +0.046 A 
ATOM     34  C   UNL     1      -1.431  -1.942  25.207  0.00  0.00    +0.120 A 
BRANCH  34   6
ATOM      6  O   UNL     1      -0.418  -2.846  25.289  0.00  0.00    -0.495 OA
ATOM     35  C   UNL     1       0.912  -2.332  25.313  0.00  0.00    +0.277 C 
ENDBRANCH  34   6
ENDBRANCH  21  27
ENDBRANCH  14   8
BRANCH  13   7
ATOM      3  O   UNL     1       1.848   1.937  24.760  0.00  0.00    -0.270 OA
ATOM      7  N   UNL     1      -0.455   1.739  24.573  0.00  0.00    -0.304 N 
ATOM     17  C   UNL     1       0.856   1.464  24.211  0.00  0.00    +0.245 C 
ATOM     36  H   UNL     1      -1.210   1.269  24.082  0.00  0.00    +0.149 HD
BRANCH  17  19
ATOM     19  C   UNL     1       1.033   0.546  23.057  0.00  0.00    +0.051 A 
ATOM     20  C   UNL     1       2.292   0.316  22.537  0.00  0.00    +0.071 A 
ATOM     22  C   UNL     1      -0.095  -0.056  22.537  0.00  0.00    +0.014 A 
ATOM     25  C   UNL     1       2.427  -0.551  21.453  0.00  0.00    +0.016 A 
ATOM     26  C   UNL     1       0.040  -0.924  21.453  0.00  0.00    +0.001 A 
ATOM     29  C   UNL     1       1.301  -1.171  20.912  0.00  0.00    +0.001 A 
BRANCH  20  28
ATOM      5  O   UNL     1       4.316   0.399  23.811  0.00  0.00    -0.245 OA
ATOM     28  C   UNL     1       3.486   0.949  23.082  0.00  0.00    +0.338 C 
BRANCH  28   4
ATOM      4  O   UNL     1       3.604   2.248  22.697  0.00  0.00    -0.477 OA
ATOM     38  H   UNL     1       2.737   2.638  22.459  0.00  0.00    +0.295 HD
ENDBRANCH  28   4
ENDBRANCH  20  28
ENDBRANCH  17  19
ENDBRANCH  13   7
TORSDOF 7
ENDMDL
MODEL 7
REMARK VINA RESULT:      10.5      2.322      7.362
REMARK  Name = 11912792
REMARK  8 active torsions:
REMARK  status: ('A' for Active; 'I' for Inactive)
REMARK    1  A    between atoms: O_4  and  C_28
REMARK    2  A    between atoms: O_6  and  C_34
REMARK    3  A    between atoms: O_6  and  C_35
REMARK    4  A    between atoms: N_7  and  C_13
REMARK    5  A    between atoms: N_8  and  C_14
REMARK    6  A    between atoms: C_17  and  C_19
REMARK    7  A    between atoms: C_20  and  C_28
REMARK    8  A    between atoms: C_21  and  C_27
REMARK                            x       y       z     vdW  Elec       q    Type
REMARK                         _______ _______ _______ _____ _____    ______ ____
ROOT
ATOM      1  O   UNL     1      -2.810  -1.862  24.030  0.00  0.00    -0.370 OA
ATOM      2  O   UNL     1      -0.497  -1.714  26.119  0.00  0.00    -0.370 OA
ATOM     11  C   UNL     1      -1.084  -0.749  25.230  0.00  0.00    +0.171 C 
ATOM     12  C   UNL     1      -1.429  -1.473  23.943  0.00  0.00    +0.171 C 
ATOM     13  C   UNL     1      -2.421  -0.289  25.763  0.00  0.00    +0.130 C 
ATOM     14  C   UNL     1      -0.539  -2.692  23.954  0.00  0.00    +0.130 C 
ATOM     15  C   UNL     1      -3.362  -1.369  25.260  0.00  0.00    +0.185 C 
ATOM     16  C   UNL     1      -0.376  -2.972  25.438  0.00  0.00    +0.185 C 
ENDROOT
BRANCH  14   8
ATOM      8  N   UNL     1       0.742  -2.378  23.361  0.00  0.00    -0.306 N 
ATOM      9  N   UNL     1       0.527  -0.091  23.845  0.00  0.00    -0.214 NA
ATOM     10  N   UNL     1       2.485  -0.941  22.725  0.00  0.00    -0.223 NA
ATOM     18  C   UNL     1       1.267  -1.099  23.309  0.00  0.00    +0.216 A 
ATOM     21  C   UNL     1       1.070   1.142  23.776  0.00  0.00    +0.076 A 
ATOM     23  C   UNL     1       2.967   0.319  22.691  0.00  0.00    +0.116 A 
ATOM     24  C   UNL     1       2.297   1.410  23.205  0.00  0.00    +0.048 A 
ATOM     37  H   UNL     1       1.324  -3.127  23.007  0.00  0.00    +0.149 HD
BRANCH  21  27
ATOM     27  C   UNL     1       0.269   2.196  24.352  0.00  0.00    +0.001 A 
ATOM     30  C   UNL     1      -0.259   3.200  23.538  0.00  0.00    +0.013 A 
ATOM     31  C   UNL     1       0.019   2.215  25.725  0.00  0.00    +0.013 A 
ATOM     32  C   UNL     1      -1.032   4.219  24.094  0.00  0.00    +0.046 A 
ATOM     33  C   UNL     1      -0.753   3.234  26.283  0.00  0.00    +0.046 A 
ATOM     34  C   UNL     1      -1.280   4.236  25.467  0.00  0.00    +0.120 A 
BRANCH  34   6
ATOM      6  O   UNL     1      -2.032   5.231  26.011  0.00  0.00    -0.495 OA
ATOM     35  C   UNL     1      -2.115   6.455  25.283  0.00  0.00    +0.277 C 
ENDBRANCH  34   6
ENDBRANCH  21  27
ENDBRANCH  14   8
BRANCH  13   7
ATOM      3  O   UNL     1      -4.883   0.409  24.459  0.00  0.00    -0.270 OA
ATOM      7  N   UNL     1      -2.779   1.005  25.231  0.00  0.00    -0.304 N 
ATOM     17  C   UNL     1      -3.998   1.246  24.615  0.00  0.00    +0.245 C 
ATOM     36  H   UNL     1      -2.124   1.773  25.346  0.00  0.00    +0.149 HD
BRANCH  17  19
ATOM     19  C   UNL     1      -4.203   2.623  24.097  0.00  0.00    +0.051 A 
ATOM     20  C   UNL     1      -4.735   3.602  24.912  0.00  0.00    +0.071 A 
ATOM     22  C   UNL     1      -3.844   2.876  22.787  0.00  0.00    +0.014 A 
ATOM     25  C   UNL     1      -4.915   4.885  24.397  0.00  0.00    +0.016 A 
ATOM     26  C   UNL     1      -4.024   4.160  22.272  0.00  0.00    +0.001 A 
ATOM     29  C   UNL     1      -4.559   5.165  23.078  0.00  0.00    +0.001 A 
BRANCH  20  28
ATOM      5  O   UNL     1      -6.125   2.729  26.653  0.00  0.00    -0.245 OA
ATOM     28  C   UNL     1      -5.116   3.341  26.295  0.00  0.00    +0.338 C 
BRANCH  28   4
ATOM      4  O   UNL     1      -4.224   3.855  27.182  0.00  0.00    -0.477 OA
ATOM     38  H   UNL     1      -3.576   3.181  27.481  0.00  0.00    +0.295 HD
ENDBRANCH  28   4
ENDBRANCH  20  28
ENDBRANCH  17  19
ENDBRANCH  13   7
TORSDOF 7
ENDMDL
MODEL 8
REMARK VINA RESULT:      10.9      2.456      5.246
REMARK  Name = 11912792
REMARK  8 active torsions:
REMARK  status: ('A' for Active; 'I' for Inactive)
REMARK    1  A    between atoms: O_4  and  C_28
REMARK    2  A    between atoms: O_6  and  C_34
REMARK    3  A    between atoms: O_6  and  C_35
REMARK    4  A    between atoms: N_7  and  C_13
REMARK    5  A    between atoms: N_8  and  C_14
REMARK    6  A    between atoms: C_17  and  C_19
REMARK    7  A    between atoms: C_20  and  C_28
REMARK    8  A    between atoms: C_21  and  C_27
REMARK                            x       y       z     vdW  Elec       q    Type
REMARK                         _______ _______ _______ _____ _____    ______ ____
ROOT
ATOM      1  O   UNL     1      -3.730  -0.698  26.273  0.00  0.00    -0.370 OA
ATOM      2  O   UNL     1      -5.286  -0.813  23.570  0.00  0.00    -0.370 OA
ATOM     11  C   UNL     1      -3.915  -0.541  23.907  0.00  0.00    +0.171 C 
ATOM     12  C   UNL     1      -3.915   0.244  25.204  0.00  0.00    +0.171 C 
ATOM     13  C   UNL     1      -3.195  -1.825  24.254  0.00  0.00    +0.130 C 
ATOM     14  C   UNL     1      -5.298   0.847  25.270  0.00  0.00    +0.130 C 
ATOM     15  C   UNL     1      -3.549  -2.010  25.719  0.00  0.00    +0.185 C 
ATOM     16  C   UNL     1      -6.142  -0.173  24.528  0.00  0.00    +0.185 C 
ENDROOT
BRANCH  14   8
ATOM      8  N   UNL     1      -5.320   2.114  24.575  0.00  0.00    -0.306 N 
ATOM      9  N   UNL     1      -3.199   2.717  25.377  0.00  0.00    -0.214 NA
ATOM     10  N   UNL     1      -4.435   4.188  23.922  0.00  0.00    -0.223 NA
ATOM     18  C   UNL     1      -4.288   3.034  24.626  0.00  0.00    +0.216 A 
ATOM     21  C   UNL     1      -2.212   3.636  25.405  0.00  0.00    +0.076 A 
ATOM     23  C   UNL     1      -3.409   5.061  23.994  0.00  0.00    +0.116 A 
ATOM     24  C   UNL     1      -2.262   4.837  24.726  0.00  0.00    +0.048 A 
ATOM     37  H   UNL     1      -6.103   2.337  23.970  0.00  0.00    +0.149 HD
BRANCH  21  27
ATOM     27  C   UNL     1      -1.065   3.280  26.207  0.00  0.00    +0.001 A 
ATOM     30  C   UNL     1      -1.190   3.159  27.592  0.00  0.00    +0.013 A 
ATOM     31  C   UNL     1       0.171   3.055  25.600  0.00  0.00    +0.013 A 
ATOM     32  C   UNL     1      -0.082   2.815  28.368  0.00  0.00    +0.046 A 
ATOM     33  C   UNL     1       1.279   2.711  26.374  0.00  0.00    +0.046 A 
ATOM     34  C   UNL     1       1.153   2.591  27.758  0.00  0.00    +0.120 A 
BRANCH  34   6
ATOM      6  O   UNL     1       2.234   2.258  28.514  0.00  0.00    -0.495 OA
ATOM     35  C   UNL     1       2.020   2.080  29.913  0.00  0.00    +0.277 C 
ENDBRANCH  34   6
ENDBRANCH  21  27
ENDBRANCH  14   8
BRANCH  13   7
ATOM      3  O   UNL     1      -1.794   0.518  23.363  0.00  0.00    -0.270 OA
ATOM      7  N   UNL     1      -1.769  -1.689  24.074  0.00  0.00    -0.304 N 
ATOM     17  C   UNL     1      -1.181  -0.510  23.638  0.00  0.00    +0.245 C 
ATOM     36  H   UNL     1      -1.174  -2.477  24.312  0.00  0.00    +0.149 HD
BRANCH  17  19
ATOM     19  C   UNL     1       0.295  -0.540  23.478  0.00  0.00    +0.051 A 
ATOM     20  C   UNL     1       1.074  -1.285  24.342  0.00  0.00    +0.071 A 
ATOM     22  C   UNL     1       0.844   0.196  22.447  0.00  0.00    +0.014 A 
ATOM     25  C   UNL     1       2.457  -1.294  24.167  0.00  0.00    +0.016 A 
ATOM     26  C   UNL     1       2.228   0.187  22.271  0.00  0.00    +0.001 A 
ATOM     29  C   UNL     1       3.034  -0.558  23.132  0.00  0.00    +0.001 A 
BRANCH  20  28
ATOM      5  O   UNL     1       0.588  -3.287  25.558  0.00  0.00    -0.245 OA
ATOM     28  C   UNL     1       0.500  -2.063  25.432  0.00  0.00    +0.338 C 
BRANCH  28   4
ATOM      4  O   UNL     1      -0.165  -1.286  26.328  0.00  0.00    -0.477 OA
ATOM     38  H   UNL     1      -0.637  -1.824  26.999  0.00  0.00    +0.295 HD
ENDBRANCH  28   4
ENDBRANCH  20  28
ENDBRANCH  17  19
ENDBRANCH  13   7
TORSDOF 7
ENDMDL
