MODEL 1
REMARK VINA RESULT:      -1.6      0.000      0.000
REMARK  Name = 11941662
REMARK  7 active torsions:
REMARK  status: ('A' for Active; 'I' for Inactive)
REMARK    1  A    between atoms: O_4  and  C_24
REMARK    2  A    between atoms: O_4  and  C_29
REMARK    3  A    between atoms: N_5  and  C_12
REMARK    4  A    between atoms: N_6  and  C_13
REMARK    5  A    between atoms: N_7  and  C_18
REMARK    6  A    between atoms: C_18  and  C_23
REMARK    7  A    between atoms: C_19  and  C_22
REMARK                            x       y       z     vdW  Elec       q    Type
REMARK                         _______ _______ _______ _____ _____    ______ ____
ROOT
ATOM      5  N   UNL     1      -4.591  -0.692  25.702  0.00  0.00    -0.306 N 
ATOM      8  N   UNL     1      -3.473   1.305  25.180  0.00  0.00    -0.214 NA
ATOM      9  N   UNL     1      -5.839   1.070  24.783  0.00  0.00    -0.223 NA
ATOM     16  C   UNL     1      -4.636   0.600  25.206  0.00  0.00    +0.216 A 
ATOM     19  C   UNL     1      -3.554   2.560  24.691  0.00  0.00    +0.080 A 
ATOM     20  C   UNL     1      -5.845   2.332  24.305  0.00  0.00    +0.116 A 
ATOM     21  C   UNL     1      -4.723   3.132  24.235  0.00  0.00    +0.048 A 
ATOM     30  H   UNL     1      -5.451  -1.226  25.668  0.00  0.00    +0.149 HD
ENDROOT
BRANCH   5  12
ATOM      1  O   UNL     1      -2.605  -2.672  24.393  0.00  0.00    -0.370 OA
ATOM      2  O   UNL     1      -1.010  -0.883  26.390  0.00  0.00    -0.370 OA
ATOM     10  C   UNL     1      -2.172  -0.653  25.574  0.00  0.00    +0.171 C 
ATOM     11  C   UNL     1      -1.958  -1.395  24.270  0.00  0.00    +0.171 C 
ATOM     12  C   UNL     1      -3.381  -1.321  26.186  0.00  0.00    +0.130 C 
ATOM     13  C   UNL     1      -0.459  -1.571  24.188  0.00  0.00    +0.131 C 
ATOM     14  C   UNL     1      -3.280  -2.739  25.658  0.00  0.00    +0.185 C 
ATOM     15  C   UNL     1      -0.063  -1.666  25.650  0.00  0.00    +0.185 C 
BRANCH  13   6
ATOM      3  O   UNL     1       2.316  -1.306  23.441  0.00  0.00    -0.253 OA
ATOM      6  N   UNL     1       0.165  -0.438  23.548  0.00  0.00    -0.292 N 
ATOM      7  N   UNL     1       1.855   0.813  22.615  0.00  0.00    -0.300 N 
ATOM     17  C   UNL     1       1.519  -0.394  23.222  0.00  0.00    +0.300 C 
ATOM     31  H   UNL     1      -0.421   0.340  23.264  0.00  0.00    +0.151 HD
ATOM     32  H   UNL     1       1.130   1.510  22.476  0.00  0.00    +0.150 HD
BRANCH   7  18
ATOM     18  C   UNL     1       3.196   1.122  22.176  0.00  0.00    +0.102 C 
ATOM     23  C   UNL     1       4.225   0.733  23.218  0.00  0.00    +0.024 C 
ENDBRANCH   7  18
ENDBRANCH  13   6
ENDBRANCH   5  12
BRANCH  19  22
ATOM     22  C   UNL     1      -2.309   3.291  24.671  0.00  0.00    +0.042 A 
ATOM     24  C   UNL     1      -1.234   2.864  23.886  0.00  0.00    +0.129 A 
ATOM     25  C   UNL     1      -2.179   4.444  25.450  0.00  0.00    +0.013 A 
ATOM     26  C   UNL     1      -0.040   3.583  23.881  0.00  0.00    +0.046 A 
ATOM     27  C   UNL     1      -0.984   5.164  25.444  0.00  0.00    +0.001 A 
ATOM     28  C   UNL     1       0.084   4.734  24.660  0.00  0.00    +0.004 A 
BRANCH  24   4
ATOM      4  O   UNL     1      -1.328   1.742  23.115  0.00  0.00    -0.494 OA
ATOM     29  C   UNL     1      -2.175   1.814  21.971  0.00  0.00    +0.277 C 
ENDBRANCH  24   4
ENDBRANCH  19  22
TORSDOF 5
ENDMDL
MODEL 2
REMARK VINA RESULT:       0.7      3.015      5.708
REMARK  Name = 11941662
REMARK  7 active torsions:
REMARK  status: ('A' for Active; 'I' for Inactive)
REMARK    1  A    between atoms: O_4  and  C_24
REMARK    2  A    between atoms: O_4  and  C_29
REMARK    3  A    between atoms: N_5  and  C_12
REMARK    4  A    between atoms: N_6  and  C_13
REMARK    5  A    between atoms: N_7  and  C_18
REMARK    6  A    between atoms: C_18  and  C_23
REMARK    7  A    between atoms: C_19  and  C_22
REMARK                            x       y       z     vdW  Elec       q    Type
REMARK                         _______ _______ _______ _____ _____    ______ ____
ROOT
ATOM      5  N   UNL     1      -3.527   3.825  24.285  0.00  0.00    -0.306 N 
ATOM      8  N   UNL     1      -3.889   1.516  24.498  0.00  0.00    -0.214 NA
ATOM      9  N   UNL     1      -5.591   3.100  25.132  0.00  0.00    -0.223 NA
ATOM     16  C   UNL     1      -4.361   2.782  24.650  0.00  0.00    +0.216 A 
ATOM     19  C   UNL     1      -4.728   0.524  24.864  0.00  0.00    +0.080 A 
ATOM     20  C   UNL     1      -6.377   2.059  25.479  0.00  0.00    +0.116 A 
ATOM     21  C   UNL     1      -5.996   0.738  25.365  0.00  0.00    +0.048 A 
ATOM     30  H   UNL     1      -3.868   4.764  24.451  0.00  0.00    +0.149 HD
ENDROOT
BRANCH   5  12
ATOM      1  O   UNL     1      -0.806   5.122  24.987  0.00  0.00    -0.370 OA
ATOM      2  O   UNL     1      -0.267   2.197  24.044  0.00  0.00    -0.370 OA
ATOM     10  C   UNL     1      -1.365   2.824  24.728  0.00  0.00    +0.171 C 
ATOM     11  C   UNL     1      -0.777   3.858  25.669  0.00  0.00    +0.171 C 
ATOM     12  C   UNL     1      -2.193   3.635  23.758  0.00  0.00    +0.130 C 
ATOM     13  C   UNL     1       0.650   3.401  25.870  0.00  0.00    +0.131 C 
ATOM     14  C   UNL     1      -1.452   4.958  23.716  0.00  0.00    +0.185 C 
ATOM     15  C   UNL     1       0.967   2.730  24.547  0.00  0.00    +0.185 C 
BRANCH  13   6
ATOM      3  O   UNL     1       2.224   3.703  28.271  0.00  0.00    -0.253 OA
ATOM      6  N   UNL     1       0.750   2.469  26.968  0.00  0.00    -0.292 N 
ATOM      7  N   UNL     1       1.451   1.639  28.995  0.00  0.00    -0.300 N 
ATOM     17  C   UNL     1       1.539   2.697  28.094  0.00  0.00    +0.300 C 
ATOM     31  H   UNL     1       0.170   1.637  26.949  0.00  0.00    +0.151 HD
ATOM     32  H   UNL     1       0.860   0.846  28.764  0.00  0.00    +0.150 HD
BRANCH   7  18
ATOM     18  C   UNL     1       2.170   1.616  30.248  0.00  0.00    +0.102 C 
ATOM     23  C   UNL     1       1.297   2.077  31.396  0.00  0.00    +0.024 C 
ENDBRANCH   7  18
ENDBRANCH  13   6
ENDBRANCH   5  12
BRANCH  19  22
ATOM     22  C   UNL     1      -4.207  -0.812  24.696  0.00  0.00    +0.042 A 
ATOM     24  C   UNL     1      -3.060  -1.230  25.375  0.00  0.00    +0.129 A 
ATOM     25  C   UNL     1      -4.865  -1.700  23.840  0.00  0.00    +0.013 A 
ATOM     26  C   UNL     1      -2.573  -2.524  25.200  0.00  0.00    +0.046 A 
ATOM     27  C   UNL     1      -4.378  -2.996  23.665  0.00  0.00    +0.001 A 
ATOM     28  C   UNL     1      -3.232  -3.407  24.344  0.00  0.00    +0.004 A 
BRANCH  24   4
ATOM      4  O   UNL     1      -2.395  -0.387  26.217  0.00  0.00    -0.494 OA
ATOM     29  C   UNL     1      -0.974  -0.492  26.248  0.00  0.00    +0.277 C 
ENDBRANCH  24   4
ENDBRANCH  19  22
TORSDOF 5
ENDMDL
MODEL 3
REMARK VINA RESULT:       1.3      2.109      4.504
REMARK  Name = 11941662
REMARK  7 active torsions:
REMARK  status: ('A' for Active; 'I' for Inactive)
REMARK    1  A    between atoms: O_4  and  C_24
REMARK    2  A    between atoms: O_4  and  C_29
REMARK    3  A    between atoms: N_5  and  C_12
REMARK    4  A    between atoms: N_6  and  C_13
REMARK    5  A    between atoms: N_7  and  C_18
REMARK    6  A    between atoms: C_18  and  C_23
REMARK    7  A    between atoms: C_19  and  C_22
REMARK                            x       y       z     vdW  Elec       q    Type
REMARK                         _______ _______ _______ _____ _____    ______ ____
ROOT
ATOM      5  N   UNL     1      -1.365  -2.396  24.731  0.00  0.00    -0.306 N 
ATOM      8  N   UNL     1      -3.066  -0.780  24.774  0.00  0.00    -0.214 NA
ATOM      9  N   UNL     1      -3.447  -2.952  23.803  0.00  0.00    -0.223 NA
ATOM     16  C   UNL     1      -2.665  -2.032  24.427  0.00  0.00    +0.216 A 
ATOM     19  C   UNL     1      -4.339  -0.458  24.462  0.00  0.00    +0.080 A 
ATOM     20  C   UNL     1      -4.708  -2.564  23.521  0.00  0.00    +0.116 A 
ATOM     21  C   UNL     1      -5.214  -1.318  23.830  0.00  0.00    +0.048 A 
ATOM     30  H   UNL     1      -1.060  -3.311  24.421  0.00  0.00    +0.149 HD
ENDROOT
BRANCH   5  12
ATOM      1  O   UNL     1       0.879  -0.556  23.652  0.00  0.00    -0.370 OA
ATOM      2  O   UNL     1      -0.269   0.740  26.248  0.00  0.00    -0.370 OA
ATOM     10  C   UNL     1      -0.848  -0.079  25.217  0.00  0.00    +0.171 C 
ATOM     11  C   UNL     1      -0.217   0.339  23.904  0.00  0.00    +0.171 C 
ATOM     12  C   UNL     1      -0.422  -1.518  25.392  0.00  0.00    +0.130 C 
ATOM     13  C   UNL     1       0.296   1.735  24.170  0.00  0.00    +0.131 C 
ATOM     14  C   UNL     1       0.917  -1.557  24.681  0.00  0.00    +0.185 C 
ATOM     15  C   UNL     1       0.633   1.682  25.649  0.00  0.00    +0.185 C 
BRANCH  13   6
ATOM      3  O   UNL     1      -0.243   4.134  25.683  0.00  0.00    -0.253 OA
ATOM      6  N   UNL     1      -0.720   2.725  23.900  0.00  0.00    -0.292 N 
ATOM      7  N   UNL     1      -1.956   4.641  24.202  0.00  0.00    -0.300 N 
ATOM     17  C   UNL     1      -0.911   3.858  24.687  0.00  0.00    +0.300 C 
ATOM     31  H   UNL     1      -1.281   2.624  23.060  0.00  0.00    +0.151 HD
ATOM     32  H   UNL     1      -2.453   4.334  23.372  0.00  0.00    +0.150 HD
BRANCH   7  18
ATOM     18  C   UNL     1      -2.367   5.874  24.831  0.00  0.00    +0.102 C 
ATOM     23  C   UNL     1      -3.000   5.623  26.184  0.00  0.00    +0.024 C 
ENDBRANCH   7  18
ENDBRANCH  13   6
ENDBRANCH   5  12
BRANCH  19  22
ATOM     22  C   UNL     1      -4.744   0.875  24.839  0.00  0.00    +0.042 A 
ATOM     24  C   UNL     1      -4.213   1.998  24.198  0.00  0.00    +0.129 A 
ATOM     25  C   UNL     1      -5.684   1.043  25.860  0.00  0.00    +0.013 A 
ATOM     26  C   UNL     1      -4.618   3.278  24.576  0.00  0.00    +0.046 A 
ATOM     27  C   UNL     1      -6.089   2.323  26.237  0.00  0.00    +0.001 A 
ATOM     28  C   UNL     1      -5.556   3.440  25.596  0.00  0.00    +0.004 A 
BRANCH  24   4
ATOM      4  O   UNL     1      -3.294   1.869  23.198  0.00  0.00    -0.494 OA
ATOM     29  C   UNL     1      -3.466   2.698  22.051  0.00  0.00    +0.277 C 
ENDBRANCH  24   4
ENDBRANCH  19  22
TORSDOF 5
ENDMDL
MODEL 4
REMARK VINA RESULT:       1.4      2.182      4.853
REMARK  Name = 11941662
REMARK  7 active torsions:
REMARK  status: ('A' for Active; 'I' for Inactive)
REMARK    1  A    between atoms: O_4  and  C_24
REMARK    2  A    between atoms: O_4  and  C_29
REMARK    3  A    between atoms: N_5  and  C_12
REMARK    4  A    between atoms: N_6  and  C_13
REMARK    5  A    between atoms: N_7  and  C_18
REMARK    6  A    between atoms: C_18  and  C_23
REMARK    7  A    between atoms: C_19  and  C_22
REMARK                            x       y       z     vdW  Elec       q    Type
REMARK                         _______ _______ _______ _____ _____    ______ ____
ROOT
ATOM      5  N   UNL     1      -3.986   4.642  24.864  0.00  0.00    -0.306 N 
ATOM      8  N   UNL     1      -4.131   2.303  24.980  0.00  0.00    -0.214 NA
ATOM      9  N   UNL     1      -5.913   3.697  25.811  0.00  0.00    -0.223 NA
ATOM     16  C   UNL     1      -4.698   3.514  25.229  0.00  0.00    +0.216 A 
ATOM     19  C   UNL     1      -4.853   1.224  25.349  0.00  0.00    +0.080 A 
ATOM     20  C   UNL     1      -6.580   2.575  26.154  0.00  0.00    +0.116 A 
ATOM     21  C   UNL     1      -6.095   1.300  25.946  0.00  0.00    +0.048 A 
ATOM     30  H   UNL     1      -4.393   5.539  25.102  0.00  0.00    +0.149 HD
ENDROOT
BRANCH   5  12
ATOM      1  O   UNL     1      -1.117   4.828  26.011  0.00  0.00    -0.370 OA
ATOM      2  O   UNL     1      -1.033   2.993  23.488  0.00  0.00    -0.370 OA
ATOM     10  C   UNL     1      -2.038   3.253  24.483  0.00  0.00    +0.171 C 
ATOM     11  C   UNL     1      -1.323   3.420  25.810  0.00  0.00    +0.171 C 
ATOM     12  C   UNL     1      -2.682   4.598  24.238  0.00  0.00    +0.130 C 
ATOM     13  C   UNL     1      -0.000   2.718  25.606  0.00  0.00    +0.131 C 
ATOM     14  C   UNL     1      -1.732   5.553  24.935  0.00  0.00    +0.185 C 
ATOM     15  C   UNL     1       0.252   2.924  24.124  0.00  0.00    +0.185 C 
BRANCH  13   6
ATOM      3  O   UNL     1       0.124   0.494  23.770  0.00  0.00    -0.253 OA
ATOM      6  N   UNL     1      -0.098   1.315  25.931  0.00  0.00    -0.292 N 
ATOM      7  N   UNL     1      -0.151  -0.955  25.561  0.00  0.00    -0.300 N 
ATOM     17  C   UNL     1      -0.028   0.303  24.976  0.00  0.00    +0.300 C 
ATOM     31  H   UNL     1      -0.158   1.049  26.908  0.00  0.00    +0.151 HD
ATOM     32  H   UNL     1      -0.275  -1.017  26.567  0.00  0.00    +0.150 HD
BRANCH   7  18
ATOM     18  C   UNL     1      -0.113  -2.181  24.799  0.00  0.00    +0.102 C 
ATOM     23  C   UNL     1       0.593  -3.285  25.558  0.00  0.00    +0.024 C 
ENDBRANCH   7  18
ENDBRANCH  13   6
ENDBRANCH   5  12
BRANCH  19  22
ATOM     22  C   UNL     1      -4.233  -0.051  25.076  0.00  0.00    +0.042 A 
ATOM     24  C   UNL     1      -3.779  -0.372  23.793  0.00  0.00    +0.129 A 
ATOM     25  C   UNL     1      -4.085  -0.976  26.112  0.00  0.00    +0.013 A 
ATOM     26  C   UNL     1      -3.183  -1.608  23.550  0.00  0.00    +0.046 A 
ATOM     27  C   UNL     1      -3.488  -2.213  25.868  0.00  0.00    +0.001 A 
ATOM     28  C   UNL     1      -3.037  -2.529  24.588  0.00  0.00    +0.004 A 
BRANCH  24   4
ATOM      4  O   UNL     1      -3.908   0.510  22.760  0.00  0.00    -0.494 OA
ATOM     29  C   UNL     1      -2.705   1.017  22.188  0.00  0.00    +0.277 C 
ENDBRANCH  24   4
ENDBRANCH  19  22
TORSDOF 5
ENDMDL
MODEL 5
REMARK VINA RESULT:       1.6      1.731      4.384
REMARK  Name = 11941662
REMARK  7 active torsions:
REMARK  status: ('A' for Active; 'I' for Inactive)
REMARK    1  A    between atoms: O_4  and  C_24
REMARK    2  A    between atoms: O_4  and  C_29
REMARK    3  A    between atoms: N_5  and  C_12
REMARK    4  A    between atoms: N_6  and  C_13
REMARK    5  A    between atoms: N_7  and  C_18
REMARK    6  A    between atoms: C_18  and  C_23
REMARK    7  A    between atoms: C_19  and  C_22
REMARK                            x       y       z     vdW  Elec       q    Type
REMARK                         _______ _______ _______ _____ _____    ______ ____
ROOT
ATOM      5  N   UNL     1      -4.436   4.076  24.895  0.00  0.00    -0.306 N 
ATOM      8  N   UNL     1      -3.698   1.853  25.038  0.00  0.00    -0.214 NA
ATOM      9  N   UNL     1      -6.050   2.376  24.989  0.00  0.00    -0.223 NA
ATOM     16  C   UNL     1      -4.737   2.728  24.977  0.00  0.00    +0.216 A 
ATOM     19  C   UNL     1      -4.028   0.547  25.117  0.00  0.00    +0.080 A 
ATOM     20  C   UNL     1      -6.307   1.053  25.069  0.00  0.00    +0.116 A 
ATOM     21  C   UNL     1      -5.328   0.084  25.136  0.00  0.00    +0.048 A 
ATOM     30  H   UNL     1      -5.217   4.722  24.903  0.00  0.00    +0.149 HD
ENDROOT
BRANCH   5  12
ATOM      1  O   UNL     1      -1.962   3.516  26.668  0.00  0.00    -0.370 OA
ATOM      2  O   UNL     1      -0.957   4.195  23.793  0.00  0.00    -0.370 OA
ATOM     10  C   UNL     1      -2.146   3.561  24.297  0.00  0.00    +0.171 C 
ATOM     11  C   UNL     1      -1.736   2.723  25.492  0.00  0.00    +0.171 C 
ATOM     12  C   UNL     1      -3.085   4.594  24.874  0.00  0.00    +0.130 C 
ATOM     13  C   UNL     1      -0.256   2.492  25.289  0.00  0.00    +0.131 C 
ATOM     14  C   UNL     1      -2.565   4.762  26.289  0.00  0.00    +0.185 C 
ATOM     15  C   UNL     1       0.173   3.752  24.559  0.00  0.00    +0.185 C 
BRANCH  13   6
ATOM      3  O   UNL     1       2.028   1.972  23.602  0.00  0.00    -0.253 OA
ATOM      6  N   UNL     1      -0.016   1.316  24.488  0.00  0.00    -0.292 N 
ATOM      7  N   UNL     1       1.097  -0.075  23.032  0.00  0.00    -0.300 N 
ATOM     17  C   UNL     1       1.120   1.148  23.698  0.00  0.00    +0.300 C 
ATOM     31  H   UNL     1      -0.674   0.546  24.551  0.00  0.00    +0.151 HD
ATOM     32  H   UNL     1       0.304  -0.694  23.172  0.00  0.00    +0.150 HD
BRANCH   7  18
ATOM     18  C   UNL     1       2.153  -0.504  22.146  0.00  0.00    +0.102 C 
ATOM     23  C   UNL     1       3.519  -0.278  22.760  0.00  0.00    +0.024 C 
ENDBRANCH   7  18
ENDBRANCH  13   6
ENDBRANCH   5  12
BRANCH  19  22
ATOM     22  C   UNL     1      -2.910  -0.364  25.181  0.00  0.00    +0.042 A 
ATOM     24  C   UNL     1      -2.801  -1.437  24.292  0.00  0.00    +0.129 A 
ATOM     25  C   UNL     1      -1.922  -0.168  26.150  0.00  0.00    +0.013 A 
ATOM     26  C   UNL     1      -1.714  -2.306  24.370  0.00  0.00    +0.046 A 
ATOM     27  C   UNL     1      -0.833  -1.038  26.228  0.00  0.00    +0.001 A 
ATOM     28  C   UNL     1      -0.730  -2.106  25.338  0.00  0.00    +0.004 A 
BRANCH  24   4
ATOM      4  O   UNL     1      -3.749  -1.656  23.335  0.00  0.00    -0.494 OA
ATOM     29  C   UNL     1      -4.506  -2.859  23.438  0.00  0.00    +0.277 C 
ENDBRANCH  24   4
ENDBRANCH  19  22
TORSDOF 5
ENDMDL
MODEL 6
REMARK VINA RESULT:       1.8      2.152      6.760
REMARK  Name = 11941662
REMARK  7 active torsions:
REMARK  status: ('A' for Active; 'I' for Inactive)
REMARK    1  A    between atoms: O_4  and  C_24
REMARK    2  A    between atoms: O_4  and  C_29
REMARK    3  A    between atoms: N_5  and  C_12
REMARK    4  A    between atoms: N_6  and  C_13
REMARK    5  A    between atoms: N_7  and  C_18
REMARK    6  A    between atoms: C_18  and  C_23
REMARK    7  A    between atoms: C_19  and  C_22
REMARK                            x       y       z     vdW  Elec       q    Type
REMARK                         _______ _______ _______ _____ _____    ______ ____
ROOT
ATOM      5  N   UNL     1       1.232   2.691  24.673  0.00  0.00    -0.306 N 
ATOM      8  N   UNL     1      -0.238   0.875  24.448  0.00  0.00    -0.214 NA
ATOM      9  N   UNL     1       1.772   1.013  23.125  0.00  0.00    -0.223 NA
ATOM     16  C   UNL     1       0.913   1.490  24.063  0.00  0.00    +0.216 A 
ATOM     19  C   UNL     1      -0.518  -0.293  23.832  0.00  0.00    +0.080 A 
ATOM     20  C   UNL     1       1.429  -0.159  22.550  0.00  0.00    +0.116 A 
ATOM     21  C   UNL     1       0.286  -0.864  22.867  0.00  0.00    +0.048 A 
ATOM     30  H   UNL     1       2.063   3.167  24.342  0.00  0.00    +0.149 HD
ENDROOT
BRANCH   5  12
ATOM      1  O   UNL     1      -0.595   5.188  24.624  0.00  0.00    -0.370 OA
ATOM      2  O   UNL     1      -1.801   3.147  26.653  0.00  0.00    -0.370 OA
ATOM     10  C   UNL     1      -1.045   2.999  25.439  0.00  0.00    +0.171 C 
ATOM     11  C   UNL     1      -1.506   4.085  24.487  0.00  0.00    +0.171 C 
ATOM     12  C   UNL     1       0.411   3.317  25.686  0.00  0.00    +0.130 C 
ATOM     13  C   UNL     1      -2.876   4.467  25.000  0.00  0.00    +0.131 C 
ATOM     14  C   UNL     1       0.451   4.826  25.537  0.00  0.00    +0.185 C 
ATOM     15  C   UNL     1      -2.746   4.216  26.491  0.00  0.00    +0.185 C 
BRANCH  13   6
ATOM      3  O   UNL     1      -5.065   3.182  26.374  0.00  0.00    -0.253 OA
ATOM      6  N   UNL     1      -3.902   3.638  24.416  0.00  0.00    -0.292 N 
ATOM      7  N   UNL     1      -5.776   2.306  24.347  0.00  0.00    -0.300 N 
ATOM     17  C   UNL     1      -4.927   3.053  25.158  0.00  0.00    +0.300 C 
ATOM     31  H   UNL     1      -3.916   3.525  23.407  0.00  0.00    +0.151 HD
ATOM     32  H   UNL     1      -5.584   2.255  23.351  0.00  0.00    +0.150 HD
BRANCH   7  18
ATOM     18  C   UNL     1      -6.923   1.593  24.860  0.00  0.00    +0.102 C 
ATOM     23  C   UNL     1      -6.736   1.218  26.316  0.00  0.00    +0.024 C 
ENDBRANCH   7  18
ENDBRANCH  13   6
ENDBRANCH   5  12
BRANCH  19  22
ATOM     22  C   UNL     1      -1.744  -0.929  24.254  0.00  0.00    +0.042 A 
ATOM     24  C   UNL     1      -2.961  -0.243  24.221  0.00  0.00    +0.129 A 
ATOM     25  C   UNL     1      -1.709  -2.252  24.702  0.00  0.00    +0.013 A 
ATOM     26  C   UNL     1      -4.133  -0.874  24.633  0.00  0.00    +0.046 A 
ATOM     27  C   UNL     1      -2.883  -2.885  25.113  0.00  0.00    +0.001 A 
ATOM     28  C   UNL     1      -4.094  -2.195  25.078  0.00  0.00    +0.004 A 
BRANCH  24   4
ATOM      4  O   UNL     1      -3.028   1.050  23.790  0.00  0.00    -0.494 OA
ATOM     29  C   UNL     1      -2.845   1.276  22.394  0.00  0.00    +0.277 C 
ENDBRANCH  24   4
ENDBRANCH  19  22
TORSDOF 5
ENDMDL
MODEL 7
REMARK VINA RESULT:       2.0      1.406      1.430
REMARK  Name = 11941662
REMARK  7 active torsions:
REMARK  status: ('A' for Active; 'I' for Inactive)
REMARK    1  A    between atoms: O_4  and  C_24
REMARK    2  A    between atoms: O_4  and  C_29
REMARK    3  A    between atoms: N_5  and  C_12
REMARK    4  A    between atoms: N_6  and  C_13
REMARK    5  A    between atoms: N_7  and  C_18
REMARK    6  A    between atoms: C_18  and  C_23
REMARK    7  A    between atoms: C_19  and  C_22
REMARK                            x       y       z     vdW  Elec       q    Type
REMARK                         _______ _______ _______ _____ _____    ______ ____
ROOT
ATOM      5  N   UNL     1      -5.288  -0.122  25.055  0.00  0.00    -0.306 N 
ATOM      8  N   UNL     1      -3.510   1.390  25.292  0.00  0.00    -0.214 NA
ATOM      9  N   UNL     1      -5.763   2.172  24.945  0.00  0.00    -0.223 NA
ATOM     16  C   UNL     1      -4.840   1.186  25.098  0.00  0.00    +0.216 A 
ATOM     19  C   UNL     1      -3.108   2.678  25.328  0.00  0.00    +0.080 A 
ATOM     20  C   UNL     1      -5.291   3.436  24.991  0.00  0.00    +0.116 A 
ATOM     21  C   UNL     1      -3.962   3.753  25.183  0.00  0.00    +0.048 A 
ATOM     30  H   UNL     1      -6.272  -0.265  24.858  0.00  0.00    +0.149 HD
ENDROOT
BRANCH   5  12
ATOM      1  O   UNL     1      -3.498  -1.652  23.047  0.00  0.00    -0.370 OA
ATOM      2  O   UNL     1      -2.155  -1.817  25.859  0.00  0.00    -0.370 OA
ATOM     10  C   UNL     1      -2.976  -0.827  25.216  0.00  0.00    +0.171 C 
ATOM     11  C   UNL     1      -2.582  -0.799  23.752  0.00  0.00    +0.171 C 
ATOM     12  C   UNL     1      -4.420  -1.271  25.203  0.00  0.00    +0.130 C 
ATOM     13  C   UNL     1      -1.191  -1.390  23.734  0.00  0.00    +0.131 C 
ATOM     14  C   UNL     1      -4.488  -2.143  23.964  0.00  0.00    +0.185 C 
ATOM     15  C   UNL     1      -1.235  -2.359  24.901  0.00  0.00    +0.185 C 
BRANCH  13   6
ATOM      3  O   UNL     1       1.016  -0.752  21.986  0.00  0.00    -0.253 OA
ATOM      6  N   UNL     1      -0.188  -0.372  23.935  0.00  0.00    -0.292 N 
ATOM      7  N   UNL     1       1.670   0.903  23.475  0.00  0.00    -0.300 N 
ATOM     17  C   UNL     1       0.848  -0.132  23.035  0.00  0.00    +0.300 C 
ATOM     31  H   UNL     1      -0.277   0.241  24.739  0.00  0.00    +0.151 HD
ATOM     32  H   UNL     1       1.455   1.359  24.356  0.00  0.00    +0.150 HD
BRANCH   7  18
ATOM     18  C   UNL     1       2.822   1.358  22.731  0.00  0.00    +0.102 C 
ATOM     23  C   UNL     1       4.088   0.667  23.193  0.00  0.00    +0.024 C 
ENDBRANCH   7  18
ENDBRANCH  13   6
ENDBRANCH   5  12
BRANCH  19  22
ATOM     22  C   UNL     1      -1.692   2.873  25.533  0.00  0.00    +0.042 A 
ATOM     24  C   UNL     1      -0.866   3.314  24.495  0.00  0.00    +0.129 A 
ATOM     25  C   UNL     1      -1.141   2.616  26.792  0.00  0.00    +0.013 A 
ATOM     26  C   UNL     1       0.498   3.496  24.714  0.00  0.00    +0.046 A 
ATOM     27  C   UNL     1       0.225   2.799  27.010  0.00  0.00    +0.001 A 
ATOM     28  C   UNL     1       1.043   3.239  25.971  0.00  0.00    +0.004 A 
BRANCH  24   4
ATOM      4  O   UNL     1      -1.373   3.573  23.255  0.00  0.00    -0.494 OA
ATOM     29  C   UNL     1      -1.852   2.458  22.507  0.00  0.00    +0.277 C 
ENDBRANCH  24   4
ENDBRANCH  19  22
TORSDOF 5
ENDMDL
