MODEL 1
REMARK VINA RESULT:       1.2      0.000      0.000
REMARK  Name = 28960195
REMARK  11 active torsions:
REMARK  status: ('A' for Active; 'I' for Inactive)
REMARK    1  A    between atoms: O_2  and  C_17
REMARK    2  A    between atoms: N_6  and  C_15
REMARK    3  A    between atoms: N_6  and  C_18
REMARK    4  A    between atoms: N_6  and  C_20
REMARK    5  A    between atoms: N_7  and  C_19
REMARK    6  A    between atoms: C_8  and  C_12
REMARK    7  A    between atoms: C_9  and  C_14
REMARK    8  A    between atoms: C_12  and  C_15
REMARK    9  A    between atoms: C_14  and  C_17
REMARK   10  A    between atoms: C_16  and  C_21
REMARK   11  A    between atoms: C_18  and  C_19
REMARK                            x       y       z     vdW  Elec       q    Type
REMARK                         _______ _______ _______ _____ _____    ______ ____
ROOT
ATOM      1  O   UNL     1      -6.382   0.356  23.895  0.00  0.00    -0.270 OA
ATOM      5  N   UNL     1      -4.464  -0.284  25.074  0.00  0.00    -0.297 N 
ATOM      8  C   UNL     1      -1.998  -0.568  25.174  0.00  0.00    +0.012 C 
ATOM      9  C   UNL     1      -2.205  -2.093  24.987  0.00  0.00    +0.006 C 
ATOM     10  C   UNL     1      -3.247   0.055  25.824  0.00  0.00    +0.112 C 
ATOM     11  C   UNL     1      -3.515  -2.398  24.239  0.00  0.00    +0.023 C 
ATOM     13  C   UNL     1      -4.705  -1.716  24.908  0.00  0.00    +0.108 C 
ATOM     16  C   UNL     1      -5.365   0.635  24.528  0.00  0.00    +0.247 C 
ENDROOT
BRANCH  16  21
ATOM     21  C   UNL     1      -5.091   2.063  24.715  0.00  0.00    +0.037 A 
ATOM     28  C   UNL     1      -4.227   2.728  23.844  0.00  0.00    +0.013 A 
ATOM     29  C   UNL     1      -5.695   2.758  25.762  0.00  0.00    +0.013 A 
ATOM     32  C   UNL     1      -3.968   4.087  24.022  0.00  0.00    +0.001 A 
ATOM     33  C   UNL     1      -5.437   4.118  25.939  0.00  0.00    +0.001 A 
ATOM     35  C   UNL     1      -4.573   4.782  25.069  0.00  0.00    +0.000 A 
ENDBRANCH  16  21
BRANCH   8  12
ATOM     12  C   UNL     1      -1.643   0.176  23.880  0.00  0.00    +0.024 C 
BRANCH  12  15
ATOM     15  C   UNL     1      -0.177   0.026  23.509  0.00  0.00    +0.105 C 
BRANCH  15   6
ATOM      6  N   UNL     1       0.532   1.269  23.699  0.00  0.00    -0.329 N 
BRANCH   6  20
ATOM     20  C   UNL     1      -0.046   2.343  24.392  0.00  0.00    +0.030 A 
ATOM     24  C   UNL     1      -0.470   2.174  25.710  0.00  0.00    +0.023 A 
ATOM     25  C   UNL     1      -0.195   3.579  23.764  0.00  0.00    +0.023 A 
ATOM     30  C   UNL     1      -1.045   3.242  26.400  0.00  0.00    +0.002 A 
ATOM     31  C   UNL     1      -0.770   4.647  24.454  0.00  0.00    +0.002 A 
ATOM     34  C   UNL     1      -1.194   4.478  25.772  0.00  0.00    +0.000 A 
ENDBRANCH   6  20
BRANCH   6  18
ATOM     18  C   UNL     1       1.880   1.399  23.142  0.00  0.00    +0.120 C 
BRANCH  18  19
ATOM     19  C   UNL     1       2.238   0.135  22.370  0.00  0.00    +0.103 C 
BRANCH  19   7
ATOM      4  O   UNL     1       5.768  -0.659  24.497  0.00  0.00    -0.377 OA
ATOM      7  N   UNL     1       3.599  -0.289  22.691  0.00  0.00    -0.297 NA
ATOM     22  C   UNL     1       3.588  -1.361  23.695  0.00  0.00    +0.112 C 
ATOM     23  C   UNL     1       4.398   0.845  23.175  0.00  0.00    +0.112 C 
ATOM     26  C   UNL     1       5.019  -1.779  24.023  0.00  0.00    +0.175 C 
ATOM     27  C   UNL     1       5.810   0.376  23.513  0.00  0.00    +0.175 C 
ENDBRANCH  19   7
ENDBRANCH  18  19
ENDBRANCH   6  18
ENDBRANCH  15   6
ENDBRANCH  12  15
ENDBRANCH   8  12
BRANCH   9  14
ATOM     14  C   UNL     1      -1.023  -2.780  24.305  0.00  0.00    +0.124 C 
BRANCH  14  17
ATOM      3  O   UNL     1       0.586  -4.071  25.604  0.00  0.00    -0.251 OA
ATOM     17  C   UNL     1       0.119  -2.996  25.260  0.00  0.00    +0.305 C 
BRANCH  17   2
ATOM      2  O   UNL     1       0.579  -1.797  25.700  0.00  0.00    -0.481 OA
ATOM     36  H   UNL     1       1.160  -1.895  26.486  0.00  0.00    +0.295 HD
ENDBRANCH  17   2
ENDBRANCH  14  17
ENDBRANCH   9  14
TORSDOF 11
ENDMDL
MODEL 2
REMARK VINA RESULT:       1.2      2.147      4.919
REMARK  Name = 28960195
REMARK  11 active torsions:
REMARK  status: ('A' for Active; 'I' for Inactive)
REMARK    1  A    between atoms: O_2  and  C_17
REMARK    2  A    between atoms: N_6  and  C_15
REMARK    3  A    between atoms: N_6  and  C_18
REMARK    4  A    between atoms: N_6  and  C_20
REMARK    5  A    between atoms: N_7  and  C_19
REMARK    6  A    between atoms: C_8  and  C_12
REMARK    7  A    between atoms: C_9  and  C_14
REMARK    8  A    between atoms: C_12  and  C_15
REMARK    9  A    between atoms: C_14  and  C_17
REMARK   10  A    between atoms: C_16  and  C_21
REMARK   11  A    between atoms: C_18  and  C_19
REMARK                            x       y       z     vdW  Elec       q    Type
REMARK                         _______ _______ _______ _____ _____    ______ ____
ROOT
ATOM      1  O   UNL     1      -6.202   1.033  26.005  0.00  0.00    -0.270 OA
ATOM      5  N   UNL     1      -4.531   2.048  24.719  0.00  0.00    -0.297 N 
ATOM      8  C   UNL     1      -2.180   2.812  24.466  0.00  0.00    +0.012 C 
ATOM      9  C   UNL     1      -2.669   4.265  24.699  0.00  0.00    +0.006 C 
ATOM     10  C   UNL     1      -3.325   1.961  23.884  0.00  0.00    +0.112 C 
ATOM     11  C   UNL     1      -3.959   4.299  25.537  0.00  0.00    +0.023 C 
ATOM     13  C   UNL     1      -5.035   3.403  24.932  0.00  0.00    +0.108 C 
ATOM     16  C   UNL     1      -5.196   0.965  25.301  0.00  0.00    +0.247 C 
ENDROOT
BRANCH  16  21
ATOM     21  C   UNL     1      -4.661  -0.380  25.066  0.00  0.00    +0.037 A 
ATOM     28  C   UNL     1      -4.899  -1.023  23.851  0.00  0.00    +0.013 A 
ATOM     29  C   UNL     1      -3.913  -1.017  26.056  0.00  0.00    +0.013 A 
ATOM     32  C   UNL     1      -4.389  -2.303  23.628  0.00  0.00    +0.001 A 
ATOM     33  C   UNL     1      -3.403  -2.295  25.833  0.00  0.00    +0.001 A 
ATOM     35  C   UNL     1      -3.641  -2.938  24.618  0.00  0.00    +0.000 A 
ENDBRANCH  16  21
BRANCH   8  12
ATOM     12  C   UNL     1      -1.600   2.140  25.717  0.00  0.00    +0.024 C 
BRANCH  12  15
ATOM     15  C   UNL     1      -0.088   1.999  25.650  0.00  0.00    +0.105 C 
BRANCH  15   6
ATOM      6  N   UNL     1       0.301   1.133  24.563  0.00  0.00    -0.329 N 
BRANCH   6  20
ATOM     20  C   UNL     1      -0.082  -0.216  24.529  0.00  0.00    +0.030 A 
ATOM     24  C   UNL     1      -0.571  -0.772  23.347  0.00  0.00    +0.023 A 
ATOM     25  C   UNL     1       0.028  -1.001  25.676  0.00  0.00    +0.023 A 
ATOM     30  C   UNL     1      -0.951  -2.114  23.313  0.00  0.00    +0.002 A 
ATOM     31  C   UNL     1      -0.352  -2.343  25.642  0.00  0.00    +0.002 A 
ATOM     34  C   UNL     1      -0.841  -2.899  24.460  0.00  0.00    +0.000 A 
ENDBRANCH   6  20
BRANCH   6  18
ATOM     18  C   UNL     1       1.121   1.688  23.484  0.00  0.00    +0.120 C 
BRANCH  18  19
ATOM     19  C   UNL     1       1.851   0.560  22.766  0.00  0.00    +0.103 C 
BRANCH  19   7
ATOM      4  O   UNL     1       5.820  -0.637  23.423  0.00  0.00    -0.377 OA
ATOM      7  N   UNL     1       3.124   0.276  23.425  0.00  0.00    -0.297 NA
ATOM     22  C   UNL     1       4.206   1.078  22.840  0.00  0.00    +0.112 C 
ATOM     23  C   UNL     1       3.451  -1.153  23.334  0.00  0.00    +0.112 C 
ATOM     26  C   UNL     1       5.525   0.756  23.536  0.00  0.00    +0.175 C 
ATOM     27  C   UNL     1       4.787  -1.424  24.019  0.00  0.00    +0.175 C 
ENDBRANCH  19   7
ENDBRANCH  18  19
ENDBRANCH   6  18
ENDBRANCH  15   6
ENDBRANCH  12  15
ENDBRANCH   8  12
BRANCH   9  14
ATOM     14  C   UNL     1      -1.600   5.165  25.318  0.00  0.00    +0.124 C 
BRANCH  14  17
ATOM      3  O   UNL     1      -0.160   4.649  23.421  0.00  0.00    -0.251 OA
ATOM     17  C   UNL     1      -0.411   5.321  24.410  0.00  0.00    +0.305 C 
BRANCH  17   2
ATOM      2  O   UNL     1       0.369   6.341  24.849  0.00  0.00    -0.481 OA
ATOM     36  H   UNL     1       0.582   6.974  24.129  0.00  0.00    +0.295 HD
ENDBRANCH  17   2
ENDBRANCH  14  17
ENDBRANCH   9  14
TORSDOF 11
ENDMDL
MODEL 3
REMARK VINA RESULT:       1.4      2.091      4.707
REMARK  Name = 28960195
REMARK  11 active torsions:
REMARK  status: ('A' for Active; 'I' for Inactive)
REMARK    1  A    between atoms: O_2  and  C_17
REMARK    2  A    between atoms: N_6  and  C_15
REMARK    3  A    between atoms: N_6  and  C_18
REMARK    4  A    between atoms: N_6  and  C_20
REMARK    5  A    between atoms: N_7  and  C_19
REMARK    6  A    between atoms: C_8  and  C_12
REMARK    7  A    between atoms: C_9  and  C_14
REMARK    8  A    between atoms: C_12  and  C_15
REMARK    9  A    between atoms: C_14  and  C_17
REMARK   10  A    between atoms: C_16  and  C_21
REMARK   11  A    between atoms: C_18  and  C_19
REMARK                            x       y       z     vdW  Elec       q    Type
REMARK                         _______ _______ _______ _____ _____    ______ ____
ROOT
ATOM      1  O   UNL     1      -5.455   0.654  26.782  0.00  0.00    -0.270 OA
ATOM      5  N   UNL     1      -4.898   1.843  24.845  0.00  0.00    -0.297 N 
ATOM      8  C   UNL     1      -3.185   2.913  23.398  0.00  0.00    +0.012 C 
ATOM      9  C   UNL     1      -3.657   4.292  23.925  0.00  0.00    +0.006 C 
ATOM     10  C   UNL     1      -4.336   1.895  23.488  0.00  0.00    +0.112 C 
ATOM     11  C   UNL     1      -4.281   4.178  25.327  0.00  0.00    +0.023 C 
ATOM     13  C   UNL     1      -5.382   3.124  25.359  0.00  0.00    +0.108 C 
ATOM     16  C   UNL     1      -4.991   0.700  25.644  0.00  0.00    +0.247 C 
ENDROOT
BRANCH  16  21
ATOM     21  C   UNL     1      -4.495  -0.566  25.096  0.00  0.00    +0.037 A 
ATOM     28  C   UNL     1      -3.945  -1.527  25.945  0.00  0.00    +0.013 A 
ATOM     29  C   UNL     1      -4.572  -0.811  23.725  0.00  0.00    +0.013 A 
ATOM     32  C   UNL     1      -3.474  -2.732  25.422  0.00  0.00    +0.001 A 
ATOM     33  C   UNL     1      -4.102  -2.016  23.202  0.00  0.00    +0.001 A 
ATOM     35  C   UNL     1      -3.553  -2.976  24.052  0.00  0.00    +0.000 A 
ENDBRANCH  16  21
BRANCH   8  12
ATOM     12  C   UNL     1      -1.937   2.370  24.106  0.00  0.00    +0.024 C 
BRANCH  12  15
ATOM     15  C   UNL     1      -0.760   2.202  23.157  0.00  0.00    +0.105 C 
BRANCH  15   6
ATOM      6  N   UNL     1       0.209   1.279  23.698  0.00  0.00    -0.329 N 
BRANCH   6  20
ATOM     20  C   UNL     1      -0.159   0.286  24.618  0.00  0.00    +0.030 A 
ATOM     24  C   UNL     1      -0.662   0.647  25.868  0.00  0.00    +0.023 A 
ATOM     25  C   UNL     1      -0.023  -1.060  24.283  0.00  0.00    +0.023 A 
ATOM     30  C   UNL     1      -1.029  -0.340  26.783  0.00  0.00    +0.002 A 
ATOM     31  C   UNL     1      -0.390  -2.047  25.198  0.00  0.00    +0.002 A 
ATOM     34  C   UNL     1      -0.893  -1.687  26.448  0.00  0.00    +0.000 A 
ENDBRANCH   6  20
BRANCH   6  18
ATOM     18  C   UNL     1       1.605   1.401  23.274  0.00  0.00    +0.120 C 
BRANCH  18  19
ATOM     19  C   UNL     1       1.980   0.211  22.401  0.00  0.00    +0.103 C 
BRANCH  19   7
ATOM      4  O   UNL     1       5.611  -0.550  24.365  0.00  0.00    -0.377 OA
ATOM      7  N   UNL     1       3.361  -0.194  22.658  0.00  0.00    -0.297 NA
ATOM     22  C   UNL     1       3.412  -1.280  23.646  0.00  0.00    +0.112 C 
ATOM     23  C   UNL     1       4.160   0.947  23.123  0.00  0.00    +0.112 C 
ATOM     26  C   UNL     1       4.862  -1.676  23.907  0.00  0.00    +0.175 C 
ATOM     27  C   UNL     1       5.593   0.499  23.395  0.00  0.00    +0.175 C 
ENDBRANCH  19   7
ENDBRANCH  18  19
ENDBRANCH   6  18
ENDBRANCH  15   6
ENDBRANCH  12  15
ENDBRANCH   8  12
BRANCH   9  14
ATOM     14  C   UNL     1      -2.555   5.351  23.909  0.00  0.00    +0.124 C 
BRANCH  14  17
ATOM      3  O   UNL     1      -1.862   4.780  26.175  0.00  0.00    -0.251 OA
ATOM     17  C   UNL     1      -1.590   5.164  25.048  0.00  0.00    +0.305 C 
BRANCH  17   2
ATOM      2  O   UNL     1      -0.336   5.488  24.641  0.00  0.00    -0.481 OA
ATOM     36  H   UNL     1      -0.036   4.923  23.896  0.00  0.00    +0.295 HD
ENDBRANCH  17   2
ENDBRANCH  14  17
ENDBRANCH   9  14
TORSDOF 11
ENDMDL
MODEL 4
REMARK VINA RESULT:       2.0      2.761      5.788
REMARK  Name = 28960195
REMARK  11 active torsions:
REMARK  status: ('A' for Active; 'I' for Inactive)
REMARK    1  A    between atoms: O_2  and  C_17
REMARK    2  A    between atoms: N_6  and  C_15
REMARK    3  A    between atoms: N_6  and  C_18
REMARK    4  A    between atoms: N_6  and  C_20
REMARK    5  A    between atoms: N_7  and  C_19
REMARK    6  A    between atoms: C_8  and  C_12
REMARK    7  A    between atoms: C_9  and  C_14
REMARK    8  A    between atoms: C_12  and  C_15
REMARK    9  A    between atoms: C_14  and  C_17
REMARK   10  A    between atoms: C_16  and  C_21
REMARK   11  A    between atoms: C_18  and  C_19
REMARK                            x       y       z     vdW  Elec       q    Type
REMARK                         _______ _______ _______ _____ _____    ______ ____
ROOT
ATOM      1  O   UNL     1      -5.157  -0.293  26.561  0.00  0.00    -0.270 OA
ATOM      5  N   UNL     1      -4.740   1.137  24.755  0.00  0.00    -0.297 N 
ATOM      8  C   UNL     1      -3.266   2.773  23.606  0.00  0.00    +0.012 C 
ATOM      9  C   UNL     1      -4.213   3.904  24.084  0.00  0.00    +0.006 C 
ATOM     10  C   UNL     1      -4.043   1.448  23.500  0.00  0.00    +0.112 C 
ATOM     11  C   UNL     1      -4.954   3.511  25.374  0.00  0.00    +0.023 C 
ATOM     13  C   UNL     1      -5.665   2.170  25.217  0.00  0.00    +0.108 C 
ATOM     16  C   UNL     1      -4.580  -0.031  25.507  0.00  0.00    +0.247 C 
ENDROOT
BRANCH  16  21
ATOM     21  C   UNL     1      -3.643  -1.045  25.013  0.00  0.00    +0.037 A 
ATOM     28  C   UNL     1      -2.290  -0.965  25.342  0.00  0.00    +0.013 A 
ATOM     29  C   UNL     1      -4.105  -2.091  24.214  0.00  0.00    +0.013 A 
ATOM     32  C   UNL     1      -1.400  -1.932  24.872  0.00  0.00    +0.001 A 
ATOM     33  C   UNL     1      -3.216  -3.057  23.745  0.00  0.00    +0.001 A 
ATOM     35  C   UNL     1      -1.863  -2.977  24.074  0.00  0.00    +0.000 A 
ENDBRANCH  16  21
BRANCH   8  12
ATOM     12  C   UNL     1      -2.020   2.592  24.481  0.00  0.00    +0.024 C 
BRANCH  12  15
ATOM     15  C   UNL     1      -0.735   2.596  23.669  0.00  0.00    +0.105 C 
BRANCH  15   6
ATOM      6  N   UNL     1       0.234   1.686  24.232  0.00  0.00    -0.329 N 
BRANCH   6  20
ATOM     20  C   UNL     1       1.214   1.075  23.437  0.00  0.00    +0.030 A 
ATOM     24  C   UNL     1       2.534   1.522  23.493  0.00  0.00    +0.023 A 
ATOM     25  C   UNL     1       0.870   0.021  22.592  0.00  0.00    +0.023 A 
ATOM     30  C   UNL     1       3.510   0.915  22.702  0.00  0.00    +0.002 A 
ATOM     31  C   UNL     1       1.846  -0.586  21.801  0.00  0.00    +0.002 A 
ATOM     34  C   UNL     1       3.166  -0.139  21.857  0.00  0.00    +0.000 A 
ENDBRANCH   6  20
BRANCH   6  18
ATOM     18  C   UNL     1       0.171   1.398  25.667  0.00  0.00    +0.120 C 
BRANCH  18  19
ATOM     19  C   UNL     1       0.434   2.674  26.456  0.00  0.00    +0.103 C 
BRANCH  19   7
ATOM      4  O   UNL     1       2.263   3.056  30.215  0.00  0.00    -0.377 OA
ATOM      7  N   UNL     1       1.210   2.377  27.659  0.00  0.00    -0.297 NA
ATOM     22  C   UNL     1       0.358   2.419  28.854  0.00  0.00    +0.112 C 
ATOM     23  C   UNL     1       2.327   3.320  27.804  0.00  0.00    +0.112 C 
ATOM     26  C   UNL     1       1.191   2.119  30.096  0.00  0.00    +0.175 C 
ATOM     27  C   UNL     1       3.116   2.998  29.070  0.00  0.00    +0.175 C 
ENDBRANCH  19   7
ENDBRANCH  18  19
ENDBRANCH   6  18
ENDBRANCH  15   6
ENDBRANCH  12  15
ENDBRANCH   8  12
BRANCH   9  14
ATOM     14  C   UNL     1      -3.505   5.247  24.257  0.00  0.00    +0.124 C 
BRANCH  14  17
ATOM      3  O   UNL     1      -2.737   4.792  26.526  0.00  0.00    -0.251 OA
ATOM     17  C   UNL     1      -2.527   5.216  25.400  0.00  0.00    +0.305 C 
BRANCH  17   2
ATOM      2  O   UNL     1      -1.339   5.736  24.998  0.00  0.00    -0.481 OA
ATOM     36  H   UNL     1      -1.291   6.704  25.158  0.00  0.00    +0.295 HD
ENDBRANCH  17   2
ENDBRANCH  14  17
ENDBRANCH   9  14
TORSDOF 11
ENDMDL
MODEL 5
REMARK VINA RESULT:       2.2      1.598      2.342
REMARK  Name = 28960195
REMARK  11 active torsions:
REMARK  status: ('A' for Active; 'I' for Inactive)
REMARK    1  A    between atoms: O_2  and  C_17
REMARK    2  A    between atoms: N_6  and  C_15
REMARK    3  A    between atoms: N_6  and  C_18
REMARK    4  A    between atoms: N_6  and  C_20
REMARK    5  A    between atoms: N_7  and  C_19
REMARK    6  A    between atoms: C_8  and  C_12
REMARK    7  A    between atoms: C_9  and  C_14
REMARK    8  A    between atoms: C_12  and  C_15
REMARK    9  A    between atoms: C_14  and  C_17
REMARK   10  A    between atoms: C_16  and  C_21
REMARK   11  A    between atoms: C_18  and  C_19
REMARK                            x       y       z     vdW  Elec       q    Type
REMARK                         _______ _______ _______ _____ _____    ______ ____
ROOT
ATOM      1  O   UNL     1      -6.322   3.669  25.051  0.00  0.00    -0.270 OA
ATOM      5  N   UNL     1      -4.835   1.914  25.480  0.00  0.00    -0.297 N 
ATOM      8  C   UNL     1      -3.126   0.300  24.676  0.00  0.00    +0.012 C 
ATOM      9  C   UNL     1      -4.208  -0.810  24.722  0.00  0.00    +0.006 C 
ATOM     10  C   UNL     1      -3.470   1.410  25.685  0.00  0.00    +0.112 C 
ATOM     11  C   UNL     1      -5.622  -0.227  24.551  0.00  0.00    +0.023 C 
ATOM     13  C   UNL     1      -5.883   0.896  25.550  0.00  0.00    +0.108 C 
ATOM     16  C   UNL     1      -5.182   3.244  25.229  0.00  0.00    +0.247 C 
ENDROOT
BRANCH  16  21
ATOM     21  C   UNL     1      -4.104   4.237  25.166  0.00  0.00    +0.037 A 
ATOM     28  C   UNL     1      -3.706   4.757  23.935  0.00  0.00    +0.013 A 
ATOM     29  C   UNL     1      -3.478   4.662  26.337  0.00  0.00    +0.013 A 
ATOM     32  C   UNL     1      -2.682   5.703  23.875  0.00  0.00    +0.001 A 
ATOM     33  C   UNL     1      -2.455   5.608  26.278  0.00  0.00    +0.001 A 
ATOM     35  C   UNL     1      -2.057   6.128  25.047  0.00  0.00    +0.000 A 
ENDBRANCH  16  21
BRANCH   8  12
ATOM     12  C   UNL     1      -2.906   0.897  23.280  0.00  0.00    +0.024 C 
BRANCH  12  15
ATOM     15  C   UNL     1      -1.689   0.310  22.584  0.00  0.00    +0.105 C 
BRANCH  15   6
ATOM      6  N   UNL     1      -0.519   0.405  23.425  0.00  0.00    -0.329 N 
BRANCH   6  20
ATOM     20  C   UNL     1      -0.319   1.498  24.280  0.00  0.00    +0.030 A 
ATOM     24  C   UNL     1      -0.219   1.297  25.657  0.00  0.00    +0.023 A 
ATOM     25  C   UNL     1      -0.219   2.786  23.755  0.00  0.00    +0.023 A 
ATOM     30  C   UNL     1      -0.019   2.384  26.508  0.00  0.00    +0.002 A 
ATOM     31  C   UNL     1      -0.019   3.873  24.606  0.00  0.00    +0.002 A 
ATOM     34  C   UNL     1       0.082   3.672  25.983  0.00  0.00    +0.000 A 
ENDBRANCH   6  20
BRANCH   6  18
ATOM     18  C   UNL     1       0.475  -0.669  23.365  0.00  0.00    +0.120 C 
BRANCH  18  19
ATOM     19  C   UNL     1       1.608  -0.264  22.431  0.00  0.00    +0.103 C 
BRANCH  19   7
ATOM      4  O   UNL     1       5.686  -0.300  23.423  0.00  0.00    -0.377 OA
ATOM      7  N   UNL     1       2.856  -0.120  23.178  0.00  0.00    -0.297 NA
ATOM     22  C   UNL     1       3.747   0.848  22.524  0.00  0.00    +0.112 C 
ATOM     23  C   UNL     1       3.535  -1.416  23.314  0.00  0.00    +0.112 C 
ATOM     26  C   UNL     1       5.046   0.973  23.314  0.00  0.00    +0.175 C 
ATOM     27  C   UNL     1       4.839  -1.239  24.086  0.00  0.00    +0.175 C 
ENDBRANCH  19   7
ENDBRANCH  18  19
ENDBRANCH   6  18
ENDBRANCH  15   6
ENDBRANCH  12  15
ENDBRANCH   8  12
BRANCH   9  14
ATOM     14  C   UNL     1      -3.962  -1.932  23.715  0.00  0.00    +0.124 C 
BRANCH  14  17
ATOM      3  O   UNL     1      -1.916  -3.253  23.620  0.00  0.00    -0.251 OA
ATOM     17  C   UNL     1      -2.927  -2.905  24.210  0.00  0.00    +0.305 C 
BRANCH  17   2
ATOM      2  O   UNL     1      -3.278  -3.358  25.440  0.00  0.00    -0.481 OA
ATOM     36  H   UNL     1      -2.746  -4.138  25.708  0.00  0.00    +0.295 HD
ENDBRANCH  17   2
ENDBRANCH  14  17
ENDBRANCH   9  14
TORSDOF 11
ENDMDL
MODEL 6
REMARK VINA RESULT:       2.3      1.779      3.641
REMARK  Name = 28960195
REMARK  11 active torsions:
REMARK  status: ('A' for Active; 'I' for Inactive)
REMARK    1  A    between atoms: O_2  and  C_17
REMARK    2  A    between atoms: N_6  and  C_15
REMARK    3  A    between atoms: N_6  and  C_18
REMARK    4  A    between atoms: N_6  and  C_20
REMARK    5  A    between atoms: N_7  and  C_19
REMARK    6  A    between atoms: C_8  and  C_12
REMARK    7  A    between atoms: C_9  and  C_14
REMARK    8  A    between atoms: C_12  and  C_15
REMARK    9  A    between atoms: C_14  and  C_17
REMARK   10  A    between atoms: C_16  and  C_21
REMARK   11  A    between atoms: C_18  and  C_19
REMARK                            x       y       z     vdW  Elec       q    Type
REMARK                         _______ _______ _______ _____ _____    ______ ____
ROOT
ATOM      1  O   UNL     1      -5.248   4.457  25.029  0.00  0.00    -0.270 OA
ATOM      5  N   UNL     1      -4.359   2.336  25.462  0.00  0.00    -0.297 N 
ATOM      8  C   UNL     1      -3.223   0.277  24.659  0.00  0.00    +0.012 C 
ATOM      9  C   UNL     1      -4.590  -0.452  24.716  0.00  0.00    +0.006 C 
ATOM     10  C   UNL     1      -3.209   1.444  25.664  0.00  0.00    +0.112 C 
ATOM     11  C   UNL     1      -5.762   0.530  24.547  0.00  0.00    +0.023 C 
ATOM     13  C   UNL     1      -5.665   1.683  25.541  0.00  0.00    +0.108 C 
ATOM     16  C   UNL     1      -4.288   3.708  25.204  0.00  0.00    +0.247 C 
ENDROOT
BRANCH  16  21
ATOM     21  C   UNL     1      -2.961   4.328  25.131  0.00  0.00    +0.037 A 
ATOM     28  C   UNL     1      -2.813   5.594  24.564  0.00  0.00    +0.013 A 
ATOM     29  C   UNL     1      -1.848   3.653  25.629  0.00  0.00    +0.013 A 
ATOM     32  C   UNL     1      -1.551   6.184  24.496  0.00  0.00    +0.001 A 
ATOM     33  C   UNL     1      -0.585   4.243  25.562  0.00  0.00    +0.001 A 
ATOM     35  C   UNL     1      -0.437   5.509  24.995  0.00  0.00    +0.000 A 
ENDBRANCH  16  21
BRANCH   8  12
ATOM     12  C   UNL     1      -2.840   0.775  23.259  0.00  0.00    +0.024 C 
BRANCH  12  15
ATOM     15  C   UNL     1      -1.612   1.671  23.279  0.00  0.00    +0.105 C 
BRANCH  15   6
ATOM      6  N   UNL     1      -0.436   0.925  23.656  0.00  0.00    -0.329 N 
BRANCH   6  20
ATOM     20  C   UNL     1      -0.531  -0.349  24.234  0.00  0.00    +0.030 A 
ATOM     24  C   UNL     1      -0.680  -1.473  23.422  0.00  0.00    +0.023 A 
ATOM     25  C   UNL     1      -0.476  -0.492  25.620  0.00  0.00    +0.023 A 
ATOM     30  C   UNL     1      -0.775  -2.741  23.996  0.00  0.00    +0.002 A 
ATOM     31  C   UNL     1      -0.571  -1.760  26.195  0.00  0.00    +0.002 A 
ATOM     34  C   UNL     1      -0.720  -2.884  25.382  0.00  0.00    +0.000 A 
ENDBRANCH   6  20
BRANCH   6  18
ATOM     18  C   UNL     1       0.879   1.531  23.432  0.00  0.00    +0.120 C 
BRANCH  18  19
ATOM     19  C   UNL     1       1.743   0.584  22.609  0.00  0.00    +0.103 C 
BRANCH  19   7
ATOM      4  O   UNL     1       5.655  -0.699  23.429  0.00  0.00    -0.377 OA
ATOM      7  N   UNL     1       2.985   0.283  23.318  0.00  0.00    -0.297 NA
ATOM     22  C   UNL     1       4.108   1.043  22.752  0.00  0.00    +0.112 C 
ATOM     23  C   UNL     1       3.277  -1.156  23.270  0.00  0.00    +0.112 C 
ATOM     26  C   UNL     1       5.393   0.704  23.500  0.00  0.00    +0.175 C 
ATOM     27  C   UNL     1       4.582  -1.445  24.007  0.00  0.00    +0.175 C 
ENDBRANCH  19   7
ENDBRANCH  18  19
ENDBRANCH   6  18
ENDBRANCH  15   6
ENDBRANCH  12  15
ENDBRANCH   8  12
BRANCH   9  14
ATOM     14  C   UNL     1      -4.700  -1.600  23.713  0.00  0.00    +0.124 C 
BRANCH  14  17
ATOM      3  O   UNL     1      -3.817  -3.869  23.594  0.00  0.00    -0.251 OA
ATOM     17  C   UNL     1      -4.052  -2.855  24.232  0.00  0.00    +0.305 C 
BRANCH  17   2
ATOM      2  O   UNL     1      -3.751  -2.702  25.548  0.00  0.00    -0.481 OA
ATOM     36  H   UNL     1      -3.987  -3.499  26.071  0.00  0.00    +0.295 HD
ENDBRANCH  17   2
ENDBRANCH  14  17
ENDBRANCH   9  14
TORSDOF 11
ENDMDL
MODEL 7
REMARK VINA RESULT:       2.5      2.377      4.570
REMARK  Name = 28960195
REMARK  11 active torsions:
REMARK  status: ('A' for Active; 'I' for Inactive)
REMARK    1  A    between atoms: O_2  and  C_17
REMARK    2  A    between atoms: N_6  and  C_15
REMARK    3  A    between atoms: N_6  and  C_18
REMARK    4  A    between atoms: N_6  and  C_20
REMARK    5  A    between atoms: N_7  and  C_19
REMARK    6  A    between atoms: C_8  and  C_12
REMARK    7  A    between atoms: C_9  and  C_14
REMARK    8  A    between atoms: C_12  and  C_15
REMARK    9  A    between atoms: C_14  and  C_17
REMARK   10  A    between atoms: C_16  and  C_21
REMARK   11  A    between atoms: C_18  and  C_19
REMARK                            x       y       z     vdW  Elec       q    Type
REMARK                         _______ _______ _______ _____ _____    ______ ____
ROOT
ATOM      1  O   UNL     1      -4.681   3.502  25.542  0.00  0.00    -0.270 OA
ATOM      5  N   UNL     1      -2.367   3.775  25.755  0.00  0.00    -0.297 N 
ATOM      8  C   UNL     1      -0.090   2.790  25.889  0.00  0.00    +0.012 C 
ATOM      9  C   UNL     1      -0.107   3.056  27.416  0.00  0.00    +0.006 C 
ATOM     10  C   UNL     1      -1.018   3.788  25.172  0.00  0.00    +0.112 C 
ATOM     11  C   UNL     1      -1.542   3.081  27.969  0.00  0.00    +0.023 C 
ATOM     13  C   UNL     1      -2.420   4.055  27.189  0.00  0.00    +0.108 C 
ATOM     16  C   UNL     1      -3.551   3.519  25.058  0.00  0.00    +0.247 C 
ENDROOT
BRANCH  16  21
ATOM     21  C   UNL     1      -3.459   3.243  23.620  0.00  0.00    +0.037 A 
ATOM     28  C   UNL     1      -4.130   4.057  22.709  0.00  0.00    +0.013 A 
ATOM     29  C   UNL     1      -2.699   2.165  23.165  0.00  0.00    +0.013 A 
ATOM     32  C   UNL     1      -4.042   3.794  21.341  0.00  0.00    +0.001 A 
ATOM     33  C   UNL     1      -2.610   1.902  21.798  0.00  0.00    +0.001 A 
ATOM     35  C   UNL     1      -3.281   2.717  20.886  0.00  0.00    +0.000 A 
ENDBRANCH  16  21
BRANCH   8  12
ATOM     12  C   UNL     1      -0.455   1.351  25.503  0.00  0.00    +0.024 C 
BRANCH  12  15
ATOM     15  C   UNL     1      -0.024   1.003  24.087  0.00  0.00    +0.105 C 
BRANCH  15   6
ATOM      6  N   UNL     1      -0.189  -0.407  23.831  0.00  0.00    -0.329 N 
BRANCH   6  20
ATOM     20  C   UNL     1      -1.359  -1.087  24.201  0.00  0.00    +0.030 A 
ATOM     24  C   UNL     1      -2.493  -0.368  24.577  0.00  0.00    +0.023 A 
ATOM     25  C   UNL     1      -1.388  -2.481  24.192  0.00  0.00    +0.023 A 
ATOM     30  C   UNL     1      -3.658  -1.043  24.944  0.00  0.00    +0.002 A 
ATOM     31  C   UNL     1      -2.553  -3.157  24.559  0.00  0.00    +0.002 A 
ATOM     34  C   UNL     1      -3.687  -2.437  24.935  0.00  0.00    +0.000 A 
ENDBRANCH   6  20
BRANCH   6  18
ATOM     18  C   UNL     1       0.902  -1.133  23.177  0.00  0.00    +0.120 C 
BRANCH  18  19
ATOM     19  C   UNL     1       1.715  -0.170  22.322  0.00  0.00    +0.103 C 
BRANCH  19   7
ATOM      4  O   UNL     1       5.422  -0.208  24.291  0.00  0.00    -0.377 OA
ATOM      7  N   UNL     1       3.143  -0.332  22.590  0.00  0.00    -0.297 NA
ATOM     22  C   UNL     1       3.366  -1.325  23.649  0.00  0.00    +0.112 C 
ATOM     23  C   UNL     1       3.751   0.951  22.967  0.00  0.00    +0.112 C 
ATOM     26  C   UNL     1       4.860  -1.468  23.920  0.00  0.00    +0.175 C 
ATOM     27  C   UNL     1       5.238   0.755  23.252  0.00  0.00    +0.175 C 
ENDBRANCH  19   7
ENDBRANCH  18  19
ENDBRANCH   6  18
ENDBRANCH  15   6
ENDBRANCH  12  15
ENDBRANCH   8  12
BRANCH   9  14
ATOM     14  C   UNL     1       0.759   2.075  28.207  0.00  0.00    +0.124 C 
BRANCH  14  17
ATOM      3  O   UNL     1       2.840   3.256  28.671  0.00  0.00    -0.251 OA
ATOM     17  C   UNL     1       1.777   2.791  29.052  0.00  0.00    +0.305 C 
BRANCH  17   2
ATOM      2  O   UNL     1       1.341   2.854  30.336  0.00  0.00    -0.481 OA
ATOM     36  H   UNL     1       0.425   3.204  30.394  0.00  0.00    +0.295 HD
ENDBRANCH  17   2
ENDBRANCH  14  17
ENDBRANCH   9  14
TORSDOF 11
ENDMDL
MODEL 8
REMARK VINA RESULT:       2.8      2.486      5.772
REMARK  Name = 28960195
REMARK  11 active torsions:
REMARK  status: ('A' for Active; 'I' for Inactive)
REMARK    1  A    between atoms: O_2  and  C_17
REMARK    2  A    between atoms: N_6  and  C_15
REMARK    3  A    between atoms: N_6  and  C_18
REMARK    4  A    between atoms: N_6  and  C_20
REMARK    5  A    between atoms: N_7  and  C_19
REMARK    6  A    between atoms: C_8  and  C_12
REMARK    7  A    between atoms: C_9  and  C_14
REMARK    8  A    between atoms: C_12  and  C_15
REMARK    9  A    between atoms: C_14  and  C_17
REMARK   10  A    between atoms: C_16  and  C_21
REMARK   11  A    between atoms: C_18  and  C_19
REMARK                            x       y       z     vdW  Elec       q    Type
REMARK                         _______ _______ _______ _____ _____    ______ ____
ROOT
ATOM      1  O   UNL     1      -4.405   2.526  25.556  0.00  0.00    -0.270 OA
ATOM      5  N   UNL     1      -2.233   3.389  25.670  0.00  0.00    -0.297 N 
ATOM      8  C   UNL     1       0.224   3.050  25.526  0.00  0.00    +0.012 C 
ATOM      9  C   UNL     1       0.284   3.109  27.074  0.00  0.00    +0.006 C 
ATOM     10  C   UNL     1      -0.996   3.840  25.018  0.00  0.00    +0.112 C 
ATOM     11  C   UNL     1      -1.049   2.674  27.708  0.00  0.00    +0.023 C 
ATOM     13  C   UNL     1      -2.220   3.462  27.130  0.00  0.00    +0.108 C 
ATOM     16  C   UNL     1      -3.370   2.910  25.014  0.00  0.00    +0.247 C 
ENDROOT
BRANCH  16  21
ATOM     21  C   UNL     1      -3.347   2.850  23.549  0.00  0.00    +0.037 A 
ATOM     28  C   UNL     1      -4.077   3.773  22.801  0.00  0.00    +0.013 A 
ATOM     29  C   UNL     1      -2.594   1.869  22.903  0.00  0.00    +0.013 A 
ATOM     32  C   UNL     1      -4.053   3.716  21.407  0.00  0.00    +0.001 A 
ATOM     33  C   UNL     1      -2.570   1.812  21.509  0.00  0.00    +0.001 A 
ATOM     35  C   UNL     1      -3.300   2.736  20.761  0.00  0.00    +0.000 A 
ENDBRANCH  16  21
BRANCH   8  12
ATOM     12  C   UNL     1       0.212   1.626  24.957  0.00  0.00    +0.024 C 
BRANCH  12  15
ATOM     15  C   UNL     1       0.806   1.555  23.559  0.00  0.00    +0.105 C 
BRANCH  15   6
ATOM      6  N   UNL     1       1.386   0.257  23.311  0.00  0.00    -0.329 N 
BRANCH   6  20
ATOM     20  C   UNL     1       2.774   0.060  23.325  0.00  0.00    +0.030 A 
ATOM     24  C   UNL     1       3.300  -1.164  23.739  0.00  0.00    +0.023 A 
ATOM     25  C   UNL     1       3.628   1.087  22.926  0.00  0.00    +0.023 A 
ATOM     30  C   UNL     1       4.681  -1.361  23.753  0.00  0.00    +0.002 A 
ATOM     31  C   UNL     1       5.010   0.890  22.940  0.00  0.00    +0.002 A 
ATOM     34  C   UNL     1       5.536  -0.334  23.353  0.00  0.00    +0.000 A 
ENDBRANCH   6  20
BRANCH   6  18
ATOM     18  C   UNL     1       0.490  -0.868  23.030  0.00  0.00    +0.120 C 
BRANCH  18  19
ATOM     19  C   UNL     1      -0.030  -1.446  24.340  0.00  0.00    +0.103 C 
BRANCH  19   7
ATOM      4  O   UNL     1      -4.013  -2.038  25.527  0.00  0.00    -0.377 OA
ATOM      7  N   UNL     1      -1.491  -1.398  24.372  0.00  0.00    -0.297 NA
ATOM     22  C   UNL     1      -1.965  -0.738  25.595  0.00  0.00    +0.112 C 
ATOM     23  C   UNL     1      -2.059  -2.750  24.277  0.00  0.00    +0.112 C 
ATOM     26  C   UNL     1      -3.491  -0.711  25.612  0.00  0.00    +0.175 C 
ATOM     27  C   UNL     1      -3.582  -2.676  24.323  0.00  0.00    +0.175 C 
ENDBRANCH  19   7
ENDBRANCH  18  19
ENDBRANCH   6  18
ENDBRANCH  15   6
ENDBRANCH  12  15
ENDBRANCH   8  12
BRANCH   9  14
ATOM     14  C   UNL     1       1.447   2.310  27.661  0.00  0.00    +0.124 C 
BRANCH  14  17
ATOM      3  O   UNL     1       1.231   2.684  30.060  0.00  0.00    -0.251 OA
ATOM     17  C   UNL     1       1.848   2.828  29.016  0.00  0.00    +0.305 C 
BRANCH  17   2
ATOM      2  O   UNL     1       3.025   3.496  28.919  0.00  0.00    -0.481 OA
ATOM     36  H   UNL     1       3.474   3.323  28.063  0.00  0.00    +0.295 HD
ENDBRANCH  17   2
ENDBRANCH  14  17
ENDBRANCH   9  14
TORSDOF 11
ENDMDL
MODEL 9
REMARK VINA RESULT:       3.6      2.409      4.405
REMARK  Name = 28960195
REMARK  11 active torsions:
REMARK  status: ('A' for Active; 'I' for Inactive)
REMARK    1  A    between atoms: O_2  and  C_17
REMARK    2  A    between atoms: N_6  and  C_15
REMARK    3  A    between atoms: N_6  and  C_18
REMARK    4  A    between atoms: N_6  and  C_20
REMARK    5  A    between atoms: N_7  and  C_19
REMARK    6  A    between atoms: C_8  and  C_12
REMARK    7  A    between atoms: C_9  and  C_14
REMARK    8  A    between atoms: C_12  and  C_15
REMARK    9  A    between atoms: C_14  and  C_17
REMARK   10  A    between atoms: C_16  and  C_21
REMARK   11  A    between atoms: C_18  and  C_19
REMARK                            x       y       z     vdW  Elec       q    Type
REMARK                         _______ _______ _______ _____ _____    ______ ____
ROOT
ATOM      1  O   UNL     1      -4.533   3.081  22.762  0.00  0.00    -0.270 OA
ATOM      5  N   UNL     1      -4.155   1.758  24.655  0.00  0.00    -0.297 N 
ATOM      8  C   UNL     1      -2.840   0.003  25.823  0.00  0.00    +0.012 C 
ATOM      9  C   UNL     1      -3.997  -0.992  25.548  0.00  0.00    +0.006 C 
ATOM     10  C   UNL     1      -3.385   1.442  25.867  0.00  0.00    +0.112 C 
ATOM     11  C   UNL     1      -4.801  -0.592  24.299  0.00  0.00    +0.023 C 
ATOM     13  C   UNL     1      -5.274   0.856  24.385  0.00  0.00    +0.108 C 
ATOM     16  C   UNL     1      -3.895   2.816  23.780  0.00  0.00    +0.247 C 
ENDROOT
BRANCH  16  21
ATOM     21  C   UNL     1      -2.765   3.700  24.083  0.00  0.00    +0.037 A 
ATOM     28  C   UNL     1      -1.566   3.563  23.384  0.00  0.00    +0.013 A 
ATOM     29  C   UNL     1      -2.889   4.678  25.070  0.00  0.00    +0.013 A 
ATOM     32  C   UNL     1      -0.491   4.406  23.672  0.00  0.00    +0.001 A 
ATOM     33  C   UNL     1      -1.815   5.520  25.357  0.00  0.00    +0.001 A 
ATOM     35  C   UNL     1      -0.616   5.383  24.658  0.00  0.00    +0.000 A 
ENDBRANCH  16  21
BRANCH   8  12
ATOM     12  C   UNL     1      -1.681  -0.098  24.824  0.00  0.00    +0.024 C 
BRANCH  12  15
ATOM     15  C   UNL     1      -0.323   0.016  25.498  0.00  0.00    +0.105 C 
BRANCH  15   6
ATOM      6  N   UNL     1       0.500   0.999  24.835  0.00  0.00    -0.329 N 
BRANCH   6  20
ATOM     20  C   UNL     1       1.289   0.666  23.725  0.00  0.00    +0.030 A 
ATOM     24  C   UNL     1       0.774  -0.162  22.728  0.00  0.00    +0.023 A 
ATOM     25  C   UNL     1       2.588   1.161  23.618  0.00  0.00    +0.023 A 
ATOM     30  C   UNL     1       1.558  -0.494  21.623  0.00  0.00    +0.002 A 
ATOM     31  C   UNL     1       3.372   0.829  22.513  0.00  0.00    +0.002 A 
ATOM     34  C   UNL     1       2.857   0.002  21.516  0.00  0.00    +0.000 A 
ENDBRANCH   6  20
BRANCH   6  18
ATOM     18  C   UNL     1       0.507   2.370  25.352  0.00  0.00    +0.120 C 
BRANCH  18  19
ATOM     19  C   UNL     1      -0.131   2.397  26.735  0.00  0.00    +0.103 C 
BRANCH  19   7
ATOM      4  O   UNL     1       2.497   3.145  29.921  0.00  0.00    -0.377 OA
ATOM      7  N   UNL     1       0.885   2.211  27.769  0.00  0.00    -0.297 NA
ATOM     22  C   UNL     1       0.321   2.447  29.105  0.00  0.00    +0.112 C 
ATOM     23  C   UNL     1       2.030   3.104  27.541  0.00  0.00    +0.112 C 
ATOM     26  C   UNL     1       1.402   2.259  30.164  0.00  0.00    +0.175 C 
ATOM     27  C   UNL     1       3.072   2.900  28.637  0.00  0.00    +0.175 C 
ENDBRANCH  19   7
ENDBRANCH  18  19
ENDBRANCH   6  18
ENDBRANCH  15   6
ENDBRANCH  12  15
ENDBRANCH   8  12
BRANCH   9  14
ATOM     14  C   UNL     1      -3.530  -2.443  25.447  0.00  0.00    +0.124 C 
BRANCH  14  17
ATOM      3  O   UNL     1      -4.331  -3.111  23.244  0.00  0.00    -0.251 OA
ATOM     17  C   UNL     1      -3.410  -2.889  24.015  0.00  0.00    +0.305 C 
BRANCH  17   2
ATOM      2  O   UNL     1      -2.100  -3.013  23.683  0.00  0.00    -0.481 OA
ATOM     36  H   UNL     1      -1.674  -2.139  23.544  0.00  0.00    +0.295 HD
ENDBRANCH  17   2
ENDBRANCH  14  17
ENDBRANCH   9  14
TORSDOF 11
ENDMDL
