MODEL 1
REMARK VINA RESULT:       2.2      0.000      0.000
REMARK  Name = 7155415
REMARK  2 active torsions:
REMARK  status: ('A' for Active; 'I' for Inactive)
REMARK    1  A    between atoms: C_13  and  C_18
REMARK    2  A    between atoms: C_15  and  C_19
REMARK                            x       y       z     vdW  Elec       q    Type
REMARK                         _______ _______ _______ _____ _____    ______ ____
ROOT
ATOM      2  O   UNL     1      -2.434   4.030  27.396  0.00  0.00    -0.268 OA
ATOM      3  O   UNL     1      -5.372   0.539  25.176  0.00  0.00    -0.270 OA
ATOM      4  N   UNL     1      -3.911   1.314  23.524  0.00  0.00    -0.297 N 
ATOM      5  N   UNL     1      -2.103   3.289  25.198  0.00  0.00    -0.311 N 
ATOM      6  C   UNL     1      -3.806   3.788  23.345  0.00  0.00    +0.027 C 
ATOM      7  C   UNL     1      -1.803   2.447  22.850  0.00  0.00    +0.054 C 
ATOM      8  C   UNL     1      -2.608   3.671  22.415  0.00  0.00    +0.018 C 
ATOM      9  C   UNL     1      -4.682   2.526  23.259  0.00  0.00    +0.113 C 
ATOM     10  C   UNL     1      -3.295   4.033  24.765  0.00  0.00    +0.130 C 
ATOM     11  C   UNL     1      -2.681   1.183  22.729  0.00  0.00    +0.117 C 
ATOM     12  C   UNL     1      -1.289   2.591  24.285  0.00  0.00    +0.034 A 
ATOM     13  C   UNL     1      -0.115   2.048  24.700  0.00  0.00    +0.002 A 
ATOM     14  C   UNL     1      -1.768   3.421  26.557  0.00  0.00    +0.252 A 
ATOM     15  C   UNL     1      -4.343   0.426  24.512  0.00  0.00    +0.247 C 
ATOM     16  C   UNL     1       0.261   2.161  26.097  0.00  0.00    +0.015 A 
ATOM     17  C   UNL     1      -0.503   2.786  26.992  0.00  0.00    +0.071 A 
ENDROOT
BRANCH  15  19
ATOM      1  F   UNL     1      -1.147  -4.018  25.658  0.00  0.00    -0.205 F 
ATOM     19  C   UNL     1      -3.504  -0.740  24.813  0.00  0.00    +0.037 A 
ATOM     22  C   UNL     1      -3.872  -1.998  24.343  0.00  0.00    +0.016 A 
ATOM     23  C   UNL     1      -2.345  -0.583  25.568  0.00  0.00    +0.016 A 
ATOM     27  C   UNL     1      -3.075  -3.106  24.628  0.00  0.00    +0.039 A 
ATOM     28  C   UNL     1      -1.548  -1.692  25.853  0.00  0.00    +0.039 A 
ATOM     29  C   UNL     1      -1.913  -2.954  25.383  0.00  0.00    +0.123 A 
ENDBRANCH  15  19
BRANCH  13  18
ATOM     18  C   UNL     1       0.783   1.329  23.771  0.00  0.00    -0.016 A 
ATOM     20  C   UNL     1       2.074   1.802  23.553  0.00  0.00    +0.008 A 
ATOM     21  C   UNL     1       0.333   0.185  23.121  0.00  0.00    +0.008 A 
ATOM     24  C   UNL     1       2.922   1.123  22.677  0.00  0.00    +0.001 A 
ATOM     25  C   UNL     1       1.181  -0.494  22.246  0.00  0.00    +0.001 A 
ATOM     26  C   UNL     1       2.475  -0.025  22.024  0.00  0.00    +0.000 A 
ENDBRANCH  13  18
TORSDOF 2
ENDMDL
MODEL 2
REMARK VINA RESULT:       6.2      2.433      4.713
REMARK  Name = 7155415
REMARK  2 active torsions:
REMARK  status: ('A' for Active; 'I' for Inactive)
REMARK    1  A    between atoms: C_13  and  C_18
REMARK    2  A    between atoms: C_15  and  C_19
REMARK                            x       y       z     vdW  Elec       q    Type
REMARK                         _______ _______ _______ _____ _____    ______ ____
ROOT
ATOM      2  O   UNL     1       0.848   2.350  27.706  0.00  0.00    -0.268 OA
ATOM      3  O   UNL     1      -2.468   5.077  25.001  0.00  0.00    -0.270 OA
ATOM      4  N   UNL     1      -1.914   3.225  23.687  0.00  0.00    -0.297 N 
ATOM      5  N   UNL     1      -0.030   1.631  25.656  0.00  0.00    -0.311 N 
ATOM      6  C   UNL     1       0.527   2.838  23.462  0.00  0.00    +0.027 C 
ATOM      7  C   UNL     1      -1.013   0.919  23.456  0.00  0.00    +0.054 C 
ATOM      8  C   UNL     1       0.256   1.485  22.819  0.00  0.00    +0.018 C 
ATOM      9  C   UNL     1      -0.652   3.796  23.223  0.00  0.00    +0.113 C 
ATOM     10  C   UNL     1       0.797   2.622  24.951  0.00  0.00    +0.130 C 
ATOM     11  C   UNL     1      -2.197   1.873  23.183  0.00  0.00    +0.117 C 
ATOM     12  C   UNL     1      -0.844   0.714  24.964  0.00  0.00    +0.034 A 
ATOM     13  C   UNL     1      -1.470  -0.284  25.641  0.00  0.00    +0.002 A 
ATOM     14  C   UNL     1       0.140   1.584  27.051  0.00  0.00    +0.252 A 
ATOM     15  C   UNL     1      -2.708   3.946  24.582  0.00  0.00    +0.247 C 
ATOM     16  C   UNL     1      -1.322  -0.361  27.083  0.00  0.00    +0.015 A 
ATOM     17  C   UNL     1      -0.585   0.511  27.770  0.00  0.00    +0.071 A 
ENDROOT
BRANCH  15  19
ATOM      1  F   UNL     1      -7.359   1.529  26.532  0.00  0.00    -0.205 F 
ATOM     19  C   UNL     1      -3.929   3.312  25.094  0.00  0.00    +0.037 A 
ATOM     22  C   UNL     1      -4.636   2.422  24.290  0.00  0.00    +0.016 A 
ATOM     23  C   UNL     1      -4.374   3.604  26.380  0.00  0.00    +0.016 A 
ATOM     27  C   UNL     1      -5.796   1.819  24.776  0.00  0.00    +0.039 A 
ATOM     28  C   UNL     1      -5.534   3.001  26.866  0.00  0.00    +0.039 A 
ATOM     29  C   UNL     1      -6.245   2.108  26.065  0.00  0.00    +0.123 A 
ENDBRANCH  15  19
BRANCH  13  18
ATOM     18  C   UNL     1      -2.314  -1.284  24.953  0.00  0.00    -0.016 A 
ATOM     20  C   UNL     1      -3.654  -1.004  24.705  0.00  0.00    +0.008 A 
ATOM     21  C   UNL     1      -1.763  -2.498  24.556  0.00  0.00    +0.008 A 
ATOM     24  C   UNL     1      -4.451  -1.947  24.054  0.00  0.00    +0.001 A 
ATOM     25  C   UNL     1      -2.559  -3.441  23.905  0.00  0.00    +0.001 A 
ATOM     26  C   UNL     1      -3.903  -3.165  23.654  0.00  0.00    +0.000 A 
ENDBRANCH  13  18
TORSDOF 2
ENDMDL
