MODEL 1
REMARK VINA RESULT:      11.5      0.000      0.000
REMARK  Name = 11941475
REMARK  7 active torsions:
REMARK  status: ('A' for Active; 'I' for Inactive)
REMARK    1  A    between atoms: O_5  and  C_27
REMARK    2  A    between atoms: O_5  and  C_32
REMARK    3  A    between atoms: N_7  and  C_10
REMARK    4  A    between atoms: N_9  and  C_23
REMARK    5  A    between atoms: C_21  and  C_24
REMARK    6  A    between atoms: C_23  and  C_25
REMARK    7  A    between atoms: C_23  and  C_26
REMARK                            x       y       z     vdW  Elec       q    Type
REMARK                         _______ _______ _______ _____ _____    ______ ____
ROOT
ATOM      2  O   UNL     1      -4.913  -0.626  26.200  0.00  0.00    -0.273 OA
ATOM      3  O   UNL     1      -2.381   1.149  21.933  0.00  0.00    -0.270 OA
ATOM      6  N   UNL     1      -3.568   1.310  23.896  0.00  0.00    -0.284 N 
ATOM      8  N   UNL     1      -2.801  -1.060  25.464  0.00  0.00    -0.283 N 
ATOM     10  C   UNL     1      -4.846   2.148  25.702  0.00  0.00    +0.105 C 
ATOM     11  C   UNL     1      -3.656   1.246  25.344  0.00  0.00    +0.183 C 
ATOM     12  C   UNL     1      -5.720   2.099  24.447  0.00  0.00    +0.043 C 
ATOM     13  C   UNL     1      -4.706   2.006  23.316  0.00  0.00    +0.111 C 
ATOM     14  C   UNL     1      -3.874  -0.219  25.675  0.00  0.00    +0.240 C 
ATOM     15  C   UNL     1      -2.481   0.927  23.140  0.00  0.00    +0.249 C 
ATOM     16  C   UNL     1      -1.383   0.188  23.815  0.00  0.00    +0.059 A 
ATOM     17  C   UNL     1      -1.579  -0.779  24.816  0.00  0.00    +0.046 A 
ATOM     19  C   UNL     1      -0.097   0.373  23.275  0.00  0.00    +0.023 A 
ATOM     20  C   UNL     1      -0.492  -1.583  25.204  0.00  0.00    +0.024 A 
ATOM     21  C   UNL     1       0.979  -0.402  23.706  0.00  0.00    -0.014 A 
ATOM     22  C   UNL     1       0.779  -1.389  24.662  0.00  0.00    +0.010 A 
ATOM     34  H   UNL     1      -2.871  -1.974  25.904  0.00  0.00    +0.155 HD
ENDROOT
BRANCH  21  24
ATOM      1 CL   UNL     1       6.034   0.166  24.523  0.00  0.00    -0.084 Cl
ATOM     24  C   UNL     1       2.295  -0.194  23.142  0.00  0.00    +0.025 A 
ATOM     27  C   UNL     1       2.473  -0.066  21.764  0.00  0.00    +0.128 A 
ATOM     28  C   UNL     1       3.398  -0.121  23.995  0.00  0.00    +0.032 A 
ATOM     29  C   UNL     1       3.749   0.134  21.239  0.00  0.00    +0.047 A 
ATOM     30  C   UNL     1       4.675   0.078  23.471  0.00  0.00    +0.042 A 
ATOM     31  C   UNL     1       4.851   0.206  22.093  0.00  0.00    +0.023 A 
BRANCH  27   5
ATOM      5  O   UNL     1       1.414  -0.133  20.906  0.00  0.00    -0.495 OA
ATOM     32  C   UNL     1       0.771  -1.398  20.771  0.00  0.00    +0.277 C 
ENDBRANCH  27   5
ENDBRANCH  21  24
BRANCH  10   7
ATOM      4  O   UNL     1      -2.551   3.496  24.587  0.00  0.00    -0.253 OA
ATOM      7  N   UNL     1      -4.407   3.496  25.981  0.00  0.00    -0.294 N 
ATOM      9  N   UNL     1      -3.089   5.373  25.839  0.00  0.00    -0.297 N 
ATOM     18  C   UNL     1      -3.282   4.068  25.395  0.00  0.00    +0.300 C 
ATOM     33  H   UNL     1      -4.901   4.028  26.692  0.00  0.00    +0.151 HD
ATOM     35  H   UNL     1      -3.791   5.784  26.448  0.00  0.00    +0.150 HD
BRANCH   9  23
ATOM     23  C   UNL     1      -1.993   6.200  25.390  0.00  0.00    +0.068 C 
ATOM     25  C   UNL     1      -2.392   6.975  24.141  0.00  0.00    +0.027 C 
ATOM     26  C   UNL     1      -0.752   5.352  25.142  0.00  0.00    +0.027 C 
ENDBRANCH   9  23
ENDBRANCH  10   7
TORSDOF 4
ENDMDL
MODEL 2
REMARK VINA RESULT:      13.5      2.013      4.388
REMARK  Name = 11941475
REMARK  7 active torsions:
REMARK  status: ('A' for Active; 'I' for Inactive)
REMARK    1  A    between atoms: O_5  and  C_27
REMARK    2  A    between atoms: O_5  and  C_32
REMARK    3  A    between atoms: N_7  and  C_10
REMARK    4  A    between atoms: N_9  and  C_23
REMARK    5  A    between atoms: C_21  and  C_24
REMARK    6  A    between atoms: C_23  and  C_25
REMARK    7  A    between atoms: C_23  and  C_26
REMARK                            x       y       z     vdW  Elec       q    Type
REMARK                         _______ _______ _______ _____ _____    ______ ____
ROOT
ATOM      2  O   UNL     1      -2.847   6.116  24.442  0.00  0.00    -0.273 OA
ATOM      3  O   UNL     1      -0.147   2.484  27.139  0.00  0.00    -0.270 OA
ATOM      6  N   UNL     1      -1.990   3.420  26.133  0.00  0.00    -0.284 N 
ATOM      8  N   UNL     1      -0.930   5.013  23.898  0.00  0.00    -0.283 N 
ATOM     10  C   UNL     1      -4.213   3.870  25.460  0.00  0.00    +0.105 C 
ATOM     11  C   UNL     1      -2.767   3.761  24.955  0.00  0.00    +0.183 C 
ATOM     12  C   UNL     1      -4.049   4.245  26.934  0.00  0.00    +0.043 C 
ATOM     13  C   UNL     1      -2.788   3.500  27.348  0.00  0.00    +0.111 C 
ATOM     14  C   UNL     1      -2.192   5.072  24.452  0.00  0.00    +0.240 C 
ATOM     15  C   UNL     1      -0.709   2.913  26.132  0.00  0.00    +0.249 C 
ATOM     16  C   UNL     1       0.040   2.906  24.849  0.00  0.00    +0.059 A 
ATOM     17  C   UNL     1      -0.023   3.932  23.890  0.00  0.00    +0.046 A 
ATOM     19  C   UNL     1       0.987   1.875  24.698  0.00  0.00    +0.023 A 
ATOM     20  C   UNL     1       0.910   3.934  22.838  0.00  0.00    +0.024 A 
ATOM     21  C   UNL     1       1.872   1.869  23.621  0.00  0.00    -0.014 A 
ATOM     22  C   UNL     1       1.842   2.906  22.697  0.00  0.00    +0.010 A 
ATOM     34  H   UNL     1      -0.654   5.828  23.356  0.00  0.00    +0.155 HD
ENDROOT
BRANCH  21  24
ATOM      1 CL   UNL     1       6.810   0.402  23.725  0.00  0.00    -0.084 Cl
ATOM     24  C   UNL     1       2.835   0.799  23.480  0.00  0.00    +0.025 A 
ATOM     27  C   UNL     1       2.424  -0.500  23.177  0.00  0.00    +0.128 A 
ATOM     28  C   UNL     1       4.193   1.077  23.648  0.00  0.00    +0.032 A 
ATOM     29  C   UNL     1       3.367  -1.519  23.044  0.00  0.00    +0.047 A 
ATOM     30  C   UNL     1       5.136   0.059  23.515  0.00  0.00    +0.042 A 
ATOM     31  C   UNL     1       4.724  -1.239  23.213  0.00  0.00    +0.023 A 
BRANCH  27   5
ATOM      5  O   UNL     1       1.105  -0.802  23.007  0.00  0.00    -0.495 OA
ATOM     32  C   UNL     1       0.353  -1.097  24.181  0.00  0.00    +0.277 C 
ENDBRANCH  27   5
ENDBRANCH  21  24
BRANCH  10   7
ATOM      4  O   UNL     1      -3.063   1.322  24.744  0.00  0.00    -0.253 OA
ATOM      7  N   UNL     1      -4.907   2.610  25.315  0.00  0.00    -0.294 N 
ATOM      9  N   UNL     1      -5.171   0.366  24.897  0.00  0.00    -0.297 N 
ATOM     18  C   UNL     1      -4.268   1.425  24.964  0.00  0.00    +0.300 C 
ATOM     33  H   UNL     1      -5.919   2.602  25.405  0.00  0.00    +0.151 HD
ATOM     35  H   UNL     1      -6.133   0.535  25.173  0.00  0.00    +0.150 HD
BRANCH   9  23
ATOM     23  C   UNL     1      -4.775  -0.980  24.553  0.00  0.00    +0.068 C 
ATOM     25  C   UNL     1      -3.862  -1.554  25.628  0.00  0.00    +0.027 C 
ATOM     26  C   UNL     1      -4.104  -1.007  23.186  0.00  0.00    +0.027 C 
ENDBRANCH   9  23
ENDBRANCH  10   7
TORSDOF 4
ENDMDL
