MODEL 1
REMARK VINA RESULT:      -1.1      0.000      0.000
REMARK  Name = 40777506
REMARK  11 active torsions:
REMARK  status: ('A' for Active; 'I' for Inactive)
REMARK    1  A    between atoms: O_3  and  C_27
REMARK    2  A    between atoms: O_3  and  C_28
REMARK    3  A    between atoms: N_5  and  C_16
REMARK    4  A    between atoms: C_7  and  C_11
REMARK    5  A    between atoms: C_8  and  C_13
REMARK    6  A    between atoms: C_11  and  C_14
REMARK    7  A    between atoms: C_13  and  C_15
REMARK    8  A    between atoms: C_16  and  C_18
REMARK    9  A    between atoms: C_16  and  C_19
REMARK   10  A    between atoms: C_16  and  C_20
REMARK   11  A    between atoms: C_21  and  C_22
REMARK                            x       y       z     vdW  Elec       q    Type
REMARK                         _______ _______ _______ _____ _____    ______ ____
ROOT
ATOM      4  N   UNL     1      -7.229  -8.449   8.492  0.00  0.00    -0.316 NA
ATOM      7  C   UNL     1      -7.003  -9.377  11.284  0.00  0.00    +0.004 C 
ATOM      8  C   UNL     1      -5.854  -9.525  10.258  0.00  0.00    +0.012 C 
ATOM      9  C   UNL     1      -7.914  -8.214  10.853  0.00  0.00    +0.019 C 
ATOM     10  C   UNL     1      -6.386  -9.600   8.817  0.00  0.00    +0.085 C 
ATOM     12  C   UNL     1      -8.368  -8.336   9.400  0.00  0.00    +0.081 C 
ATOM     29  H   UNL     1      -7.568  -8.538   7.535  0.00  0.00    +0.122 HD
ENDROOT
BRANCH   7  11
ATOM     11  C   UNL     1      -7.819 -10.658  11.495  0.00  0.00    +0.099 C 
BRANCH  11  14
ATOM      1  O   UNL     1     -10.110 -10.591  12.266  0.00  0.00    -0.276 OA
ATOM      5  N   UNL     1      -8.389 -10.166  13.769  0.00  0.00    -0.311 N 
ATOM     14  C   UNL     1      -8.916 -10.476  12.523  0.00  0.00    +0.214 C 
ATOM     30  H   UNL     1      -7.380 -10.095  13.867  0.00  0.00    +0.149 HD
BRANCH   5  16
ATOM     16  C   UNL     1      -9.208  -9.936  14.936  0.00  0.00    +0.026 C 
ATOM     18  C   UNL     1     -10.484 -10.779  14.834  0.00  0.00    +0.031 C 
ATOM     19  C   UNL     1      -8.421 -10.338  16.188  0.00  0.00    +0.031 C 
ATOM     20  C   UNL     1      -9.579  -8.450  15.012  0.00  0.00    +0.031 C 
ENDBRANCH   5  16
ENDBRANCH  11  14
ENDBRANCH   7  11
BRANCH   8  13
ATOM     13  C   UNL     1      -4.936 -10.711  10.553  0.00  0.00    +0.064 C 
BRANCH  13  15
ATOM      2  O   UNL     1      -2.013 -10.085  12.560  0.00  0.00    -0.354 OA
ATOM      6  N   UNL     1      -3.247 -10.683  12.338  0.00  0.00    -0.083 NA
ATOM     15  C   UNL     1      -3.626 -10.258  11.130  0.00  0.00    +0.085 A 
ATOM     17  C   UNL     1      -2.680  -9.396  10.547  0.00  0.00    +0.076 A 
ATOM     21  C   UNL     1      -1.686  -9.320  11.487  0.00  0.00    +0.167 A 
BRANCH  21  22
ATOM     22  C   UNL     1      -0.429  -8.636  11.571  0.00  0.00    +0.020 A 
ATOM     23  C   UNL     1       0.585  -8.924  10.658  0.00  0.00    +0.015 A 
ATOM     24  C   UNL     1      -0.222  -7.679  12.565  0.00  0.00    +0.015 A 
ATOM     25  C   UNL     1       1.807  -8.257  10.739  0.00  0.00    +0.046 A 
ATOM     26  C   UNL     1       1.000  -7.012  12.646  0.00  0.00    +0.046 A 
ATOM     27  C   UNL     1       2.014  -7.301  11.733  0.00  0.00    +0.120 A 
BRANCH  27   3
ATOM      3  O   UNL     1       3.206  -6.648  11.810  0.00  0.00    -0.495 OA
ATOM     28  C   UNL     1       4.290  -7.344  12.426  0.00  0.00    +0.277 C 
ENDBRANCH  27   3
ENDBRANCH  21  22
ENDBRANCH  13  15
ENDBRANCH   8  13
TORSDOF 7
ENDMDL
MODEL 2
REMARK VINA RESULT:      -0.8     14.755     16.436
REMARK  Name = 40777506
REMARK  11 active torsions:
REMARK  status: ('A' for Active; 'I' for Inactive)
REMARK    1  A    between atoms: O_3  and  C_27
REMARK    2  A    between atoms: O_3  and  C_28
REMARK    3  A    between atoms: N_5  and  C_16
REMARK    4  A    between atoms: C_7  and  C_11
REMARK    5  A    between atoms: C_8  and  C_13
REMARK    6  A    between atoms: C_11  and  C_14
REMARK    7  A    between atoms: C_13  and  C_15
REMARK    8  A    between atoms: C_16  and  C_18
REMARK    9  A    between atoms: C_16  and  C_19
REMARK   10  A    between atoms: C_16  and  C_20
REMARK   11  A    between atoms: C_21  and  C_22
REMARK                            x       y       z     vdW  Elec       q    Type
REMARK                         _______ _______ _______ _____ _____    ______ ____
ROOT
ATOM      4  N   UNL     1      -2.124  -2.856  24.556  0.00  0.00    -0.316 NA
ATOM      7  C   UNL     1      -4.123  -0.769  23.958  0.00  0.00    +0.004 C 
ATOM      8  C   UNL     1      -2.609  -0.576  23.698  0.00  0.00    +0.012 C 
ATOM      9  C   UNL     1      -4.446  -2.272  23.949  0.00  0.00    +0.019 C 
ATOM     10  C   UNL     1      -1.756  -1.442  24.641  0.00  0.00    +0.085 C 
ATOM     12  C   UNL     1      -3.532  -3.072  24.877  0.00  0.00    +0.081 C 
ATOM     29  H   UNL     1      -1.545  -3.395  25.198  0.00  0.00    +0.122 HD
ENDROOT
BRANCH   7  11
ATOM     11  C   UNL     1      -4.621  -0.111  25.251  0.00  0.00    +0.099 C 
BRANCH  11  14
ATOM      1  O   UNL     1      -6.164   1.647  24.635  0.00  0.00    -0.276 OA
ATOM      5  N   UNL     1      -4.023   2.206  25.346  0.00  0.00    -0.311 N 
ATOM     14  C   UNL     1      -5.049   1.325  25.035  0.00  0.00    +0.214 C 
ATOM     30  H   UNL     1      -3.137   1.827  25.669  0.00  0.00    +0.149 HD
BRANCH   5  16
ATOM     16  C   UNL     1      -4.153   3.640  25.231  0.00  0.00    +0.026 C 
ATOM     18  C   UNL     1      -3.084   4.317  26.097  0.00  0.00    +0.031 C 
ATOM     19  C   UNL     1      -3.965   4.045  23.765  0.00  0.00    +0.031 C 
ATOM     20  C   UNL     1      -5.547   4.063  25.711  0.00  0.00    +0.031 C 
ENDBRANCH   5  16
ENDBRANCH  11  14
ENDBRANCH   7  11
BRANCH   8  13
ATOM     13  C   UNL     1      -2.170   0.887  23.768  0.00  0.00    +0.064 C 
BRANCH  13  15
ATOM      2  O   UNL     1       1.267   1.905  24.105  0.00  0.00    -0.354 OA
ATOM      6  N   UNL     1      -0.099   2.121  24.241  0.00  0.00    -0.083 NA
ATOM     15  C   UNL     1      -0.674   1.010  23.775  0.00  0.00    +0.085 A 
ATOM     17  C   UNL     1       0.269   0.065  23.334  0.00  0.00    +0.076 A 
ATOM     21  C   UNL     1       1.474   0.677  23.563  0.00  0.00    +0.167 A 
BRANCH  21  22
ATOM     22  C   UNL     1       2.845   0.310  23.362  0.00  0.00    +0.020 A 
ATOM     23  C   UNL     1       3.294  -0.952  23.752  0.00  0.00    +0.015 A 
ATOM     24  C   UNL     1       3.729   1.214  22.773  0.00  0.00    +0.015 A 
ATOM     25  C   UNL     1       4.627  -1.310  23.555  0.00  0.00    +0.046 A 
ATOM     26  C   UNL     1       5.063   0.856  22.576  0.00  0.00    +0.046 A 
ATOM     27  C   UNL     1       5.512  -0.405  22.966  0.00  0.00    +0.120 A 
BRANCH  27   3
ATOM      3  O   UNL     1       6.813  -0.756  22.772  0.00  0.00    -0.495 OA
ATOM     28  C   UNL     1       7.798  -0.028  23.504  0.00  0.00    +0.277 C 
ENDBRANCH  27   3
ENDBRANCH  21  22
ENDBRANCH  13  15
ENDBRANCH   8  13
TORSDOF 7
ENDMDL
MODEL 3
REMARK VINA RESULT:      -0.3     15.061     17.007
REMARK  Name = 40777506
REMARK  11 active torsions:
REMARK  status: ('A' for Active; 'I' for Inactive)
REMARK    1  A    between atoms: O_3  and  C_27
REMARK    2  A    between atoms: O_3  and  C_28
REMARK    3  A    between atoms: N_5  and  C_16
REMARK    4  A    between atoms: C_7  and  C_11
REMARK    5  A    between atoms: C_8  and  C_13
REMARK    6  A    between atoms: C_11  and  C_14
REMARK    7  A    between atoms: C_13  and  C_15
REMARK    8  A    between atoms: C_16  and  C_18
REMARK    9  A    between atoms: C_16  and  C_19
REMARK   10  A    between atoms: C_16  and  C_20
REMARK   11  A    between atoms: C_21  and  C_22
REMARK                            x       y       z     vdW  Elec       q    Type
REMARK                         _______ _______ _______ _____ _____    ______ ____
ROOT
ATOM      4  N   UNL     1      -6.471   3.745  25.807  0.00  0.00    -0.316 NA
ATOM      7  C   UNL     1      -4.052   2.095  25.438  0.00  0.00    +0.004 C 
ATOM      8  C   UNL     1      -4.005   3.639  25.530  0.00  0.00    +0.012 C 
ATOM      9  C   UNL     1      -5.317   1.588  26.151  0.00  0.00    +0.019 C 
ATOM     10  C   UNL     1      -5.326   4.276  25.067  0.00  0.00    +0.085 C 
ATOM     12  C   UNL     1      -6.582   2.295  25.668  0.00  0.00    +0.081 C 
ATOM     29  H   UNL     1      -7.326   4.183  25.467  0.00  0.00    +0.122 HD
ENDROOT
BRANCH   7  11
ATOM     11  C   UNL     1      -3.980   1.554  24.005  0.00  0.00    +0.099 C 
BRANCH  11  14
ATOM      1  O   UNL     1      -4.098  -0.724  23.200  0.00  0.00    -0.276 OA
ATOM      5  N   UNL     1      -2.598  -0.190  24.894  0.00  0.00    -0.311 N 
ATOM     14  C   UNL     1      -3.590   0.091  23.964  0.00  0.00    +0.214 C 
ATOM     30  H   UNL     1      -2.250   0.565  25.477  0.00  0.00    +0.149 HD
BRANCH   5  16
ATOM     16  C   UNL     1      -2.037  -1.508  25.074  0.00  0.00    +0.026 C 
ATOM     18  C   UNL     1      -1.468  -2.004  23.739  0.00  0.00    +0.031 C 
ATOM     19  C   UNL     1      -0.920  -1.439  26.120  0.00  0.00    +0.031 C 
ATOM     20  C   UNL     1      -3.136  -2.466  25.551  0.00  0.00    +0.031 C 
ENDBRANCH   5  16
ENDBRANCH  11  14
ENDBRANCH   7  11
BRANCH   8  13
ATOM     13  C   UNL     1      -2.821   4.249  24.779  0.00  0.00    +0.064 C 
BRANCH  13  15
ATOM      2  O   UNL     1      -0.171   1.949  25.584  0.00  0.00    -0.354 OA
ATOM      6  N   UNL     1      -1.290   2.701  25.918  0.00  0.00    -0.083 NA
ATOM     15  C   UNL     1      -1.633   3.331  24.792  0.00  0.00    +0.085 A 
ATOM     17  C   UNL     1      -0.774   3.020  23.723  0.00  0.00    +0.076 A 
ATOM     21  C   UNL     1       0.128   2.147  24.274  0.00  0.00    +0.167 A 
BRANCH  21  22
ATOM     22  C   UNL     1       1.267   1.431  23.781  0.00  0.00    +0.020 A 
ATOM     23  C   UNL     1       2.438   2.118  23.459  0.00  0.00    +0.015 A 
ATOM     24  C   UNL     1       1.206   0.046  23.625  0.00  0.00    +0.015 A 
ATOM     25  C   UNL     1       3.547   1.421  22.980  0.00  0.00    +0.046 A 
ATOM     26  C   UNL     1       2.314  -0.651  23.146  0.00  0.00    +0.046 A 
ATOM     27  C   UNL     1       3.485   0.036  22.824  0.00  0.00    +0.120 A 
BRANCH  27   3
ATOM      3  O   UNL     1       4.568  -0.645  22.359  0.00  0.00    -0.495 OA
ATOM     28  C   UNL     1       5.809  -0.427  23.029  0.00  0.00    +0.277 C 
ENDBRANCH  27   3
ENDBRANCH  21  22
ENDBRANCH  13  15
ENDBRANCH   8  13
TORSDOF 7
ENDMDL
MODEL 4
REMARK VINA RESULT:       0.1     14.964     16.467
REMARK  Name = 40777506
REMARK  11 active torsions:
REMARK  status: ('A' for Active; 'I' for Inactive)
REMARK    1  A    between atoms: O_3  and  C_27
REMARK    2  A    between atoms: O_3  and  C_28
REMARK    3  A    between atoms: N_5  and  C_16
REMARK    4  A    between atoms: C_7  and  C_11
REMARK    5  A    between atoms: C_8  and  C_13
REMARK    6  A    between atoms: C_11  and  C_14
REMARK    7  A    between atoms: C_13  and  C_15
REMARK    8  A    between atoms: C_16  and  C_18
REMARK    9  A    between atoms: C_16  and  C_19
REMARK   10  A    between atoms: C_16  and  C_20
REMARK   11  A    between atoms: C_21  and  C_22
REMARK                            x       y       z     vdW  Elec       q    Type
REMARK                         _______ _______ _______ _____ _____    ______ ____
ROOT
ATOM      4  N   UNL     1      -4.770   4.581  24.384  0.00  0.00    -0.316 NA
ATOM      7  C   UNL     1      -3.904   1.872  25.171  0.00  0.00    +0.004 C 
ATOM      8  C   UNL     1      -3.174   2.701  24.087  0.00  0.00    +0.012 C 
ATOM      9  C   UNL     1      -4.646   2.828  26.120  0.00  0.00    +0.019 C 
ATOM     10  C   UNL     1      -4.120   3.705  23.408  0.00  0.00    +0.085 C 
ATOM     12  C   UNL     1      -5.533   3.822  25.372  0.00  0.00    +0.081 C 
ATOM     29  H   UNL     1      -5.393   5.225  23.898  0.00  0.00    +0.122 HD
ENDROOT
BRANCH   7  11
ATOM     11  C   UNL     1      -4.860   0.813  24.607  0.00  0.00    +0.099 C 
BRANCH  11  14
ATOM      1  O   UNL     1      -4.692  -1.482  23.864  0.00  0.00    -0.276 OA
ATOM      5  N   UNL     1      -2.998  -0.583  25.176  0.00  0.00    -0.311 N 
ATOM     14  C   UNL     1      -4.204  -0.546  24.490  0.00  0.00    +0.214 C 
ATOM     30  H   UNL     1      -2.689   0.255  25.662  0.00  0.00    +0.149 HD
BRANCH   5  16
ATOM     16  C   UNL     1      -2.159  -1.757  25.235  0.00  0.00    +0.026 C 
ATOM     18  C   UNL     1      -1.923  -2.283  23.814  0.00  0.00    +0.031 C 
ATOM     19  C   UNL     1      -0.820  -1.384  25.880  0.00  0.00    +0.031 C 
ATOM     20  C   UNL     1      -2.856  -2.836  26.073  0.00  0.00    +0.031 C 
ENDBRANCH   5  16
ENDBRANCH  11  14
ENDBRANCH   7  11
BRANCH   8  13
ATOM     13  C   UNL     1      -2.470   1.835  23.042  0.00  0.00    +0.064 C 
BRANCH  13  15
ATOM      2  O   UNL     1       0.899   2.069  24.290  0.00  0.00    -0.354 OA
ATOM      6  N   UNL     1      -0.423   2.493  24.232  0.00  0.00    -0.083 NA
ATOM     15  C   UNL     1      -1.012   1.670  23.360  0.00  0.00    +0.085 A 
ATOM     17  C   UNL     1      -0.120   0.716  22.840  0.00  0.00    +0.076 A 
ATOM     21  C   UNL     1       1.068   1.011  23.457  0.00  0.00    +0.167 A 
BRANCH  21  22
ATOM     22  C   UNL     1       2.391   0.461  23.411  0.00  0.00    +0.020 A 
ATOM     23  C   UNL     1       3.472   1.272  23.067  0.00  0.00    +0.015 A 
ATOM     24  C   UNL     1       2.596  -0.886  23.712  0.00  0.00    +0.015 A 
ATOM     25  C   UNL     1       4.759   0.737  23.023  0.00  0.00    +0.046 A 
ATOM     26  C   UNL     1       3.883  -1.421  23.668  0.00  0.00    +0.046 A 
ATOM     27  C   UNL     1       4.965  -0.610  23.324  0.00  0.00    +0.120 A 
BRANCH  27   3
ATOM      3  O   UNL     1       6.221  -1.132  23.284  0.00  0.00    -0.495 OA
ATOM     28  C   UNL     1       7.297  -0.220  23.068  0.00  0.00    +0.277 C 
ENDBRANCH  27   3
ENDBRANCH  21  22
ENDBRANCH  13  15
ENDBRANCH   8  13
TORSDOF 7
ENDMDL
MODEL 5
REMARK VINA RESULT:       1.6     14.775     16.723
REMARK  Name = 40777506
REMARK  11 active torsions:
REMARK  status: ('A' for Active; 'I' for Inactive)
REMARK    1  A    between atoms: O_3  and  C_27
REMARK    2  A    between atoms: O_3  and  C_28
REMARK    3  A    between atoms: N_5  and  C_16
REMARK    4  A    between atoms: C_7  and  C_11
REMARK    5  A    between atoms: C_8  and  C_13
REMARK    6  A    between atoms: C_11  and  C_14
REMARK    7  A    between atoms: C_13  and  C_15
REMARK    8  A    between atoms: C_16  and  C_18
REMARK    9  A    between atoms: C_16  and  C_19
REMARK   10  A    between atoms: C_16  and  C_20
REMARK   11  A    between atoms: C_21  and  C_22
REMARK                            x       y       z     vdW  Elec       q    Type
REMARK                         _______ _______ _______ _____ _____    ______ ____
ROOT
ATOM      4  N   UNL     1      -1.663   5.267  24.938  0.00  0.00    -0.316 NA
ATOM      7  C   UNL     1      -2.485   2.487  25.493  0.00  0.00    +0.004 C 
ATOM      8  C   UNL     1      -1.526   2.861  24.338  0.00  0.00    +0.012 C 
ATOM      9  C   UNL     1      -2.415   3.577  26.576  0.00  0.00    +0.019 C 
ATOM     10  C   UNL     1      -1.762   4.298  23.846  0.00  0.00    +0.085 C 
ATOM     12  C   UNL     1      -2.618   4.980  26.006  0.00  0.00    +0.081 C 
ATOM     29  H   UNL     1      -1.833   6.204  24.576  0.00  0.00    +0.122 HD
ENDROOT
BRANCH   7  11
ATOM     11  C   UNL     1      -3.934   2.253  25.048  0.00  0.00    +0.099 C 
BRANCH  11  14
ATOM      1  O   UNL     1      -5.439   0.360  25.019  0.00  0.00    -0.276 OA
ATOM      5  N   UNL     1      -3.146  -0.006  24.927  0.00  0.00    -0.311 N 
ATOM     14  C   UNL     1      -4.287   0.781  24.998  0.00  0.00    +0.214 C 
ATOM     30  H   UNL     1      -2.238   0.452  24.917  0.00  0.00    +0.149 HD
BRANCH   5  16
ATOM     16  C   UNL     1      -3.185  -1.448  24.870  0.00  0.00    +0.026 C 
ATOM     18  C   UNL     1      -4.244  -1.887  23.852  0.00  0.00    +0.031 C 
ATOM     19  C   UNL     1      -1.809  -1.971  24.444  0.00  0.00    +0.031 C 
ATOM     20  C   UNL     1      -3.544  -2.002  26.255  0.00  0.00    +0.031 C 
ENDBRANCH   5  16
ENDBRANCH  11  14
ENDBRANCH   7  11
BRANCH   8  13
ATOM     13  C   UNL     1      -1.582   1.876  23.169  0.00  0.00    +0.064 C 
BRANCH  13  15
ATOM      2  O   UNL     1       1.073  -0.415  22.356  0.00  0.00    -0.354 OA
ATOM      6  N   UNL     1      -0.244   0.019  22.276  0.00  0.00    -0.083 NA
ATOM     15  C   UNL     1      -0.291   1.124  23.024  0.00  0.00    +0.085 A 
ATOM     17  C   UNL     1       0.955   1.434  23.597  0.00  0.00    +0.076 A 
ATOM     21  C   UNL     1       1.777   0.435  23.146  0.00  0.00    +0.167 A 
BRANCH  21  22
ATOM     22  C   UNL     1       3.163   0.114  23.324  0.00  0.00    +0.020 A 
ATOM     23  C   UNL     1       4.139   1.086  23.101  0.00  0.00    +0.015 A 
ATOM     24  C   UNL     1       3.535  -1.170  23.723  0.00  0.00    +0.015 A 
ATOM     25  C   UNL     1       5.487   0.774  23.275  0.00  0.00    +0.046 A 
ATOM     26  C   UNL     1       4.884  -1.482  23.897  0.00  0.00    +0.046 A 
ATOM     27  C   UNL     1       5.859  -0.510  23.674  0.00  0.00    +0.120 A 
BRANCH  27   3
ATOM      3  O   UNL     1       7.175  -0.814  23.847  0.00  0.00    -0.495 OA
ATOM     28  C   UNL     1       8.060  -0.503  22.772  0.00  0.00    +0.277 C 
ENDBRANCH  27   3
ENDBRANCH  21  22
ENDBRANCH  13  15
ENDBRANCH   8  13
TORSDOF 7
ENDMDL
MODEL 6
REMARK VINA RESULT:       2.8     14.870     16.840
REMARK  Name = 40777506
REMARK  11 active torsions:
REMARK  status: ('A' for Active; 'I' for Inactive)
REMARK    1  A    between atoms: O_3  and  C_27
REMARK    2  A    between atoms: O_3  and  C_28
REMARK    3  A    between atoms: N_5  and  C_16
REMARK    4  A    between atoms: C_7  and  C_11
REMARK    5  A    between atoms: C_8  and  C_13
REMARK    6  A    between atoms: C_11  and  C_14
REMARK    7  A    between atoms: C_13  and  C_15
REMARK    8  A    between atoms: C_16  and  C_18
REMARK    9  A    between atoms: C_16  and  C_19
REMARK   10  A    between atoms: C_16  and  C_20
REMARK   11  A    between atoms: C_21  and  C_22
REMARK                            x       y       z     vdW  Elec       q    Type
REMARK                         _______ _______ _______ _____ _____    ______ ____
ROOT
ATOM      4  N   UNL     1      -2.766  -2.747  24.432  0.00  0.00    -0.316 NA
ATOM      7  C   UNL     1      -2.886   0.060  25.333  0.00  0.00    +0.004 C 
ATOM      8  C   UNL     1      -2.732  -0.334  23.845  0.00  0.00    +0.012 C 
ATOM      9  C   UNL     1      -3.554  -1.098  26.093  0.00  0.00    +0.019 C 
ATOM     10  C   UNL     1      -2.056  -1.707  23.688  0.00  0.00    +0.085 C 
ATOM     12  C   UNL     1      -2.852  -2.434  25.856  0.00  0.00    +0.081 C 
ATOM     29  H   UNL     1      -2.285  -3.637  24.311  0.00  0.00    +0.122 HD
ENDROOT
BRANCH   7  11
ATOM     11  C   UNL     1      -1.571   0.468  26.008  0.00  0.00    +0.099 C 
BRANCH  11  14
ATOM      1  O   UNL     1      -0.397   2.521  26.517  0.00  0.00    -0.276 OA
ATOM      5  N   UNL     1      -2.417   2.616  25.372  0.00  0.00    -0.311 N 
ATOM     14  C   UNL     1      -1.369   1.969  26.010  0.00  0.00    +0.214 C 
ATOM     30  H   UNL     1      -3.174   2.057  24.987  0.00  0.00    +0.149 HD
BRANCH   5  16
ATOM     16  C   UNL     1      -2.487   4.052  25.228  0.00  0.00    +0.026 C 
ATOM     18  C   UNL     1      -1.082   4.603  24.958  0.00  0.00    +0.031 C 
ATOM     19  C   UNL     1      -3.412   4.394  24.055  0.00  0.00    +0.031 C 
ATOM     20  C   UNL     1      -3.040   4.665  26.520  0.00  0.00    +0.031 C 
ENDBRANCH   5  16
ENDBRANCH  11  14
ENDBRANCH   7  11
BRANCH   8  13
ATOM     13  C   UNL     1      -2.002   0.723  23.016  0.00  0.00    +0.064 C 
BRANCH  13  15
ATOM      2  O   UNL     1       1.144  -0.572  21.837  0.00  0.00    -0.354 OA
ATOM      6  N   UNL     1      -0.234  -0.420  21.749  0.00  0.00    -0.083 NA
ATOM     15  C   UNL     1      -0.566   0.346  22.791  0.00  0.00    +0.085 A 
ATOM     17  C   UNL     1       0.550   0.706  23.566  0.00  0.00    +0.076 A 
ATOM     21  C   UNL     1       1.600   0.102  22.924  0.00  0.00    +0.167 A 
BRANCH  21  22
ATOM     22  C   UNL     1       3.014   0.038  23.147  0.00  0.00    +0.020 A 
ATOM     23  C   UNL     1       3.804   1.171  22.949  0.00  0.00    +0.015 A 
ATOM     24  C   UNL     1       3.600  -1.157  23.565  0.00  0.00    +0.015 A 
ATOM     25  C   UNL     1       5.180   1.108  23.167  0.00  0.00    +0.046 A 
ATOM     26  C   UNL     1       4.976  -1.220  23.783  0.00  0.00    +0.046 A 
ATOM     27  C   UNL     1       5.766  -0.087  23.585  0.00  0.00    +0.120 A 
BRANCH  27   3
ATOM      3  O   UNL     1       7.109  -0.148  23.801  0.00  0.00    -0.495 OA
ATOM     28  C   UNL     1       7.905  -0.743  22.777  0.00  0.00    +0.277 C 
ENDBRANCH  27   3
ENDBRANCH  21  22
ENDBRANCH  13  15
ENDBRANCH   8  13
TORSDOF 7
ENDMDL
