MODEL 1
REMARK VINA RESULT:      -1.5      0.000      0.000
REMARK  Name = 75368597
REMARK  4 active torsions:
REMARK  status: ('A' for Active; 'I' for Inactive)
REMARK    1  A    between atoms: N_3  and  C_9
REMARK    2  A    between atoms: N_5  and  C_19
REMARK    3  A    between atoms: C_19  and  C_21
REMARK    4  A    between atoms: C_20  and  C_22
REMARK                            x       y       z     vdW  Elec       q    Type
REMARK                         _______ _______ _______ _____ _____    ______ ____
ROOT
ATOM      1  O   UNL     1     -10.136 -10.781  10.493  0.00  0.00    -0.252 OA
ATOM      3  N   UNL     1      -5.230  -9.508  10.759  0.00  0.00    -0.296 NA
ATOM      4  N   UNL     1      -8.029  -9.792  10.802  0.00  0.00    -0.278 N 
ATOM      5  N   UNL     1      -9.530  -9.638  12.465  0.00  0.00    -0.278 N 
ATOM      8  C   UNL     1      -7.393  -8.941  11.787  0.00  0.00    +0.109 C 
ATOM     10  C   UNL     1      -5.958  -9.399  12.040  0.00  0.00    +0.108 C 
ATOM     11  C   UNL     1      -5.884 -10.483   9.863  0.00  0.00    +0.104 C 
ATOM     12  C   UNL     1      -7.333 -10.087   9.567  0.00  0.00    +0.125 C 
ATOM     13  C   UNL     1      -8.320  -9.034  12.997  0.00  0.00    +0.133 C 
ATOM     16  C   UNL     1      -9.334 -10.147  11.166  0.00  0.00    +0.306 C 
ENDROOT
BRANCH   3   9
ATOM      2  O   UNL     1      -0.172  -8.936  14.208  0.00  0.00    -0.276 OA
ATOM      6  N   UNL     1      -1.260  -9.361  12.199  0.00  0.00    -0.302 N 
ATOM      9  C   UNL     1      -3.840  -9.888  10.995  0.00  0.00    +0.060 C 
ATOM     14  C   UNL     1      -2.897  -8.812  10.439  0.00  0.00    +0.038 C 
ATOM     15  C   UNL     1      -3.596 -10.088  12.497  0.00  0.00    +0.038 C 
ATOM     17  C   UNL     1      -1.440  -9.141  10.759  0.00  0.00    +0.109 C 
ATOM     18  C   UNL     1      -2.125 -10.392  12.776  0.00  0.00    +0.109 C 
ATOM     20  C   UNL     1      -0.329  -8.706  13.006  0.00  0.00    +0.212 C 
ATOM     22  C   UNL     1       0.523  -7.657  12.338  0.00  0.00    +0.109 C 
ENDBRANCH   3   9
BRANCH   5  19
ATOM     19  C   UNL     1     -10.719  -9.808  13.270  0.00  0.00    +0.164 C 
BRANCH  19  21
ATOM      7  N   UNL     1     -10.717  -7.826  14.674  0.00  0.00    -0.258 NA
ATOM     21  C   UNL     1     -10.578  -9.169  14.622  0.00  0.00    +0.059 A 
ATOM     23  C   UNL     1     -10.320  -9.966  15.726  0.00  0.00    +0.025 A 
ATOM     24  C   UNL     1     -10.196  -9.343  16.963  0.00  0.00    +0.003 A 
ATOM     25  C   UNL     1     -10.590  -7.256  15.894  0.00  0.00    +0.111 A 
ATOM     26  C   UNL     1     -10.333  -7.963  17.057  0.00  0.00    +0.020 A 
ENDBRANCH  19  21
ENDBRANCH   5  19
TORSDOF 3
ENDMDL
MODEL 2
REMARK VINA RESULT:      -1.1      2.235      7.690
REMARK  Name = 75368597
REMARK  4 active torsions:
REMARK  status: ('A' for Active; 'I' for Inactive)
REMARK    1  A    between atoms: N_3  and  C_9
REMARK    2  A    between atoms: N_5  and  C_19
REMARK    3  A    between atoms: C_19  and  C_21
REMARK    4  A    between atoms: C_20  and  C_22
REMARK                            x       y       z     vdW  Elec       q    Type
REMARK                         _______ _______ _______ _____ _____    ______ ____
ROOT
ATOM      1  O   UNL     1      -4.291  -8.381   9.067  0.00  0.00    -0.252 OA
ATOM      3  N   UNL     1      -8.144 -10.343  11.726  0.00  0.00    -0.296 NA
ATOM      4  N   UNL     1      -5.830  -9.689  10.265  0.00  0.00    -0.278 N 
ATOM      5  N   UNL     1      -3.645  -9.928  10.725  0.00  0.00    -0.278 N 
ATOM      8  C   UNL     1      -5.776 -10.781  11.215  0.00  0.00    +0.109 C 
ATOM     10  C   UNL     1      -6.812 -10.577  12.320  0.00  0.00    +0.108 C 
ATOM     11  C   UNL     1      -8.133  -9.143  10.864  0.00  0.00    +0.104 C 
ATOM     12  C   UNL     1      -7.112  -9.278   9.731  0.00  0.00    +0.125 C 
ATOM     13  C   UNL     1      -4.324 -10.779  11.688  0.00  0.00    +0.133 C 
ATOM     16  C   UNL     1      -4.556  -9.228   9.909  0.00  0.00    +0.306 C 
ENDROOT
BRANCH   3   9
ATOM      2  O   UNL     1     -10.624  -6.890  16.167  0.00  0.00    -0.276 OA
ATOM      6  N   UNL     1     -10.103  -8.935  15.195  0.00  0.00    -0.302 N 
ATOM      9  C   UNL     1      -9.151 -10.206  12.774  0.00  0.00    +0.060 C 
ATOM     14  C   UNL     1      -8.535 -10.521  14.143  0.00  0.00    +0.038 C 
ATOM     15  C   UNL     1      -9.732  -8.786  12.763  0.00  0.00    +0.038 C 
ATOM     17  C   UNL     1      -9.546 -10.291  15.266  0.00  0.00    +0.109 C 
ATOM     18  C   UNL     1     -10.720  -8.590  13.912  0.00  0.00    +0.109 C 
ATOM     20  C   UNL     1     -10.115  -8.011  16.241  0.00  0.00    +0.212 C 
ATOM     22  C   UNL     1      -9.458  -8.440  17.528  0.00  0.00    +0.109 C 
ENDBRANCH   3   9
BRANCH   5  19
ATOM     19  C   UNL     1      -2.211  -9.743  10.744  0.00  0.00    +0.164 C 
BRANCH  19  21
ATOM      7  N   UNL     1      -1.999 -10.681  12.975  0.00  0.00    -0.258 NA
ATOM     21  C   UNL     1      -1.674  -9.665  12.145  0.00  0.00    +0.059 A 
ATOM     23  C   UNL     1      -0.888  -8.584  12.511  0.00  0.00    +0.025 A 
ATOM     24  C   UNL     1      -0.406  -8.544  13.815  0.00  0.00    +0.003 A 
ATOM     25  C   UNL     1      -1.513 -10.606  14.234  0.00  0.00    +0.111 A 
ATOM     26  C   UNL     1      -0.719  -9.570  14.699  0.00  0.00    +0.020 A 
ENDBRANCH  19  21
ENDBRANCH   5  19
TORSDOF 3
ENDMDL
