MODEL 1
REMARK VINA RESULT:      -0.9      0.000      0.000
REMARK  Name = 7682251
REMARK  3 active torsions:
REMARK  status: ('A' for Active; 'I' for Inactive)
REMARK    1  A    between atoms: N_4  and  C_13
REMARK    2  A    between atoms: C_13  and  C_17
REMARK    3  A    between atoms: C_14  and  C_19
REMARK                            x       y       z     vdW  Elec       q    Type
REMARK                         _______ _______ _______ _____ _____    ______ ____
ROOT
ATOM      3  O   UNL     1      -3.981   4.612  25.158  0.00  0.00    -0.268 OA
ATOM      4  N   UNL     1      -0.097   1.770  23.891  0.00  0.00    -0.294 NA
ATOM      5  N   UNL     1      -2.774   2.617  25.381  0.00  0.00    -0.311 N 
ATOM      6  C   UNL     1      -0.354   2.602  26.235  0.00  0.00    +0.024 C 
ATOM      7  C   UNL     1      -1.432   0.503  25.587  0.00  0.00    +0.051 C 
ATOM      8  C   UNL     1      -0.696   1.205  26.725  0.00  0.00    +0.017 C 
ATOM      9  C   UNL     1       0.535   2.527  24.977  0.00  0.00    +0.090 C 
ATOM     10  C   UNL     1      -0.511   0.435  24.344  0.00  0.00    +0.094 C 
ATOM     11  C   UNL     1      -1.658   3.361  25.983  0.00  0.00    +0.130 C 
ATOM     12  C   UNL     1      -2.750   1.212  25.251  0.00  0.00    +0.034 A 
ATOM     14  C   UNL     1      -3.861   0.554  24.826  0.00  0.00    +0.009 A 
ATOM     15  C   UNL     1      -3.903   3.387  25.052  0.00  0.00    +0.252 A 
ATOM     16  C   UNL     1      -5.043   1.318  24.473  0.00  0.00    +0.016 A 
ATOM     18  C   UNL     1      -5.086   2.648  24.556  0.00  0.00    +0.071 A 
ENDROOT
BRANCH  14  19
ATOM      1  S   UNL     1      -3.212  -1.827  25.977  0.00  0.00    -0.097 S 
ATOM     19  C   UNL     1      -3.867  -0.879  24.710  0.00  0.00    +0.021 A 
ATOM     21  C   UNL     1      -4.345  -1.655  23.678  0.00  0.00    +0.016 A 
ATOM     24  C   UNL     1      -4.172  -3.047  23.931  0.00  0.00    +0.008 A 
ATOM     25  C   UNL     1      -3.567  -3.281  25.146  0.00  0.00    +0.046 A 
ENDBRANCH  14  19
BRANCH   4  13
ATOM     13  C   UNL     1       0.788   1.678  22.732  0.00  0.00    +0.158 C 
BRANCH  13  17
ATOM      2  O   UNL     1       3.159   1.506  23.069  0.00  0.00    -0.458 OA
ATOM     17  C   UNL     1       1.997   0.833  23.014  0.00  0.00    +0.120 A 
ATOM     20  C   UNL     1       2.145  -0.497  23.225  0.00  0.00    +0.054 A 
ATOM     22  C   UNL     1       3.535  -0.691  23.437  0.00  0.00    +0.020 A 
ATOM     23  C   UNL     1       4.114   0.569  23.331  0.00  0.00    +0.135 A 
ATOM     26  C   UNL     1       4.367  -1.792  23.707  0.00  0.00    +0.011 A 
ATOM     27  C   UNL     1       5.478   0.817  23.476  0.00  0.00    +0.047 A 
ATOM     28  C   UNL     1       5.744  -1.575  23.856  0.00  0.00    +0.001 A 
ATOM     29  C   UNL     1       6.287  -0.292  23.742  0.00  0.00    +0.004 A 
ENDBRANCH  13  17
ENDBRANCH   4  13
TORSDOF 3
ENDMDL
