MODEL 1
REMARK VINA RESULT:      -4.0      0.000      0.000
REMARK  Name = 75536081
REMARK  6 active torsions:
REMARK  status: ('A' for Active; 'I' for Inactive)
REMARK    1  A    between atoms: O_1  and  C_9
REMARK    2  A    between atoms: O_2  and  C_11
REMARK    3  A    between atoms: N_4  and  C_8
REMARK    4  A    between atoms: C_7  and  C_12
REMARK    5  A    between atoms: C_15  and  C_17
REMARK    6  A    between atoms: C_21  and  C_24
REMARK                            x       y       z     vdW  Elec       q    Type
REMARK                         _______ _______ _______ _____ _____    ______ ____
ROOT
ATOM      7  C   UNL     1      -8.115  -9.174  14.829  0.00  0.00    +0.046 C 
ATOM      8  C   UNL     1      -7.379 -10.228  15.688  0.00  0.00    +0.112 C 
ATOM      9  C   UNL     1      -7.610  -9.742  17.118  0.00  0.00    +0.164 C 
ATOM     10  C   UNL     1      -9.174  -8.532  15.762  0.00  0.00    +0.044 C 
ATOM     11  C   UNL     1      -9.058  -9.269  17.095  0.00  0.00    +0.145 C 
ENDROOT
BRANCH   7  12
ATOM      5  N   UNL     1      -8.352 -10.315  11.219  0.00  0.00    -0.263 NA
ATOM     12  C   UNL     1      -8.678  -9.746  13.546  0.00  0.00    -0.024 A 
ATOM     13  C   UNL     1      -9.985 -10.216  13.484  0.00  0.00    +0.007 A 
ATOM     14  C   UNL     1      -7.909  -9.817  12.395  0.00  0.00    +0.114 A 
ATOM     16  C   UNL     1     -10.477 -10.735  12.291  0.00  0.00    +0.020 A 
ATOM     18  C   UNL     1      -9.627 -10.762  11.197  0.00  0.00    +0.111 A 
ENDBRANCH   7  12
BRANCH   8   4
ATOM      3  O   UNL     1      -5.230 -10.781  17.510  0.00  0.00    -0.270 OA
ATOM      4  N   UNL     1      -5.977 -10.305  15.366  0.00  0.00    -0.305 N 
ATOM     15  C   UNL     1      -5.005 -10.580  16.320  0.00  0.00    +0.244 C 
ATOM     25  H   UNL     1      -5.717 -10.127  14.402  0.00  0.00    +0.149 HD
BRANCH  15  17
ATOM     17  C   UNL     1      -3.602 -10.599  15.833  0.00  0.00    +0.038 A 
ATOM     19  C   UNL     1      -3.337 -10.495  14.467  0.00  0.00    +0.032 A 
ATOM     20  C   UNL     1      -2.550 -10.719  16.741  0.00  0.00    +0.013 A 
ATOM     21  C   UNL     1      -2.019 -10.513  14.010  0.00  0.00    +0.052 A 
ATOM     22  C   UNL     1      -1.232 -10.737  16.283  0.00  0.00    +0.002 A 
ATOM     23  C   UNL     1      -0.967 -10.633  14.918  0.00  0.00    +0.019 A 
BRANCH  21  24
ATOM      6  N   UNL     1      -1.524 -10.317  11.475  0.00  0.00    -0.191 NA
ATOM     24  C   UNL     1      -1.746 -10.405  12.611  0.00  0.00    +0.099 C 
ENDBRANCH  21  24
ENDBRANCH  15  17
ENDBRANCH   8   4
BRANCH   9   1
ATOM      1  O   UNL     1      -7.424 -10.773  18.071  0.00  0.00    -0.387 OA
ATOM     26  H   UNL     1      -6.484 -11.020  18.055  0.00  0.00    +0.210 HD
ENDBRANCH   9   1
BRANCH  11   2
ATOM      2  O   UNL     1      -9.956 -10.374  17.086  0.00  0.00    -0.389 OA
ATOM     27  H   UNL     1     -10.690 -10.148  16.489  0.00  0.00    +0.210 HD
ENDBRANCH  11   2
TORSDOF 6
ENDMDL
MODEL 2
REMARK VINA RESULT:      -3.3     14.158     15.580
REMARK  Name = 75536081
REMARK  6 active torsions:
REMARK  status: ('A' for Active; 'I' for Inactive)
REMARK    1  A    between atoms: O_1  and  C_9
REMARK    2  A    between atoms: O_2  and  C_11
REMARK    3  A    between atoms: N_4  and  C_8
REMARK    4  A    between atoms: C_7  and  C_12
REMARK    5  A    between atoms: C_15  and  C_17
REMARK    6  A    between atoms: C_21  and  C_24
REMARK                            x       y       z     vdW  Elec       q    Type
REMARK                         _______ _______ _______ _____ _____    ______ ____
ROOT
ATOM      7  C   UNL     1      -3.116   1.345  23.753  0.00  0.00    +0.046 C 
ATOM      8  C   UNL     1      -1.876   1.963  24.438  0.00  0.00    +0.112 C 
ATOM      9  C   UNL     1      -2.179   3.461  24.434  0.00  0.00    +0.164 C 
ATOM     10  C   UNL     1      -4.259   2.377  23.934  0.00  0.00    +0.044 C 
ATOM     11  C   UNL     1      -3.665   3.515  24.762  0.00  0.00    +0.145 C 
ENDROOT
BRANCH   7  12
ATOM      5  N   UNL     1      -3.516  -1.606  26.103  0.00  0.00    -0.263 NA
ATOM     12  C   UNL     1      -3.442  -0.044  24.259  0.00  0.00    -0.024 A 
ATOM     13  C   UNL     1      -3.948  -1.018  23.406  0.00  0.00    +0.007 A 
ATOM     14  C   UNL     1      -3.246  -0.385  25.588  0.00  0.00    +0.114 A 
ATOM     16  C   UNL     1      -4.238  -2.285  23.898  0.00  0.00    +0.020 A 
ATOM     18  C   UNL     1      -4.006  -2.527  25.243  0.00  0.00    +0.111 A 
ENDBRANCH   7  12
BRANCH   8   4
ATOM      3  O   UNL     1      -0.288  -0.414  24.705  0.00  0.00    -0.270 OA
ATOM      4  N   UNL     1      -0.659   1.658  23.731  0.00  0.00    -0.305 N 
ATOM     15  C   UNL     1       0.044   0.476  23.928  0.00  0.00    +0.244 C 
ATOM     25  H   UNL     1      -0.313   2.362  23.087  0.00  0.00    +0.149 HD
BRANCH  15  17
ATOM     17  C   UNL     1       1.295   0.324  23.141  0.00  0.00    +0.038 A 
ATOM     19  C   UNL     1       2.530   0.575  23.739  0.00  0.00    +0.032 A 
ATOM     20  C   UNL     1       1.235  -0.070  21.804  0.00  0.00    +0.013 A 
ATOM     21  C   UNL     1       3.704   0.432  23.000  0.00  0.00    +0.052 A 
ATOM     22  C   UNL     1       2.410  -0.213  21.065  0.00  0.00    +0.002 A 
ATOM     23  C   UNL     1       3.644   0.038  21.663  0.00  0.00    +0.019 A 
BRANCH  21  24
ATOM      6  N   UNL     1       5.998   0.895  24.111  0.00  0.00    -0.191 NA
ATOM     24  C   UNL     1       4.970   0.688  23.613  0.00  0.00    +0.099 C 
ENDBRANCH  21  24
ENDBRANCH  15  17
ENDBRANCH   8   4
BRANCH   9   1
ATOM      1  O   UNL     1      -1.416   4.165  25.396  0.00  0.00    -0.387 OA
ATOM     26  H   UNL     1      -1.551   5.115  25.238  0.00  0.00    +0.210 HD
ENDBRANCH   9   1
BRANCH  11   2
ATOM      2  O   UNL     1      -3.893   3.244  26.142  0.00  0.00    -0.389 OA
ATOM     27  H   UNL     1      -4.400   2.416  26.196  0.00  0.00    +0.210 HD
ENDBRANCH  11   2
TORSDOF 6
ENDMDL
MODEL 3
REMARK VINA RESULT:      -2.5     13.911     15.445
REMARK  Name = 75536081
REMARK  6 active torsions:
REMARK  status: ('A' for Active; 'I' for Inactive)
REMARK    1  A    between atoms: O_1  and  C_9
REMARK    2  A    between atoms: O_2  and  C_11
REMARK    3  A    between atoms: N_4  and  C_8
REMARK    4  A    between atoms: C_7  and  C_12
REMARK    5  A    between atoms: C_15  and  C_17
REMARK    6  A    between atoms: C_21  and  C_24
REMARK                            x       y       z     vdW  Elec       q    Type
REMARK                         _______ _______ _______ _____ _____    ______ ____
ROOT
ATOM      7  C   UNL     1      -2.198   0.025  25.493  0.00  0.00    +0.046 C 
ATOM      8  C   UNL     1      -1.497  -0.687  24.314  0.00  0.00    +0.112 C 
ATOM      9  C   UNL     1      -1.682  -2.170  24.635  0.00  0.00    +0.164 C 
ATOM     10  C   UNL     1      -3.211  -1.000  26.066  0.00  0.00    +0.044 C 
ATOM     11  C   UNL     1      -3.107  -2.233  25.171  0.00  0.00    +0.145 C 
ENDROOT
BRANCH   7  12
ATOM      5  N   UNL     1      -2.542   3.737  24.788  0.00  0.00    -0.263 NA
ATOM     12  C   UNL     1      -2.808   1.355  25.104  0.00  0.00    -0.024 A 
ATOM     13  C   UNL     1      -4.140   1.445  24.715  0.00  0.00    +0.007 A 
ATOM     14  C   UNL     1      -2.058   2.519  25.123  0.00  0.00    +0.114 A 
ATOM     16  C   UNL     1      -4.675   2.680  24.364  0.00  0.00    +0.020 A 
ATOM     18  C   UNL     1      -3.841   3.786  24.416  0.00  0.00    +0.111 A 
ENDBRANCH   7  12
BRANCH   8   4
ATOM      3  O   UNL     1       0.080  -0.583  21.917  0.00  0.00    -0.270 OA
ATOM      4  N   UNL     1      -0.106  -0.328  24.215  0.00  0.00    -0.305 N 
ATOM     15  C   UNL     1       0.576  -0.306  23.005  0.00  0.00    +0.244 C 
ATOM     25  H   UNL     1       0.375  -0.109  25.081  0.00  0.00    +0.149 HD
BRANCH  15  17
ATOM     17  C   UNL     1       2.014   0.060  23.075  0.00  0.00    +0.038 A 
ATOM     19  C   UNL     1       2.958  -0.890  23.464  0.00  0.00    +0.032 A 
ATOM     20  C   UNL     1       2.420   1.355  22.750  0.00  0.00    +0.013 A 
ATOM     21  C   UNL     1       4.308  -0.546  23.529  0.00  0.00    +0.052 A 
ATOM     22  C   UNL     1       3.772   1.699  22.816  0.00  0.00    +0.002 A 
ATOM     23  C   UNL     1       4.714   0.748  23.205  0.00  0.00    +0.019 A 
BRANCH  21  24
ATOM      6  N   UNL     1       6.061  -2.311  24.248  0.00  0.00    -0.191 NA
ATOM     24  C   UNL     1       5.276  -1.520  23.926  0.00  0.00    +0.099 C 
ENDBRANCH  21  24
ENDBRANCH  15  17
ENDBRANCH   8   4
BRANCH   9   1
ATOM      1  O   UNL     1      -1.528  -2.989  23.492  0.00  0.00    -0.387 OA
ATOM     26  H   UNL     1      -2.336  -3.523  23.404  0.00  0.00    +0.210 HD
ENDBRANCH   9   1
BRANCH  11   2
ATOM      2  O   UNL     1      -4.054  -2.113  24.114  0.00  0.00    -0.389 OA
ATOM     27  H   UNL     1      -4.562  -1.298  24.270  0.00  0.00    +0.210 HD
ENDBRANCH  11   2
TORSDOF 6
ENDMDL
MODEL 4
REMARK VINA RESULT:      -1.1     14.978     16.599
REMARK  Name = 75536081
REMARK  6 active torsions:
REMARK  status: ('A' for Active; 'I' for Inactive)
REMARK    1  A    between atoms: O_1  and  C_9
REMARK    2  A    between atoms: O_2  and  C_11
REMARK    3  A    between atoms: N_4  and  C_8
REMARK    4  A    between atoms: C_7  and  C_12
REMARK    5  A    between atoms: C_15  and  C_17
REMARK    6  A    between atoms: C_21  and  C_24
REMARK                            x       y       z     vdW  Elec       q    Type
REMARK                         _______ _______ _______ _____ _____    ______ ____
ROOT
ATOM      7  C   UNL     1      -3.474   3.523  26.110  0.00  0.00    +0.046 C 
ATOM      8  C   UNL     1      -4.378   2.678  25.183  0.00  0.00    +0.112 C 
ATOM      9  C   UNL     1      -5.774   2.877  25.772  0.00  0.00    +0.164 C 
ATOM     10  C   UNL     1      -4.404   4.581  26.758  0.00  0.00    +0.044 C 
ATOM     11  C   UNL     1      -5.785   4.354  26.146  0.00  0.00    +0.145 C 
ENDROOT
BRANCH   7  12
ATOM      5  N   UNL     1      -0.224   3.734  24.164  0.00  0.00    -0.263 NA
ATOM     12  C   UNL     1      -2.272   4.103  25.396  0.00  0.00    -0.024 A 
ATOM     13  C   UNL     1      -2.087   5.478  25.303  0.00  0.00    +0.007 A 
ATOM     14  C   UNL     1      -1.320   3.281  24.814  0.00  0.00    +0.114 A 
ATOM     16  C   UNL     1      -0.973   5.982  24.642  0.00  0.00    +0.020 A 
ATOM     18  C   UNL     1      -0.079   5.076  24.094  0.00  0.00    +0.111 A 
ENDBRANCH   7  12
BRANCH   8   4
ATOM      3  O   UNL     1      -3.448   1.176  22.919  0.00  0.00    -0.270 OA
ATOM      4  N   UNL     1      -3.992   1.290  25.171  0.00  0.00    -0.305 N 
ATOM     15  C   UNL     1      -3.553   0.646  24.021  0.00  0.00    +0.244 C 
ATOM     25  H   UNL     1      -4.076   0.782  26.045  0.00  0.00    +0.149 HD
BRANCH  15  17
ATOM     17  C   UNL     1      -3.218  -0.794  24.169  0.00  0.00    +0.038 A 
ATOM     19  C   UNL     1      -1.954  -1.174  24.618  0.00  0.00    +0.032 A 
ATOM     20  C   UNL     1      -4.170  -1.766  23.859  0.00  0.00    +0.013 A 
ATOM     21  C   UNL     1      -1.640  -2.526  24.757  0.00  0.00    +0.052 A 
ATOM     22  C   UNL     1      -3.856  -3.119  23.998  0.00  0.00    +0.002 A 
ATOM     23  C   UNL     1      -2.592  -3.498  24.447  0.00  0.00    +0.019 A 
BRANCH  21  24
ATOM      6  N   UNL     1       0.707  -3.233  25.593  0.00  0.00    -0.191 NA
ATOM     24  C   UNL     1      -0.345  -2.916  25.218  0.00  0.00    +0.099 C 
ENDBRANCH  21  24
ENDBRANCH  15  17
ENDBRANCH   8   4
BRANCH   9   1
ATOM      1  O   UNL     1      -6.796   2.577  24.840  0.00  0.00    -0.387 OA
ATOM     26  H   UNL     1      -7.297   1.820  25.190  0.00  0.00    +0.210 HD
ENDBRANCH   9   1
BRANCH  11   2
ATOM      2  O   UNL     1      -5.911   5.172  24.987  0.00  0.00    -0.389 OA
ATOM     27  H   UNL     1      -5.254   5.885  25.061  0.00  0.00    +0.210 HD
ENDBRANCH  11   2
TORSDOF 6
ENDMDL
