MODEL 1
REMARK VINA RESULT:      -1.8      0.000      0.000
REMARK  Name = 45783386
REMARK  9 active torsions:
REMARK  status: ('A' for Active; 'I' for Inactive)
REMARK    1  A    between atoms: O_4  and  C_30
REMARK    2  A    between atoms: O_4  and  C_31
REMARK    3  A    between atoms: N_5  and  C_15
REMARK    4  A    between atoms: N_8  and  C_28
REMARK    5  A    between atoms: N_9  and  C_24
REMARK    6  A    between atoms: C_11  and  C_16
REMARK    7  A    between atoms: C_15  and  C_17
REMARK    8  A    between atoms: C_20  and  C_23
REMARK    9  A    between atoms: C_28  and  C_30
REMARK                            x       y       z     vdW  Elec       q    Type
REMARK                         _______ _______ _______ _____ _____    ______ ____
ROOT
ATOM      1  O   UNL     1      15.455  -8.251  29.004  0.00  0.00    -0.336 OA
ATOM      6  N   UNL     1      15.191  -6.199  28.147  0.00  0.00    -0.190 NA
ATOM      7  N   UNL     1      16.119  -8.257  27.771  0.00  0.00    -0.056 NA
ATOM     16  C   UNL     1      14.937  -7.004  29.148  0.00  0.00    +0.245 A 
ATOM     20  C   UNL     1      15.918  -7.012  27.327  0.00  0.00    +0.205 A 
ENDROOT
BRANCH  20  23
ATOM      8  N   UNL     1      16.913  -4.374  26.986  0.00  0.00    -0.326 N 
ATOM     10  N   UNL     1      17.405  -4.803  24.712  0.00  0.00    -0.240 NA
ATOM     23  C   UNL     1      16.430  -6.550  26.069  0.00  0.00    +0.062 A 
ATOM     25  C   UNL     1      16.918  -5.267  25.884  0.00  0.00    +0.130 A 
ATOM     26  C   UNL     1      16.441  -7.414  24.978  0.00  0.00    +0.016 A 
ATOM     27  C   UNL     1      16.934  -6.974  23.756  0.00  0.00    +0.020 A 
ATOM     29  C   UNL     1      17.401  -5.671  23.675  0.00  0.00    +0.113 A 
ATOM     32  H   UNL     1      16.900  -4.799  27.907  0.00  0.00    +0.148 HD
BRANCH   8  28
ATOM     28  C   UNL     1      17.395  -3.035  26.893  0.00  0.00    +0.131 C 
BRANCH  28  30
ATOM     30  C   UNL     1      16.401  -2.177  26.128  0.00  0.00    +0.178 C 
BRANCH  30   4
ATOM      4  O   UNL     1      17.086  -1.443  25.121  0.00  0.00    -0.381 OA
ATOM     31  C   UNL     1      16.243  -1.173  24.009  0.00  0.00    +0.194 C 
ENDBRANCH  30   4
ENDBRANCH  28  30
ENDBRANCH   8  28
ENDBRANCH  20  23
BRANCH  16  11
ATOM      5  N   UNL     1      14.759  -7.399  31.598  0.00  0.00    -0.287 NA
ATOM     11  C   UNL     1      14.161  -6.738  30.421  0.00  0.00    +0.146 C 
ATOM     12  C   UNL     1      14.119  -5.244  30.790  0.00  0.00    +0.030 C 
ATOM     13  C   UNL     1      14.655  -5.170  32.213  0.00  0.00    +0.017 C 
ATOM     14  C   UNL     1      14.423  -6.565  32.754  0.00  0.00    +0.085 C 
BRANCH   5  15
ATOM     15  C   UNL     1      14.319  -8.776  31.770  0.00  0.00    +0.120 C 
BRANCH  15  17
ATOM     17  C   UNL     1      12.823  -8.873  31.911  0.00  0.00    -0.033 A 
ATOM     18  C   UNL     1      12.139  -7.967  32.723  0.00  0.00    +0.007 A 
ATOM     19  C   UNL     1      12.120  -9.867  31.231  0.00  0.00    +0.007 A 
ATOM     21  C   UNL     1      10.753  -8.056  32.853  0.00  0.00    +0.033 A 
ATOM     22  C   UNL     1      10.735  -9.957  31.362  0.00  0.00    +0.033 A 
ATOM     24  C   UNL     1      10.051  -9.051  32.174  0.00  0.00    +0.126 A 
BRANCH  24   9
ATOM      2  O   UNL     1       8.072 -10.225  32.030  0.00  0.00    -0.126 OA
ATOM      3  O   UNL     1       8.001  -8.135  32.698  0.00  0.00    -0.126 OA
ATOM      9  N   UNL     1       8.640  -9.142  32.307  0.00  0.00    +0.056 N 
ENDBRANCH  24   9
ENDBRANCH  15  17
ENDBRANCH   5  15
ENDBRANCH  16  11
TORSDOF 8
ENDMDL
MODEL 2
REMARK VINA RESULT:      -1.3      1.459      2.082
REMARK  Name = 45783386
REMARK  9 active torsions:
REMARK  status: ('A' for Active; 'I' for Inactive)
REMARK    1  A    between atoms: O_4  and  C_30
REMARK    2  A    between atoms: O_4  and  C_31
REMARK    3  A    between atoms: N_5  and  C_15
REMARK    4  A    between atoms: N_8  and  C_28
REMARK    5  A    between atoms: N_9  and  C_24
REMARK    6  A    between atoms: C_11  and  C_16
REMARK    7  A    between atoms: C_15  and  C_17
REMARK    8  A    between atoms: C_20  and  C_23
REMARK    9  A    between atoms: C_28  and  C_30
REMARK                            x       y       z     vdW  Elec       q    Type
REMARK                         _______ _______ _______ _____ _____    ______ ____
ROOT
ATOM      1  O   UNL     1      15.200  -8.403  28.447  0.00  0.00    -0.336 OA
ATOM      6  N   UNL     1      15.205  -6.185  28.136  0.00  0.00    -0.190 NA
ATOM      7  N   UNL     1      15.804  -8.186  27.202  0.00  0.00    -0.056 NA
ATOM     16  C   UNL     1      14.877  -7.175  28.929  0.00  0.00    +0.245 A 
ATOM     20  C   UNL     1      15.770  -6.855  27.090  0.00  0.00    +0.205 A 
ENDROOT
BRANCH  20  23
ATOM      8  N   UNL     1      16.870  -4.243  27.285  0.00  0.00    -0.326 N 
ATOM     10  N   UNL     1      17.328  -4.212  24.964  0.00  0.00    -0.240 NA
ATOM     23  C   UNL     1      16.291  -6.163  25.947  0.00  0.00    +0.062 A 
ATOM     25  C   UNL     1      16.830  -4.889  26.023  0.00  0.00    +0.130 A 
ATOM     26  C   UNL     1      16.260  -6.782  24.701  0.00  0.00    +0.016 A 
ATOM     27  C   UNL     1      16.762  -6.119  23.589  0.00  0.00    +0.020 A 
ATOM     29  C   UNL     1      17.281  -4.846  23.771  0.00  0.00    +0.113 A 
ATOM     32  H   UNL     1      16.846  -4.848  28.099  0.00  0.00    +0.148 HD
BRANCH   8  28
ATOM     28  C   UNL     1      17.405  -2.933  27.462  0.00  0.00    +0.131 C 
BRANCH  28  30
ATOM     30  C   UNL     1      17.200  -2.477  28.897  0.00  0.00    +0.178 C 
BRANCH  30   4
ATOM      4  O   UNL     1      16.718  -3.566  29.674  0.00  0.00    -0.381 OA
ATOM     31  C   UNL     1      17.333  -3.604  30.955  0.00  0.00    +0.194 C 
ENDBRANCH  30   4
ENDBRANCH  28  30
ENDBRANCH   8  28
ENDBRANCH  20  23
BRANCH  16  11
ATOM      5  N   UNL     1      14.487  -8.339  31.092  0.00  0.00    -0.287 NA
ATOM     11  C   UNL     1      14.202  -7.137  30.283  0.00  0.00    +0.146 C 
ATOM     12  C   UNL     1      14.678  -5.959  31.152  0.00  0.00    +0.030 C 
ATOM     13  C   UNL     1      15.156  -6.590  32.452  0.00  0.00    +0.017 C 
ATOM     14  C   UNL     1      14.427  -7.917  32.493  0.00  0.00    +0.085 C 
BRANCH   5  15
ATOM     15  C   UNL     1      13.582  -9.446  30.815  0.00  0.00    +0.120 C 
BRANCH  15  17
ATOM     17  C   UNL     1      12.172  -9.140  31.247  0.00  0.00    -0.033 A 
ATOM     18  C   UNL     1      11.471 -10.052  32.036  0.00  0.00    +0.007 A 
ATOM     19  C   UNL     1      11.568  -7.945  30.859  0.00  0.00    +0.007 A 
ATOM     21  C   UNL     1      10.166  -9.767  32.437  0.00  0.00    +0.033 A 
ATOM     22  C   UNL     1      10.263  -7.660  31.258  0.00  0.00    +0.033 A 
ATOM     24  C   UNL     1       9.561  -8.573  32.048  0.00  0.00    +0.126 A 
BRANCH  24   9
ATOM      2  O   UNL     1       7.957  -7.129  32.860  0.00  0.00    -0.126 OA
ATOM      3  O   UNL     1       7.368  -9.193  32.401  0.00  0.00    -0.126 OA
ATOM      9  N   UNL     1       8.232  -8.284  32.455  0.00  0.00    +0.056 N 
ENDBRANCH  24   9
ENDBRANCH  15  17
ENDBRANCH   5  15
ENDBRANCH  16  11
TORSDOF 8
ENDMDL
MODEL 3
REMARK VINA RESULT:      -0.3     16.908     18.764
REMARK  Name = 45783386
REMARK  9 active torsions:
REMARK  status: ('A' for Active; 'I' for Inactive)
REMARK    1  A    between atoms: O_4  and  C_30
REMARK    2  A    between atoms: O_4  and  C_31
REMARK    3  A    between atoms: N_5  and  C_15
REMARK    4  A    between atoms: N_8  and  C_28
REMARK    5  A    between atoms: N_9  and  C_24
REMARK    6  A    between atoms: C_11  and  C_16
REMARK    7  A    between atoms: C_15  and  C_17
REMARK    8  A    between atoms: C_20  and  C_23
REMARK    9  A    between atoms: C_28  and  C_30
REMARK                            x       y       z     vdW  Elec       q    Type
REMARK                         _______ _______ _______ _____ _____    ______ ____
ROOT
ATOM      1  O   UNL     1      -0.435   3.290  25.897  0.00  0.00    -0.336 OA
ATOM      6  N   UNL     1      -0.473   2.821  23.707  0.00  0.00    -0.190 NA
ATOM      7  N   UNL     1       0.638   2.420  25.666  0.00  0.00    -0.056 NA
ATOM     16  C   UNL     1      -1.036   3.474  24.693  0.00  0.00    +0.245 A 
ATOM     20  C   UNL     1       0.549   2.189  24.353  0.00  0.00    +0.205 A 
ENDROOT
BRANCH  20  23
ATOM      8  N   UNL     1      -0.042  -0.541  23.837  0.00  0.00    -0.326 N 
ATOM     10  N   UNL     1       2.036  -0.832  22.743  0.00  0.00    -0.240 NA
ATOM     23  C   UNL     1       1.465   1.332  23.657  0.00  0.00    +0.062 A 
ATOM     25  C   UNL     1       1.194  -0.001  23.397  0.00  0.00    +0.130 A 
ATOM     26  C   UNL     1       2.681   1.845  23.219  0.00  0.00    +0.016 A 
ATOM     27  C   UNL     1       3.574   1.022  22.543  0.00  0.00    +0.020 A 
ATOM     29  C   UNL     1       3.207  -0.298  22.333  0.00  0.00    +0.113 A 
ATOM     32  H   UNL     1      -0.793   0.124  23.986  0.00  0.00    +0.148 HD
BRANCH   8  28
ATOM     28  C   UNL     1      -0.410  -1.901  23.615  0.00  0.00    +0.131 C 
BRANCH  28  30
ATOM     30  C   UNL     1      -0.721  -2.577  24.940  0.00  0.00    +0.178 C 
BRANCH  30   4
ATOM      4  O   UNL     1      -0.319  -1.731  26.009  0.00  0.00    -0.381 OA
ATOM     31  C   UNL     1      -1.271  -0.703  26.246  0.00  0.00    +0.194 C 
ENDBRANCH  30   4
ENDBRANCH  28  30
ENDBRANCH   8  28
ENDBRANCH  20  23
BRANCH  16  11
ATOM      5  N   UNL     1      -3.493   3.687  25.023  0.00  0.00    -0.287 NA
ATOM     11  C   UNL     1      -2.242   4.389  24.673  0.00  0.00    +0.146 C 
ATOM     12  C   UNL     1      -2.136   5.534  25.697  0.00  0.00    +0.030 C 
ATOM     13  C   UNL     1      -3.400   5.433  26.540  0.00  0.00    +0.017 C 
ATOM     14  C   UNL     1      -4.366   4.684  25.645  0.00  0.00    +0.085 C 
BRANCH   5  15
ATOM     15  C   UNL     1      -4.127   3.038  23.884  0.00  0.00    +0.120 C 
BRANCH  15  17
ATOM     17  C   UNL     1      -4.101   1.538  24.007  0.00  0.00    -0.033 A 
ATOM     18  C   UNL     1      -4.718   0.917  25.094  0.00  0.00    +0.007 A 
ATOM     19  C   UNL     1      -3.461   0.769  23.036  0.00  0.00    +0.007 A 
ATOM     21  C   UNL     1      -4.694  -0.473  25.207  0.00  0.00    +0.033 A 
ATOM     22  C   UNL     1      -3.436  -0.620  23.150  0.00  0.00    +0.033 A 
ATOM     24  C   UNL     1      -4.053  -1.242  24.236  0.00  0.00    +0.126 A 
BRANCH  24   9
ATOM      2  O   UNL     1      -4.456  -3.353  23.401  0.00  0.00    -0.126 OA
ATOM      3  O   UNL     1      -3.581  -3.172  25.407  0.00  0.00    -0.126 OA
ATOM      9  N   UNL     1      -4.029  -2.657  24.353  0.00  0.00    +0.056 N 
ENDBRANCH  24   9
ENDBRANCH  15  17
ENDBRANCH   5  15
ENDBRANCH  16  11
TORSDOF 8
ENDMDL
MODEL 4
REMARK VINA RESULT:       0.4     16.835     18.528
REMARK  Name = 45783386
REMARK  9 active torsions:
REMARK  status: ('A' for Active; 'I' for Inactive)
REMARK    1  A    between atoms: O_4  and  C_30
REMARK    2  A    between atoms: O_4  and  C_31
REMARK    3  A    between atoms: N_5  and  C_15
REMARK    4  A    between atoms: N_8  and  C_28
REMARK    5  A    between atoms: N_9  and  C_24
REMARK    6  A    between atoms: C_11  and  C_16
REMARK    7  A    between atoms: C_15  and  C_17
REMARK    8  A    between atoms: C_20  and  C_23
REMARK    9  A    between atoms: C_28  and  C_30
REMARK                            x       y       z     vdW  Elec       q    Type
REMARK                         _______ _______ _______ _____ _____    ______ ____
ROOT
ATOM      1  O   UNL     1      -0.525   3.602  24.217  0.00  0.00    -0.336 OA
ATOM      6  N   UNL     1      -1.775   1.816  24.728  0.00  0.00    -0.190 NA
ATOM      7  N   UNL     1       0.343   2.503  24.203  0.00  0.00    -0.056 NA
ATOM     16  C   UNL     1      -1.751   3.110  24.535  0.00  0.00    +0.245 A 
ATOM     20  C   UNL     1      -0.468   1.487  24.514  0.00  0.00    +0.205 A 
ENDROOT
BRANCH  20  23
ATOM      8  N   UNL     1       1.800   0.558  23.078  0.00  0.00    -0.326 N 
ATOM     10  N   UNL     1       1.558  -1.606  24.005  0.00  0.00    -0.240 NA
ATOM     23  C   UNL     1      -0.005   0.133  24.619  0.00  0.00    +0.062 A 
ATOM     25  C   UNL     1       1.098  -0.337  23.926  0.00  0.00    +0.130 A 
ATOM     26  C   UNL     1      -0.682  -0.757  25.446  0.00  0.00    +0.016 A 
ATOM     27  C   UNL     1      -0.240  -2.070  25.553  0.00  0.00    +0.020 A 
ATOM     29  C   UNL     1       0.875  -2.442  24.818  0.00  0.00    +0.113 A 
ATOM     32  H   UNL     1       1.698   1.545  23.287  0.00  0.00    +0.148 HD
BRANCH   8  28
ATOM     28  C   UNL     1       2.946   0.166  22.325  0.00  0.00    +0.131 C 
BRANCH  28  30
ATOM     30  C   UNL     1       4.161   0.958  22.778  0.00  0.00    +0.178 C 
BRANCH  30   4
ATOM      4  O   UNL     1       5.272   0.083  22.914  0.00  0.00    -0.381 OA
ATOM     31  C   UNL     1       5.423  -0.364  24.255  0.00  0.00    +0.194 C 
ENDBRANCH  30   4
ENDBRANCH  28  30
ENDBRANCH   8  28
ENDBRANCH  20  23
BRANCH  16  11
ATOM      5  N   UNL     1      -4.045   3.601  25.364  0.00  0.00    -0.287 NA
ATOM     11  C   UNL     1      -2.881   4.114  24.614  0.00  0.00    +0.146 C 
ATOM     12  C   UNL     1      -2.479   5.405  25.352  0.00  0.00    +0.030 C 
ATOM     13  C   UNL     1      -3.509   5.567  26.462  0.00  0.00    +0.017 C 
ATOM     14  C   UNL     1      -4.695   4.766  25.966  0.00  0.00    +0.085 C 
BRANCH   5  15
ATOM     15  C   UNL     1      -4.962   2.825  24.541  0.00  0.00    +0.120 C 
BRANCH  15  17
ATOM     17  C   UNL     1      -4.617   1.360  24.545  0.00  0.00    -0.033 A 
ATOM     18  C   UNL     1      -4.711   0.625  25.727  0.00  0.00    +0.007 A 
ATOM     19  C   UNL     1      -4.204   0.737  23.368  0.00  0.00    +0.007 A 
ATOM     21  C   UNL     1      -4.392  -0.733  25.731  0.00  0.00    +0.033 A 
ATOM     22  C   UNL     1      -3.883  -0.620  23.371  0.00  0.00    +0.033 A 
ATOM     24  C   UNL     1      -3.977  -1.355  24.554  0.00  0.00    +0.126 A 
BRANCH  24   9
ATOM      2  O   UNL     1      -3.685  -3.374  23.478  0.00  0.00    -0.126 OA
ATOM      3  O   UNL     1      -3.340  -3.285  25.644  0.00  0.00    -0.126 OA
ATOM      9  N   UNL     1      -3.652  -2.737  24.558  0.00  0.00    +0.056 N 
ENDBRANCH  24   9
ENDBRANCH  15  17
ENDBRANCH   5  15
ENDBRANCH  16  11
TORSDOF 8
ENDMDL
MODEL 5
REMARK VINA RESULT:       0.4     17.232     19.191
REMARK  Name = 45783386
REMARK  9 active torsions:
REMARK  status: ('A' for Active; 'I' for Inactive)
REMARK    1  A    between atoms: O_4  and  C_30
REMARK    2  A    between atoms: O_4  and  C_31
REMARK    3  A    between atoms: N_5  and  C_15
REMARK    4  A    between atoms: N_8  and  C_28
REMARK    5  A    between atoms: N_9  and  C_24
REMARK    6  A    between atoms: C_11  and  C_16
REMARK    7  A    between atoms: C_15  and  C_17
REMARK    8  A    between atoms: C_20  and  C_23
REMARK    9  A    between atoms: C_28  and  C_30
REMARK                            x       y       z     vdW  Elec       q    Type
REMARK                         _______ _______ _______ _____ _____    ______ ____
ROOT
ATOM      1  O   UNL     1      -1.260  -0.681  26.648  0.00  0.00    -0.336 OA
ATOM      6  N   UNL     1      -1.899   0.342  24.762  0.00  0.00    -0.190 NA
ATOM      7  N   UNL     1      -0.668   0.587  26.674  0.00  0.00    -0.056 NA
ATOM     16  C   UNL     1      -1.966  -0.744  25.490  0.00  0.00    +0.245 A 
ATOM     20  C   UNL     1      -1.091   1.130  25.529  0.00  0.00    +0.205 A 
ENDROOT
BRANCH  20  23
ATOM      8  N   UNL     1       1.162   1.628  23.873  0.00  0.00    -0.326 N 
ATOM     10  N   UNL     1       0.738   3.955  23.916  0.00  0.00    -0.240 NA
ATOM     23  C   UNL     1      -0.726   2.456  25.122  0.00  0.00    +0.062 A 
ATOM     25  C   UNL     1       0.370   2.717  24.316  0.00  0.00    +0.130 A 
ATOM     26  C   UNL     1      -1.493   3.536  25.547  0.00  0.00    +0.016 A 
ATOM     27  C   UNL     1      -1.146   4.824  25.157  0.00  0.00    +0.020 A 
ATOM     29  C   UNL     1      -0.031   4.979  24.349  0.00  0.00    +0.113 A 
ATOM     32  H   UNL     1       0.708   0.721  23.857  0.00  0.00    +0.148 HD
BRANCH   8  28
ATOM     28  C   UNL     1       2.308   1.798  23.041  0.00  0.00    +0.131 C 
BRANCH  28  30
ATOM     30  C   UNL     1       2.913   0.444  22.706  0.00  0.00    +0.178 C 
BRANCH  30   4
ATOM      4  O   UNL     1       4.288   0.607  22.388  0.00  0.00    -0.381 OA
ATOM     31  C   UNL     1       5.122   0.253  23.484  0.00  0.00    +0.194 C 
ENDBRANCH  30   4
ENDBRANCH  28  30
ENDBRANCH   8  28
ENDBRANCH  20  23
BRANCH  16  11
ATOM      5  N   UNL     1      -3.679  -1.912  24.113  0.00  0.00    -0.287 NA
ATOM     11  C   UNL     1      -2.711  -2.035  25.222  0.00  0.00    +0.146 C 
ATOM     12  C   UNL     1      -1.777  -3.184  24.800  0.00  0.00    +0.030 C 
ATOM     13  C   UNL     1      -2.333  -3.684  23.474  0.00  0.00    +0.017 C 
ATOM     14  C   UNL     1      -3.782  -3.240  23.506  0.00  0.00    +0.085 C 
BRANCH   5  15
ATOM     15  C   UNL     1      -4.976  -1.401  24.536  0.00  0.00    +0.120 C 
BRANCH  15  17
ATOM     17  C   UNL     1      -4.979   0.101  24.640  0.00  0.00    -0.033 A 
ATOM     18  C   UNL     1      -5.626   0.725  25.708  0.00  0.00    +0.007 A 
ATOM     19  C   UNL     1      -4.337   0.869  23.670  0.00  0.00    +0.007 A 
ATOM     21  C   UNL     1      -5.628   2.116  25.804  0.00  0.00    +0.033 A 
ATOM     22  C   UNL     1      -4.340   2.260  23.764  0.00  0.00    +0.033 A 
ATOM     24  C   UNL     1      -4.986   2.884  24.832  0.00  0.00    +0.126 A 
BRANCH  24   9
ATOM      2  O   UNL     1      -4.208   4.962  24.207  0.00  0.00    -0.126 OA
ATOM      3  O   UNL     1      -5.775   4.852  25.739  0.00  0.00    -0.126 OA
ATOM      9  N   UNL     1      -4.990   4.300  24.930  0.00  0.00    +0.056 N 
ENDBRANCH  24   9
ENDBRANCH  15  17
ENDBRANCH   5  15
ENDBRANCH  16  11
TORSDOF 8
ENDMDL
MODEL 6
REMARK VINA RESULT:       0.6     16.350     18.944
REMARK  Name = 45783386
REMARK  9 active torsions:
REMARK  status: ('A' for Active; 'I' for Inactive)
REMARK    1  A    between atoms: O_4  and  C_30
REMARK    2  A    between atoms: O_4  and  C_31
REMARK    3  A    between atoms: N_5  and  C_15
REMARK    4  A    between atoms: N_8  and  C_28
REMARK    5  A    between atoms: N_9  and  C_24
REMARK    6  A    between atoms: C_11  and  C_16
REMARK    7  A    between atoms: C_15  and  C_17
REMARK    8  A    between atoms: C_20  and  C_23
REMARK    9  A    between atoms: C_28  and  C_30
REMARK                            x       y       z     vdW  Elec       q    Type
REMARK                         _______ _______ _______ _____ _____    ______ ____
ROOT
ATOM      1  O   UNL     1      -3.855  -1.332  23.873  0.00  0.00    -0.336 OA
ATOM      6  N   UNL     1      -2.750   0.442  24.678  0.00  0.00    -0.190 NA
ATOM      7  N   UNL     1      -4.822  -0.349  24.115  0.00  0.00    -0.056 NA
ATOM     16  C   UNL     1      -2.664  -0.786  24.231  0.00  0.00    +0.245 A 
ATOM     20  C   UNL     1      -4.094   0.666  24.588  0.00  0.00    +0.205 A 
ENDROOT
BRANCH  20  23
ATOM      8  N   UNL     1      -2.594   3.079  24.622  0.00  0.00    -0.326 N 
ATOM     10  N   UNL     1      -4.481   4.295  25.369  0.00  0.00    -0.240 NA
ATOM     23  C   UNL     1      -4.676   1.917  24.981  0.00  0.00    +0.062 A 
ATOM     25  C   UNL     1      -3.960   3.103  25.004  0.00  0.00    +0.130 A 
ATOM     26  C   UNL     1      -6.014   1.958  25.359  0.00  0.00    +0.016 A 
ATOM     27  C   UNL     1      -6.586   3.166  25.741  0.00  0.00    +0.020 A 
ATOM     29  C   UNL     1      -5.784   4.296  25.729  0.00  0.00    +0.113 A 
ATOM     32  H   UNL     1      -2.310   2.310  24.024  0.00  0.00    +0.148 HD
BRANCH   8  28
ATOM     28  C   UNL     1      -1.777   4.247  24.614  0.00  0.00    +0.131 C 
BRANCH  28  30
ATOM     30  C   UNL     1      -0.309   3.855  24.636  0.00  0.00    +0.178 C 
BRANCH  30   4
ATOM      4  O   UNL     1      -0.187   2.506  25.068  0.00  0.00    -0.381 OA
ATOM     31  C   UNL     1       0.163   2.429  26.443  0.00  0.00    +0.194 C 
ENDBRANCH  30   4
ENDBRANCH  28  30
ENDBRANCH   8  28
ENDBRANCH  20  23
BRANCH  16  11
ATOM      5  N   UNL     1      -0.183  -0.937  24.330  0.00  0.00    -0.287 NA
ATOM     11  C   UNL     1      -1.441  -1.661  24.061  0.00  0.00    +0.146 C 
ATOM     12  C   UNL     1      -1.423  -2.854  25.035  0.00  0.00    +0.030 C 
ATOM     13  C   UNL     1      -0.091  -2.751  25.766  0.00  0.00    +0.017 C 
ATOM     14  C   UNL     1       0.769  -1.934  24.823  0.00  0.00    +0.085 C 
BRANCH   5  15
ATOM     15  C   UNL     1       0.327  -0.220  23.169  0.00  0.00    +0.120 C 
BRANCH  15  17
ATOM     17  C   UNL     1       1.830  -0.123  23.187  0.00  0.00    -0.033 A 
ATOM     18  C   UNL     1       2.453   1.094  22.906  0.00  0.00    +0.007 A 
ATOM     19  C   UNL     1       2.599  -1.247  23.483  0.00  0.00    +0.007 A 
ATOM     21  C   UNL     1       3.845   1.184  22.923  0.00  0.00    +0.033 A 
ATOM     22  C   UNL     1       3.990  -1.158  23.500  0.00  0.00    +0.033 A 
ATOM     24  C   UNL     1       4.613   0.059  23.219  0.00  0.00    +0.126 A 
BRANCH  24   9
ATOM      2  O   UNL     1       6.693  -0.523  22.412  0.00  0.00    -0.126 OA
ATOM      3  O   UNL     1       6.580   0.904  24.075  0.00  0.00    -0.126 OA
ATOM      9  N   UNL     1       6.030   0.151  23.235  0.00  0.00    +0.056 N 
ENDBRANCH  24   9
ENDBRANCH  15  17
ENDBRANCH   5  15
ENDBRANCH  16  11
TORSDOF 8
ENDMDL
MODEL 7
REMARK VINA RESULT:       1.0     17.286     19.097
REMARK  Name = 45783386
REMARK  9 active torsions:
REMARK  status: ('A' for Active; 'I' for Inactive)
REMARK    1  A    between atoms: O_4  and  C_30
REMARK    2  A    between atoms: O_4  and  C_31
REMARK    3  A    between atoms: N_5  and  C_15
REMARK    4  A    between atoms: N_8  and  C_28
REMARK    5  A    between atoms: N_9  and  C_24
REMARK    6  A    between atoms: C_11  and  C_16
REMARK    7  A    between atoms: C_15  and  C_17
REMARK    8  A    between atoms: C_20  and  C_23
REMARK    9  A    between atoms: C_28  and  C_30
REMARK                            x       y       z     vdW  Elec       q    Type
REMARK                         _______ _______ _______ _____ _____    ______ ____
ROOT
ATOM      1  O   UNL     1      -3.555   2.474  22.228  0.00  0.00    -0.336 OA
ATOM      6  N   UNL     1      -2.529   1.899  24.134  0.00  0.00    -0.190 NA
ATOM      7  N   UNL     1      -2.262   2.074  21.868  0.00  0.00    -0.056 NA
ATOM     16  C   UNL     1      -3.628   2.341  23.578  0.00  0.00    +0.245 A 
ATOM     20  C   UNL     1      -1.719   1.749  23.045  0.00  0.00    +0.205 A 
ENDROOT
BRANCH  20  23
ATOM      8  N   UNL     1       0.039   2.717  25.056  0.00  0.00    -0.326 N 
ATOM     10  N   UNL     1       1.774   1.306  24.282  0.00  0.00    -0.240 NA
ATOM     23  C   UNL     1      -0.371   1.274  23.168  0.00  0.00    +0.062 A 
ATOM     25  C   UNL     1       0.500   1.735  24.142  0.00  0.00    +0.130 A 
ATOM     26  C   UNL     1       0.097   0.311  22.280  0.00  0.00    +0.016 A 
ATOM     27  C   UNL     1       1.401  -0.154  22.392  0.00  0.00    +0.020 A 
ATOM     29  C   UNL     1       2.193   0.370  23.402  0.00  0.00    +0.113 A 
ATOM     32  H   UNL     1      -0.965   2.768  25.188  0.00  0.00    +0.148 HD
BRANCH   8  28
ATOM     28  C   UNL     1       0.862   3.251  26.091  0.00  0.00    +0.131 C 
BRANCH  28  30
ATOM     30  C   UNL     1       0.637   2.482  27.382  0.00  0.00    +0.178 C 
BRANCH  30   4
ATOM      4  O   UNL     1       1.748   2.676  28.247  0.00  0.00    -0.381 OA
ATOM     31  C   UNL     1       1.436   2.312  29.585  0.00  0.00    +0.194 C 
ENDBRANCH  30   4
ENDBRANCH  28  30
ENDBRANCH   8  28
ENDBRANCH  20  23
BRANCH  16  11
ATOM      5  N   UNL     1      -5.083   2.174  25.590  0.00  0.00    -0.287 NA
ATOM     11  C   UNL     1      -4.946   2.716  24.222  0.00  0.00    +0.146 C 
ATOM     12  C   UNL     1      -5.117   4.237  24.385  0.00  0.00    +0.030 C 
ATOM     13  C   UNL     1      -5.407   4.450  25.864  0.00  0.00    +0.017 C 
ATOM     14  C   UNL     1      -5.943   3.108  26.318  0.00  0.00    +0.085 C 
BRANCH   5  15
ATOM     15  C   UNL     1      -5.602   0.814  25.620  0.00  0.00    +0.120 C 
BRANCH  15  17
ATOM     17  C   UNL     1      -4.541  -0.198  25.277  0.00  0.00    -0.033 A 
ATOM     18  C   UNL     1      -3.408  -0.321  26.083  0.00  0.00    +0.007 A 
ATOM     19  C   UNL     1      -4.688  -1.011  24.154  0.00  0.00    +0.007 A 
ATOM     21  C   UNL     1      -2.425  -1.259  25.765  0.00  0.00    +0.033 A 
ATOM     22  C   UNL     1      -3.706  -1.948  23.836  0.00  0.00    +0.033 A 
ATOM     24  C   UNL     1      -2.574  -2.071  24.642  0.00  0.00    +0.126 A 
BRANCH  24   9
ATOM      2  O   UNL     1      -1.716  -3.734  23.294  0.00  0.00    -0.126 OA
ATOM      3  O   UNL     1      -0.572  -3.133  25.068  0.00  0.00    -0.126 OA
ATOM      9  N   UNL     1      -1.573  -3.025  24.319  0.00  0.00    +0.056 N 
ENDBRANCH  24   9
ENDBRANCH  15  17
ENDBRANCH   5  15
ENDBRANCH  16  11
TORSDOF 8
ENDMDL
MODEL 8
REMARK VINA RESULT:       1.0     17.231     19.084
REMARK  Name = 45783386
REMARK  9 active torsions:
REMARK  status: ('A' for Active; 'I' for Inactive)
REMARK    1  A    between atoms: O_4  and  C_30
REMARK    2  A    between atoms: O_4  and  C_31
REMARK    3  A    between atoms: N_5  and  C_15
REMARK    4  A    between atoms: N_8  and  C_28
REMARK    5  A    between atoms: N_9  and  C_24
REMARK    6  A    between atoms: C_11  and  C_16
REMARK    7  A    between atoms: C_15  and  C_17
REMARK    8  A    between atoms: C_20  and  C_23
REMARK    9  A    between atoms: C_28  and  C_30
REMARK                            x       y       z     vdW  Elec       q    Type
REMARK                         _______ _______ _______ _____ _____    ______ ____
ROOT
ATOM      1  O   UNL     1      -0.633  -2.780  25.392  0.00  0.00    -0.336 OA
ATOM      6  N   UNL     1      -1.037  -1.147  23.913  0.00  0.00    -0.190 NA
ATOM      7  N   UNL     1       0.595  -2.144  25.169  0.00  0.00    -0.056 NA
ATOM     16  C   UNL     1      -1.540  -2.132  24.614  0.00  0.00    +0.245 A 
ATOM     20  C   UNL     1       0.275  -1.193  24.286  0.00  0.00    +0.205 A 
ENDROOT
BRANCH  20  23
ATOM      8  N   UNL     1       0.054   1.611  24.677  0.00  0.00    -0.326 N 
ATOM     10  N   UNL     1       2.043   1.985  23.451  0.00  0.00    -0.240 NA
ATOM     23  C   UNL     1       1.241  -0.275  23.757  0.00  0.00    +0.062 A 
ATOM     25  C   UNL     1       1.149   1.096  23.937  0.00  0.00    +0.130 A 
ATOM     26  C   UNL     1       2.321  -0.764  23.029  0.00  0.00    +0.016 A 
ATOM     27  C   UNL     1       3.261   0.119  22.513  0.00  0.00    +0.020 A 
ATOM     29  C   UNL     1       3.079   1.473  22.750  0.00  0.00    +0.113 A 
ATOM     32  H   UNL     1      -0.390   0.970  25.325  0.00  0.00    +0.148 HD
BRANCH   8  28
ATOM     28  C   UNL     1      -0.125   3.006  24.914  0.00  0.00    +0.131 C 
BRANCH  28  30
ATOM     30  C   UNL     1      -1.119   3.218  26.043  0.00  0.00    +0.178 C 
BRANCH  30   4
ATOM      4  O   UNL     1      -1.781   4.463  25.864  0.00  0.00    -0.381 OA
ATOM     31  C   UNL     1      -1.116   5.272  24.903  0.00  0.00    +0.194 C 
ENDBRANCH  30   4
ENDBRANCH  28  30
ENDBRANCH   8  28
ENDBRANCH  20  23
BRANCH  16  11
ATOM      5  N   UNL     1      -3.957  -1.565  24.451  0.00  0.00    -0.287 NA
ATOM     11  C   UNL     1      -2.965  -2.636  24.677  0.00  0.00    +0.146 C 
ATOM     12  C   UNL     1      -3.272  -3.688  23.596  0.00  0.00    +0.030 C 
ATOM     13  C   UNL     1      -4.487  -3.152  22.851  0.00  0.00    +0.017 C 
ATOM     14  C   UNL     1      -5.126  -2.206  23.847  0.00  0.00    +0.085 C 
BRANCH   5  15
ATOM     15  C   UNL     1      -4.298  -0.832  25.662  0.00  0.00    +0.120 C 
BRANCH  15  17
ATOM     17  C   UNL     1      -4.506   0.634  25.390  0.00  0.00    -0.033 A 
ATOM     18  C   UNL     1      -3.751   1.275  24.407  0.00  0.00    +0.007 A 
ATOM     19  C   UNL     1      -5.453   1.352  26.119  0.00  0.00    +0.007 A 
ATOM     21  C   UNL     1      -3.945   2.633  24.155  0.00  0.00    +0.033 A 
ATOM     22  C   UNL     1      -5.646   2.709  25.869  0.00  0.00    +0.033 A 
ATOM     24  C   UNL     1      -4.891   3.351  24.886  0.00  0.00    +0.126 A 
BRANCH  24   9
ATOM      2  O   UNL     1      -4.362   5.303  23.780  0.00  0.00    -0.126 OA
ATOM      3  O   UNL     1      -5.982   5.348  25.260  0.00  0.00    -0.126 OA
ATOM      9  N   UNL     1      -5.088   4.733  24.629  0.00  0.00    +0.056 N 
ENDBRANCH  24   9
ENDBRANCH  15  17
ENDBRANCH   5  15
ENDBRANCH  16  11
TORSDOF 8
ENDMDL
MODEL 9
REMARK VINA RESULT:       1.2     16.668     18.630
REMARK  Name = 45783386
REMARK  9 active torsions:
REMARK  status: ('A' for Active; 'I' for Inactive)
REMARK    1  A    between atoms: O_4  and  C_30
REMARK    2  A    between atoms: O_4  and  C_31
REMARK    3  A    between atoms: N_5  and  C_15
REMARK    4  A    between atoms: N_8  and  C_28
REMARK    5  A    between atoms: N_9  and  C_24
REMARK    6  A    between atoms: C_11  and  C_16
REMARK    7  A    between atoms: C_15  and  C_17
REMARK    8  A    between atoms: C_20  and  C_23
REMARK    9  A    between atoms: C_28  and  C_30
REMARK                            x       y       z     vdW  Elec       q    Type
REMARK                         _______ _______ _______ _____ _____    ______ ____
ROOT
ATOM      1  O   UNL     1      -1.207  -2.423  25.377  0.00  0.00    -0.336 OA
ATOM      6  N   UNL     1      -1.445  -0.643  24.040  0.00  0.00    -0.190 NA
ATOM      7  N   UNL     1       0.088  -1.962  25.108  0.00  0.00    -0.056 NA
ATOM     16  C   UNL     1      -2.049  -1.591  24.710  0.00  0.00    +0.245 A 
ATOM     20  C   UNL     1      -0.136  -0.911  24.314  0.00  0.00    +0.205 A 
ENDROOT
BRANCH  20  23
ATOM      8  N   UNL     1       0.525   1.630  25.396  0.00  0.00    -0.326 N 
ATOM     10  N   UNL     1       2.256   1.909  23.807  0.00  0.00    -0.240 NA
ATOM     23  C   UNL     1       0.926  -0.110  23.777  0.00  0.00    +0.062 A 
ATOM     25  C   UNL     1       1.262   1.132  24.291  0.00  0.00    +0.130 A 
ATOM     26  C   UNL     1       1.658  -0.585  22.693  0.00  0.00    +0.016 A 
ATOM     27  C   UNL     1       2.688   0.186  22.167  0.00  0.00    +0.020 A 
ATOM     29  C   UNL     1       2.945   1.414  22.754  0.00  0.00    +0.113 A 
ATOM     32  H   UNL     1       0.055   0.938  25.969  0.00  0.00    +0.148 HD
BRANCH   8  28
ATOM     28  C   UNL     1       0.797   2.897  25.993  0.00  0.00    +0.131 C 
BRANCH  28  30
ATOM     30  C   UNL     1       0.716   2.785  27.506  0.00  0.00    +0.178 C 
BRANCH  30   4
ATOM      4  O   UNL     1       2.024   2.871  28.057  0.00  0.00    -0.381 OA
ATOM     31  C   UNL     1       2.041   2.474  29.422  0.00  0.00    +0.194 C 
ENDBRANCH  30   4
ENDBRANCH  28  30
ENDBRANCH   8  28
ENDBRANCH  20  23
BRANCH  16  11
ATOM      5  N   UNL     1      -4.370  -0.793  24.303  0.00  0.00    -0.287 NA
ATOM     11  C   UNL     1      -3.529  -1.880  24.843  0.00  0.00    +0.146 C 
ATOM     12  C   UNL     1      -3.962  -3.135  24.062  0.00  0.00    +0.030 C 
ATOM     13  C   UNL     1      -5.090  -2.668  23.152  0.00  0.00    +0.017 C 
ATOM     14  C   UNL     1      -5.608  -1.422  23.839  0.00  0.00    +0.085 C 
BRANCH   5  15
ATOM     15  C   UNL     1      -4.623   0.270  25.266  0.00  0.00    +0.120 C 
BRANCH  15  17
ATOM     17  C   UNL     1      -3.742   1.467  25.021  0.00  0.00    -0.033 A 
ATOM     18  C   UNL     1      -3.047   1.587  23.817  0.00  0.00    +0.007 A 
ATOM     19  C   UNL     1      -3.622   2.455  25.997  0.00  0.00    +0.007 A 
ATOM     21  C   UNL     1      -2.232   2.697  23.591  0.00  0.00    +0.033 A 
ATOM     22  C   UNL     1      -2.807   3.564  25.772  0.00  0.00    +0.033 A 
ATOM     24  C   UNL     1      -2.111   3.684  24.569  0.00  0.00    +0.126 A 
BRANCH  24   9
ATOM      2  O   UNL     1      -0.392   4.744  23.456  0.00  0.00    -0.126 OA
ATOM      3  O   UNL     1      -1.459   5.848  25.025  0.00  0.00    -0.126 OA
ATOM      9  N   UNL     1      -1.281   4.813  24.338  0.00  0.00    +0.056 N 
ENDBRANCH  24   9
ENDBRANCH  15  17
ENDBRANCH   5  15
ENDBRANCH  16  11
TORSDOF 8
ENDMDL
MODEL 10
REMARK VINA RESULT:       2.2     17.088     19.162
REMARK  Name = 45783386
REMARK  9 active torsions:
REMARK  status: ('A' for Active; 'I' for Inactive)
REMARK    1  A    between atoms: O_4  and  C_30
REMARK    2  A    between atoms: O_4  and  C_31
REMARK    3  A    between atoms: N_5  and  C_15
REMARK    4  A    between atoms: N_8  and  C_28
REMARK    5  A    between atoms: N_9  and  C_24
REMARK    6  A    between atoms: C_11  and  C_16
REMARK    7  A    between atoms: C_15  and  C_17
REMARK    8  A    between atoms: C_20  and  C_23
REMARK    9  A    between atoms: C_28  and  C_30
REMARK                            x       y       z     vdW  Elec       q    Type
REMARK                         _______ _______ _______ _____ _____    ______ ____
ROOT
ATOM      1  O   UNL     1      -0.010  -0.875  23.619  0.00  0.00    -0.336 OA
ATOM      6  N   UNL     1      -1.426   0.324  24.872  0.00  0.00    -0.190 NA
ATOM      7  N   UNL     1       0.423   0.453  23.531  0.00  0.00    -0.056 NA
ATOM     16  C   UNL     1      -1.103  -0.863  24.426  0.00  0.00    +0.245 A 
ATOM     20  C   UNL     1      -0.462   1.099  24.296  0.00  0.00    +0.205 A 
ENDROOT
BRANCH  20  23
ATOM      8  N   UNL     1       0.203   2.225  26.818  0.00  0.00    -0.326 N 
ATOM     10  N   UNL     1      -0.034   4.415  25.956  0.00  0.00    -0.240 NA
ATOM     23  C   UNL     1      -0.411   2.518  24.506  0.00  0.00    +0.062 A 
ATOM     25  C   UNL     1      -0.090   3.084  25.728  0.00  0.00    +0.130 A 
ATOM     26  C   UNL     1      -0.696   3.374  23.447  0.00  0.00    +0.016 A 
ATOM     27  C   UNL     1      -0.649   4.749  23.641  0.00  0.00    +0.020 A 
ATOM     29  C   UNL     1      -0.316   5.216  24.903  0.00  0.00    +0.113 A 
ATOM     32  H   UNL     1       0.513   1.289  26.580  0.00  0.00    +0.148 HD
BRANCH   8  28
ATOM     28  C   UNL     1       0.544   2.714  28.114  0.00  0.00    +0.131 C 
BRANCH  28  30
ATOM     30  C   UNL     1       2.054   2.727  28.283  0.00  0.00    +0.178 C 
BRANCH  30   4
ATOM      4  O   UNL     1       2.384   2.337  29.609  0.00  0.00    -0.381 OA
ATOM     31  C   UNL     1       1.230   2.274  30.436  0.00  0.00    +0.194 C 
ENDBRANCH  30   4
ENDBRANCH  28  30
ENDBRANCH   8  28
ENDBRANCH  20  23
BRANCH  16  11
ATOM      5  N   UNL     1      -3.151  -2.253  24.171  0.00  0.00    -0.287 NA
ATOM     11  C   UNL     1      -1.767  -2.199  24.683  0.00  0.00    +0.146 C 
ATOM     12  C   UNL     1      -1.046  -3.366  23.985  0.00  0.00    +0.030 C 
ATOM     13  C   UNL     1      -2.116  -4.054  23.149  0.00  0.00    +0.017 C 
ATOM     14  C   UNL     1      -3.410  -3.652  23.828  0.00  0.00    +0.085 C 
BRANCH   5  15
ATOM     15  C   UNL     1      -4.133  -1.728  25.110  0.00  0.00    +0.120 C 
BRANCH  15  17
ATOM     17  C   UNL     1      -4.308  -0.240  24.965  0.00  0.00    -0.033 A 
ATOM     18  C   UNL     1      -3.906   0.398  23.791  0.00  0.00    +0.007 A 
ATOM     19  C   UNL     1      -4.870   0.501  26.003  0.00  0.00    +0.007 A 
ATOM     21  C   UNL     1      -4.069   1.777  23.657  0.00  0.00    +0.033 A 
ATOM     22  C   UNL     1      -5.032   1.879  25.870  0.00  0.00    +0.033 A 
ATOM     24  C   UNL     1      -4.631   2.518  24.696  0.00  0.00    +0.126 A 
BRANCH  24   9
ATOM      2  O   UNL     1      -4.131   4.530  23.687  0.00  0.00    -0.126 OA
ATOM      3  O   UNL     1      -5.602   4.515  25.316  0.00  0.00    -0.126 OA
ATOM      9  N   UNL     1      -4.796   3.921  24.559  0.00  0.00    +0.056 N 
ENDBRANCH  24   9
ENDBRANCH  15  17
ENDBRANCH   5  15
ENDBRANCH  16  11
TORSDOF 8
ENDMDL
