MODEL 1
REMARK VINA RESULT:      -4.8      0.000      0.000
REMARK  Name = 75536855
REMARK  4 active torsions:
REMARK  status: ('A' for Active; 'I' for Inactive)
REMARK    1  A    between atoms: O_2  and  C_8
REMARK    2  A    between atoms: O_2  and  C_14
REMARK    3  A    between atoms: C_13  and  C_15
REMARK    4  A    between atoms: C_18  and  C_21
REMARK                            x       y       z     vdW  Elec       q    Type
REMARK                         _______ _______ _______ _____ _____    ______ ____
ROOT
ATOM      1  O   UNL     1       1.192  -0.574  23.158  0.00  0.00    -0.375 OA
ATOM      3  O   UNL     1      -0.064   4.062  23.635  0.00  0.00    -0.268 OA
ATOM      4  N   UNL     1      -0.009   1.931  24.608  0.00  0.00    -0.290 N 
ATOM      8  C   UNL     1      -0.201  -0.554  25.161  0.00  0.00    +0.218 C 
ATOM      9  C   UNL     1      -0.703   0.879  25.360  0.00  0.00    +0.155 C 
ATOM     10  C   UNL     1       1.350   1.665  24.133  0.00  0.00    +0.136 C 
ATOM     11  C   UNL     1      -0.076  -0.947  23.691  0.00  0.00    +0.206 C 
ATOM     12  C   UNL     1       1.332   0.813  22.871  0.00  0.00    +0.179 C 
ATOM     13  C   UNL     1      -0.597   3.167  24.289  0.00  0.00    +0.267 C 
ENDROOT
BRANCH  13  15
ATOM      6  N   UNL     1      -2.966   3.164  23.908  0.00  0.00    -0.247 NA
ATOM      7  N   UNL     1      -3.444   4.189  26.474  0.00  0.00    -0.259 NA
ATOM     15  C   UNL     1      -1.962   3.434  24.766  0.00  0.00    +0.144 A 
ATOM     17  C   UNL     1      -2.198   3.937  26.027  0.00  0.00    +0.143 A 
ATOM     22  C   UNL     1      -4.212   3.416  24.355  0.00  0.00    +0.131 A 
ATOM     23  C   UNL     1      -4.447   3.919  25.616  0.00  0.00    +0.130 A 
ENDBRANCH  13  15
BRANCH   8   2
ATOM      2  O   UNL     1      -1.151  -1.414  25.793  0.00  0.00    -0.469 OA
BRANCH   2  14
ATOM      5  N   UNL     1      -3.214  -0.507  25.248  0.00  0.00    -0.218 NA
ATOM     14  C   UNL     1      -2.359  -1.552  25.168  0.00  0.00    +0.215 A 
ATOM     16  C   UNL     1      -2.640  -2.734  24.502  0.00  0.00    +0.067 A 
ATOM     18  C   UNL     1      -4.406  -0.657  24.628  0.00  0.00    +0.042 A 
ATOM     19  C   UNL     1      -3.877  -2.852  23.878  0.00  0.00    +0.007 A 
ATOM     20  C   UNL     1      -4.782  -1.798  23.937  0.00  0.00    +0.023 A 
ATOM     21  C   UNL     1      -5.353   0.492  24.715  0.00  0.00    +0.066 C 
ENDBRANCH   2  14
ENDBRANCH   8   2
TORSDOF 3
ENDMDL
MODEL 2
REMARK VINA RESULT:      -4.7      1.802      4.407
REMARK  Name = 75536855
REMARK  4 active torsions:
REMARK  status: ('A' for Active; 'I' for Inactive)
REMARK    1  A    between atoms: O_2  and  C_8
REMARK    2  A    between atoms: O_2  and  C_14
REMARK    3  A    between atoms: C_13  and  C_15
REMARK    4  A    between atoms: C_18  and  C_21
REMARK                            x       y       z     vdW  Elec       q    Type
REMARK                         _______ _______ _______ _____ _____    ______ ____
ROOT
ATOM      1  O   UNL     1      -3.774  -2.863  23.949  0.00  0.00    -0.375 OA
ATOM      3  O   UNL     1       0.609  -0.892  24.411  0.00  0.00    -0.268 OA
ATOM      4  N   UNL     1      -1.618  -0.924  25.140  0.00  0.00    -0.290 N 
ATOM      8  C   UNL     1      -4.161  -0.908  25.358  0.00  0.00    +0.218 C 
ATOM      9  C   UNL     1      -2.825  -0.176  25.511  0.00  0.00    +0.155 C 
ATOM     10  C   UNL     1      -1.682  -2.386  25.128  0.00  0.00    +0.136 C 
ATOM     11  C   UNL     1      -4.338  -1.555  23.986  0.00  0.00    +0.206 C 
ATOM     12  C   UNL     1      -2.354  -2.895  23.859  0.00  0.00    +0.179 C 
ATOM     13  C   UNL     1      -0.415  -0.306  24.759  0.00  0.00    +0.267 C 
ENDROOT
BRANCH  13  15
ATOM      6  N   UNL     1      -0.854   1.781  25.858  0.00  0.00    -0.247 NA
ATOM      7  N   UNL     1       0.256   3.214  23.718  0.00  0.00    -0.259 NA
ATOM     15  C   UNL     1      -0.351   1.163  24.771  0.00  0.00    +0.144 A 
ATOM     17  C   UNL     1       0.194   1.868  23.720  0.00  0.00    +0.143 A 
ATOM     22  C   UNL     1      -0.791   3.128  25.857  0.00  0.00    +0.131 A 
ATOM     23  C   UNL     1      -0.246   3.832  24.806  0.00  0.00    +0.130 A 
ENDBRANCH  13  15
BRANCH   8   2
ATOM      2  O   UNL     1      -5.189   0.066  25.548  0.00  0.00    -0.469 OA
BRANCH   2  14
ATOM      5  N   UNL     1      -4.139   1.485  24.044  0.00  0.00    -0.218 NA
ATOM     14  C   UNL     1      -4.899   1.343  25.154  0.00  0.00    +0.215 A 
ATOM     16  C   UNL     1      -5.389   2.404  25.899  0.00  0.00    +0.067 A 
ATOM     18  C   UNL     1      -3.860   2.752  23.666  0.00  0.00    +0.042 A 
ATOM     19  C   UNL     1      -5.079   3.692  25.479  0.00  0.00    +0.007 A 
ATOM     20  C   UNL     1      -4.301   3.879  24.342  0.00  0.00    +0.023 A 
ATOM     21  C   UNL     1      -3.020   2.914  22.443  0.00  0.00    +0.066 C 
ENDBRANCH   2  14
ENDBRANCH   8   2
TORSDOF 3
ENDMDL
MODEL 3
REMARK VINA RESULT:      -4.5      1.836      5.431
REMARK  Name = 75536855
REMARK  4 active torsions:
REMARK  status: ('A' for Active; 'I' for Inactive)
REMARK    1  A    between atoms: O_2  and  C_8
REMARK    2  A    between atoms: O_2  and  C_14
REMARK    3  A    between atoms: C_13  and  C_15
REMARK    4  A    between atoms: C_18  and  C_21
REMARK                            x       y       z     vdW  Elec       q    Type
REMARK                         _______ _______ _______ _____ _____    ______ ____
ROOT
ATOM      1  O   UNL     1      -2.259   4.802  24.448  0.00  0.00    -0.375 OA
ATOM      3  O   UNL     1      -5.763   1.496  24.763  0.00  0.00    -0.268 OA
ATOM      4  N   UNL     1      -3.629   2.171  25.459  0.00  0.00    -0.290 N 
ATOM      8  C   UNL     1      -1.205   2.951  25.637  0.00  0.00    +0.218 C 
ATOM      9  C   UNL     1      -2.231   1.818  25.731  0.00  0.00    +0.155 C 
ATOM     10  C   UNL     1      -4.033   3.570  25.600  0.00  0.00    +0.136 C 
ATOM     11  C   UNL     1      -1.308   3.748  24.338  0.00  0.00    +0.206 C 
ATOM     12  C   UNL     1      -3.619   4.386  24.383  0.00  0.00    +0.179 C 
ATOM     13  C   UNL     1      -4.590   1.239  25.033  0.00  0.00    +0.267 C 
ENDROOT
BRANCH  13  15
ATOM      6  N   UNL     1      -3.642  -0.752  25.977  0.00  0.00    -0.247 NA
ATOM      7  N   UNL     1      -3.978  -2.134  23.561  0.00  0.00    -0.259 NA
ATOM     15  C   UNL     1      -4.184  -0.168  24.891  0.00  0.00    +0.144 A 
ATOM     17  C   UNL     1      -4.349  -0.847  23.703  0.00  0.00    +0.143 A 
ATOM     22  C   UNL     1      -3.272  -2.041  25.835  0.00  0.00    +0.131 A 
ATOM     23  C   UNL     1      -3.437  -2.720  24.647  0.00  0.00    +0.130 A 
ENDBRANCH  13  15
BRANCH   8   2
ATOM      2  O   UNL     1       0.086   2.344  25.708  0.00  0.00    -0.469 OA
BRANCH   2  14
ATOM      5  N   UNL     1       1.544   1.521  24.104  0.00  0.00    -0.218 NA
ATOM     14  C   UNL     1       0.369   1.397  24.763  0.00  0.00    +0.215 A 
ATOM     16  C   UNL     1      -0.546   0.383  24.532  0.00  0.00    +0.067 A 
ATOM     18  C   UNL     1       1.811   0.580  23.171  0.00  0.00    +0.042 A 
ATOM     19  C   UNL     1      -0.236  -0.565  23.564  0.00  0.00    +0.007 A 
ATOM     20  C   UNL     1       0.963  -0.473  22.866  0.00  0.00    +0.023 A 
ATOM     21  C   UNL     1       3.105   0.713  22.440  0.00  0.00    +0.066 C 
ENDBRANCH   2  14
ENDBRANCH   8   2
TORSDOF 3
ENDMDL
MODEL 4
REMARK VINA RESULT:      -4.4      1.961      4.441
REMARK  Name = 75536855
REMARK  4 active torsions:
REMARK  status: ('A' for Active; 'I' for Inactive)
REMARK    1  A    between atoms: O_2  and  C_8
REMARK    2  A    between atoms: O_2  and  C_14
REMARK    3  A    between atoms: C_13  and  C_15
REMARK    4  A    between atoms: C_18  and  C_21
REMARK                            x       y       z     vdW  Elec       q    Type
REMARK                         _______ _______ _______ _____ _____    ______ ____
ROOT
ATOM      1  O   UNL     1      -5.649   3.091  26.264  0.00  0.00    -0.375 OA
ATOM      3  O   UNL     1      -1.304   4.458  24.666  0.00  0.00    -0.268 OA
ATOM      4  N   UNL     1      -3.179   3.092  24.335  0.00  0.00    -0.290 N 
ATOM      8  C   UNL     1      -5.124   1.451  24.535  0.00  0.00    +0.218 C 
ATOM      9  C   UNL     1      -3.722   1.768  24.007  0.00  0.00    +0.155 C 
ATOM     10  C   UNL     1      -4.116   4.161  24.684  0.00  0.00    +0.136 C 
ATOM     11  C   UNL     1      -5.282   1.735  26.027  0.00  0.00    +0.206 C 
ATOM     12  C   UNL     1      -4.587   4.027  26.126  0.00  0.00    +0.179 C 
ATOM     13  C   UNL     1      -1.803   3.375  24.366  0.00  0.00    +0.267 C 
ENDROOT
BRANCH  13  15
ATOM      6  N   UNL     1      -1.319   1.346  23.181  0.00  0.00    -0.247 NA
ATOM      7  N   UNL     1       1.290   1.294  24.207  0.00  0.00    -0.259 NA
ATOM     15  C   UNL     1      -0.862   2.300  24.015  0.00  0.00    +0.144 A 
ATOM     17  C   UNL     1       0.421   2.274  24.519  0.00  0.00    +0.143 A 
ATOM     22  C   UNL     1      -0.448   0.365  22.868  0.00  0.00    +0.131 A 
ATOM     23  C   UNL     1       0.834   0.340  23.372  0.00  0.00    +0.130 A 
ENDBRANCH  13  15
BRANCH   8   2
ATOM      2  O   UNL     1      -5.346   0.059  24.301  0.00  0.00    -0.469 OA
BRANCH   2  14
ATOM      5  N   UNL     1      -3.285  -0.322  25.293  0.00  0.00    -0.218 NA
ATOM     14  C   UNL     1      -4.275  -0.770  24.487  0.00  0.00    +0.215 A 
ATOM     16  C   UNL     1      -4.259  -2.001  23.852  0.00  0.00    +0.067 A 
ATOM     18  C   UNL     1      -2.232  -1.150  25.468  0.00  0.00    +0.042 A 
ATOM     19  C   UNL     1      -3.158  -2.825  24.056  0.00  0.00    +0.007 A 
ATOM     20  C   UNL     1      -2.120  -2.399  24.878  0.00  0.00    +0.023 A 
ATOM     21  C   UNL     1      -1.136  -0.659  26.354  0.00  0.00    +0.066 C 
ENDBRANCH   2  14
ENDBRANCH   8   2
TORSDOF 3
ENDMDL
MODEL 5
REMARK VINA RESULT:      -3.8      1.641      4.515
REMARK  Name = 75536855
REMARK  4 active torsions:
REMARK  status: ('A' for Active; 'I' for Inactive)
REMARK    1  A    between atoms: O_2  and  C_8
REMARK    2  A    between atoms: O_2  and  C_14
REMARK    3  A    between atoms: C_13  and  C_15
REMARK    4  A    between atoms: C_18  and  C_21
REMARK                            x       y       z     vdW  Elec       q    Type
REMARK                         _______ _______ _______ _____ _____    ______ ____
ROOT
ATOM      1  O   UNL     1      -0.863  -2.206  25.279  0.00  0.00    -0.375 OA
ATOM      3  O   UNL     1      -5.342  -0.721  24.263  0.00  0.00    -0.268 OA
ATOM      4  N   UNL     1      -3.045  -0.285  24.107  0.00  0.00    -0.290 N 
ATOM      8  C   UNL     1      -0.554   0.093  24.520  0.00  0.00    +0.218 C 
ATOM      9  C   UNL     1      -1.941   0.674  24.231  0.00  0.00    +0.155 C 
ATOM     10  C   UNL     1      -2.725  -1.676  23.781  0.00  0.00    +0.136 C 
ATOM     11  C   UNL     1      -0.545  -0.881  25.696  0.00  0.00    +0.206 C 
ATOM     12  C   UNL     1      -2.243  -2.431  25.013  0.00  0.00    +0.179 C 
ATOM     13  C   UNL     1      -4.391   0.056  24.324  0.00  0.00    +0.267 C 
ENDROOT
BRANCH  13  15
ATOM      6  N   UNL     1      -4.200   2.398  23.838  0.00  0.00    -0.247 NA
ATOM      7  N   UNL     1      -5.794   3.051  26.051  0.00  0.00    -0.259 NA
ATOM     15  C   UNL     1      -4.712   1.454  24.652  0.00  0.00    +0.144 A 
ATOM     17  C   UNL     1      -5.495   1.775  25.739  0.00  0.00    +0.143 A 
ATOM     22  C   UNL     1      -4.500   3.675  24.150  0.00  0.00    +0.131 A 
ATOM     23  C   UNL     1      -5.283   3.996  25.237  0.00  0.00    +0.130 A 
ENDBRANCH  13  15
BRANCH   8   2
ATOM      2  O   UNL     1       0.299   1.197  24.825  0.00  0.00    -0.469 OA
BRANCH   2  14
ATOM      5  N   UNL     1      -1.155   2.587  25.977  0.00  0.00    -0.218 NA
ATOM     14  C   UNL     1      -0.302   2.419  24.941  0.00  0.00    +0.215 A 
ATOM     16  C   UNL     1      -0.012   3.402  24.008  0.00  0.00    +0.067 A 
ATOM     18  C   UNL     1      -1.744   3.799  26.080  0.00  0.00    +0.042 A 
ATOM     19  C   UNL     1      -0.638   4.636  24.147  0.00  0.00    +0.007 A 
ATOM     20  C   UNL     1      -1.521   4.847  25.199  0.00  0.00    +0.023 A 
ATOM     21  C   UNL     1      -2.688   3.989  27.219  0.00  0.00    +0.066 C 
ENDBRANCH   2  14
ENDBRANCH   8   2
TORSDOF 3
ENDMDL
MODEL 6
REMARK VINA RESULT:      -3.7      1.609      2.577
REMARK  Name = 75536855
REMARK  4 active torsions:
REMARK  status: ('A' for Active; 'I' for Inactive)
REMARK    1  A    between atoms: O_2  and  C_8
REMARK    2  A    between atoms: O_2  and  C_14
REMARK    3  A    between atoms: C_13  and  C_15
REMARK    4  A    between atoms: C_18  and  C_21
REMARK                            x       y       z     vdW  Elec       q    Type
REMARK                         _______ _______ _______ _____ _____    ______ ____
ROOT
ATOM      1  O   UNL     1       0.762   2.499  23.978  0.00  0.00    -0.375 OA
ATOM      3  O   UNL     1      -3.368   4.996  24.038  0.00  0.00    -0.268 OA
ATOM      4  N   UNL     1      -1.971   3.483  25.155  0.00  0.00    -0.290 N 
ATOM      8  C   UNL     1      -0.466   1.544  25.858  0.00  0.00    +0.218 C 
ATOM      9  C   UNL     1      -1.830   2.238  25.919  0.00  0.00    +0.155 C 
ATOM     10  C   UNL     1      -0.759   4.227  24.809  0.00  0.00    +0.136 C 
ATOM     11  C   UNL     1       0.047   1.353  24.433  0.00  0.00    +0.206 C 
ATOM     12  C   UNL     1      -0.056   3.603  23.610  0.00  0.00    +0.179 C 
ATOM     13  C   UNL     1      -3.207   3.976  24.707  0.00  0.00    +0.267 C 
ENDROOT
BRANCH  13  15
ATOM      6  N   UNL     1      -4.813   2.270  24.190  0.00  0.00    -0.247 NA
ATOM      7  N   UNL     1      -6.249   2.823  26.533  0.00  0.00    -0.259 NA
ATOM     15  C   UNL     1      -4.425   3.228  25.055  0.00  0.00    +0.144 A 
ATOM     17  C   UNL     1      -5.132   3.499  26.206  0.00  0.00    +0.143 A 
ATOM     22  C   UNL     1      -5.931   1.593  24.518  0.00  0.00    +0.131 A 
ATOM     23  C   UNL     1      -6.637   1.864  25.669  0.00  0.00    +0.130 A 
ENDBRANCH  13  15
BRANCH   8   2
ATOM      2  O   UNL     1      -0.627   0.263  26.469  0.00  0.00    -0.469 OA
BRANCH   2  14
ATOM      5  N   UNL     1      -2.472  -0.554  25.327  0.00  0.00    -0.218 NA
ATOM     14  C   UNL     1      -1.181  -0.718  25.694  0.00  0.00    +0.215 A 
ATOM     16  C   UNL     1      -0.405  -1.808  25.334  0.00  0.00    +0.067 A 
ATOM     18  C   UNL     1      -3.008  -1.531  24.562  0.00  0.00    +0.042 A 
ATOM     19  C   UNL     1      -0.992  -2.793  24.548  0.00  0.00    +0.007 A 
ATOM     20  C   UNL     1      -2.317  -2.660  24.150  0.00  0.00    +0.023 A 
ATOM     21  C   UNL     1      -4.433  -1.356  24.157  0.00  0.00    +0.066 C 
ENDBRANCH   2  14
ENDBRANCH   8   2
TORSDOF 3
ENDMDL
MODEL 7
REMARK VINA RESULT:      -3.1      1.572      5.067
REMARK  Name = 75536855
REMARK  4 active torsions:
REMARK  status: ('A' for Active; 'I' for Inactive)
REMARK    1  A    between atoms: O_2  and  C_8
REMARK    2  A    between atoms: O_2  and  C_14
REMARK    3  A    between atoms: C_13  and  C_15
REMARK    4  A    between atoms: C_18  and  C_21
REMARK                            x       y       z     vdW  Elec       q    Type
REMARK                         _______ _______ _______ _____ _____    ______ ____
ROOT
ATOM      1  O   UNL     1      -0.208   3.509  25.490  0.00  0.00    -0.375 OA
ATOM      3  O   UNL     1       0.052  -1.309  25.353  0.00  0.00    -0.268 OA
ATOM      4  N   UNL     1      -0.701   0.648  24.308  0.00  0.00    -0.290 N 
ATOM      8  C   UNL     1      -1.750   2.895  23.702  0.00  0.00    +0.218 C 
ATOM      9  C   UNL     1      -1.783   1.366  23.624  0.00  0.00    +0.155 C 
ATOM     10  C   UNL     1       0.546   1.365  24.580  0.00  0.00    +0.136 C 
ATOM     11  C   UNL     1      -1.582   3.420  25.126  0.00  0.00    +0.206 C 
ATOM     12  C   UNL     1       0.407   2.263  25.802  0.00  0.00    +0.179 C 
ATOM     13  C   UNL     1      -0.816  -0.681  24.749  0.00  0.00    +0.267 C 
ENDROOT
BRANCH  13  15
ATOM      6  N   UNL     1      -3.178  -0.649  24.327  0.00  0.00    -0.247 NA
ATOM      7  N   UNL     1      -3.246  -3.445  24.134  0.00  0.00    -0.259 NA
ATOM     15  C   UNL     1      -2.069  -1.401  24.475  0.00  0.00    +0.144 A 
ATOM     17  C   UNL     1      -2.104  -2.775  24.381  0.00  0.00    +0.143 A 
ATOM     22  C   UNL     1      -4.321  -1.320  24.079  0.00  0.00    +0.131 A 
ATOM     23  C   UNL     1      -4.354  -2.693  23.984  0.00  0.00    +0.130 A 
ENDBRANCH  13  15
BRANCH   8   2
ATOM      2  O   UNL     1      -2.996   3.361  23.180  0.00  0.00    -0.469 OA
BRANCH   2  14
ATOM      5  N   UNL     1      -4.619   2.290  24.442  0.00  0.00    -0.218 NA
ATOM     14  C   UNL     1      -4.034   3.449  24.064  0.00  0.00    +0.215 A 
ATOM     16  C   UNL     1      -4.428   4.699  24.516  0.00  0.00    +0.067 A 
ATOM     18  C   UNL     1      -5.645   2.391  25.316  0.00  0.00    +0.042 A 
ATOM     19  C   UNL     1      -5.488   4.762  25.413  0.00  0.00    +0.007 A 
ATOM     20  C   UNL     1      -6.114   3.591  25.826  0.00  0.00    +0.023 A 
ATOM     21  C   UNL     1      -6.294   1.115  25.734  0.00  0.00    +0.066 C 
ENDBRANCH   2  14
ENDBRANCH   8   2
TORSDOF 3
ENDMDL
MODEL 8
REMARK VINA RESULT:      -2.6      1.976      5.047
REMARK  Name = 75536855
REMARK  4 active torsions:
REMARK  status: ('A' for Active; 'I' for Inactive)
REMARK    1  A    between atoms: O_2  and  C_8
REMARK    2  A    between atoms: O_2  and  C_14
REMARK    3  A    between atoms: C_13  and  C_15
REMARK    4  A    between atoms: C_18  and  C_21
REMARK                            x       y       z     vdW  Elec       q    Type
REMARK                         _______ _______ _______ _____ _____    ______ ____
ROOT
ATOM      1  O   UNL     1      -1.791  -2.524  25.139  0.00  0.00    -0.375 OA
ATOM      3  O   UNL     1      -5.877  -0.003  24.642  0.00  0.00    -0.268 OA
ATOM      4  N   UNL     1      -3.592  -0.157  24.150  0.00  0.00    -0.290 N 
ATOM      8  C   UNL     1      -1.050  -0.398  24.197  0.00  0.00    +0.218 C 
ATOM      9  C   UNL     1      -2.282   0.501  24.060  0.00  0.00    +0.155 C 
ATOM     10  C   UNL     1      -3.669  -1.592  23.875  0.00  0.00    +0.136 C 
ATOM     11  C   UNL     1      -1.104  -1.308  25.422  0.00  0.00    +0.206 C 
ATOM     12  C   UNL     1      -3.208  -2.406  25.077  0.00  0.00    +0.179 C 
ATOM     13  C   UNL     1      -4.767   0.515  24.523  0.00  0.00    +0.267 C 
ENDROOT
BRANCH  13  15
ATOM      6  N   UNL     1      -3.763   2.655  24.112  0.00  0.00    -0.247 NA
ATOM      7  N   UNL     1      -5.458   3.880  25.980  0.00  0.00    -0.259 NA
ATOM     15  C   UNL     1      -4.690   1.958  24.799  0.00  0.00    +0.144 A 
ATOM     17  C   UNL     1      -5.522   2.560  25.717  0.00  0.00    +0.143 A 
ATOM     22  C   UNL     1      -3.699   3.975  24.375  0.00  0.00    +0.131 A 
ATOM     23  C   UNL     1      -4.532   4.577  25.293  0.00  0.00    +0.130 A 
ENDBRANCH  13  15
BRANCH   8   2
ATOM      2  O   UNL     1       0.080   0.467  24.310  0.00  0.00    -0.469 OA
BRANCH   2  14
ATOM      5  N   UNL     1       2.313   0.716  23.735  0.00  0.00    -0.218 NA
ATOM     14  C   UNL     1       1.075   0.296  23.387  0.00  0.00    +0.215 A 
ATOM     16  C   UNL     1       0.768  -0.285  22.168  0.00  0.00    +0.067 A 
ATOM     18  C   UNL     1       3.287   0.542  22.814  0.00  0.00    +0.042 A 
ATOM     19  C   UNL     1       1.796  -0.446  21.246  0.00  0.00    +0.007 A 
ATOM     20  C   UNL     1       3.082  -0.028  21.567  0.00  0.00    +0.023 A 
ATOM     21  C   UNL     1       4.653   1.006  23.192  0.00  0.00    +0.066 C 
ENDBRANCH   2  14
ENDBRANCH   8   2
TORSDOF 3
ENDMDL
MODEL 9
REMARK VINA RESULT:      -2.3      1.932      4.600
REMARK  Name = 75536855
REMARK  4 active torsions:
REMARK  status: ('A' for Active; 'I' for Inactive)
REMARK    1  A    between atoms: O_2  and  C_8
REMARK    2  A    between atoms: O_2  and  C_14
REMARK    3  A    between atoms: C_13  and  C_15
REMARK    4  A    between atoms: C_18  and  C_21
REMARK                            x       y       z     vdW  Elec       q    Type
REMARK                         _______ _______ _______ _____ _____    ______ ____
ROOT
ATOM      1  O   UNL     1      -1.810   5.633  24.962  0.00  0.00    -0.375 OA
ATOM      3  O   UNL     1       1.258   1.908  25.025  0.00  0.00    -0.268 OA
ATOM      4  N   UNL     1      -0.688   2.835  24.107  0.00  0.00    -0.290 N 
ATOM      8  C   UNL     1      -2.962   3.911  23.673  0.00  0.00    +0.218 C 
ATOM      9  C   UNL     1      -2.084   2.656  23.690  0.00  0.00    +0.155 C 
ATOM     10  C   UNL     1      -0.097   4.170  24.006  0.00  0.00    +0.136 C 
ATOM     11  C   UNL     1      -2.894   4.709  24.973  0.00  0.00    +0.206 C 
ATOM     12  C   UNL     1      -0.529   5.050  25.171  0.00  0.00    +0.179 C 
ATOM     13  C   UNL     1       0.098   1.796  24.634  0.00  0.00    +0.267 C 
ENDROOT
BRANCH  13  15
ATOM      6  N   UNL     1      -0.257  -0.391  23.714  0.00  0.00    -0.247 NA
ATOM      7  N   UNL     1      -1.813  -1.138  25.924  0.00  0.00    -0.259 NA
ATOM     15  C   UNL     1      -0.497   0.454  24.736  0.00  0.00    +0.144 A 
ATOM     17  C   UNL     1      -1.262   0.086  25.821  0.00  0.00    +0.143 A 
ATOM     22  C   UNL     1      -0.808  -1.617  23.817  0.00  0.00    +0.131 A 
ATOM     23  C   UNL     1      -1.573  -1.984  24.903  0.00  0.00    +0.130 A 
ENDBRANCH  13  15
BRANCH   8   2
ATOM      2  O   UNL     1      -4.305   3.471  23.467  0.00  0.00    -0.469 OA
BRANCH   2  14
ATOM      5  N   UNL     1      -4.383   1.192  23.888  0.00  0.00    -0.218 NA
ATOM     14  C   UNL     1      -4.739   2.443  24.258  0.00  0.00    +0.215 A 
ATOM     16  C   UNL     1      -5.506   2.733  25.374  0.00  0.00    +0.067 A 
ATOM     18  C   UNL     1      -4.820   0.185  24.677  0.00  0.00    +0.042 A 
ATOM     19  C   UNL     1      -5.937   1.670  26.161  0.00  0.00    +0.007 A 
ATOM     20  C   UNL     1      -5.592   0.370  25.813  0.00  0.00    +0.023 A 
ATOM     21  C   UNL     1      -4.433  -1.197  24.271  0.00  0.00    +0.066 C 
ENDBRANCH   2  14
ENDBRANCH   8   2
TORSDOF 3
ENDMDL
MODEL 10
REMARK VINA RESULT:      -2.1      1.437      2.043
REMARK  Name = 75536855
REMARK  4 active torsions:
REMARK  status: ('A' for Active; 'I' for Inactive)
REMARK    1  A    between atoms: O_2  and  C_8
REMARK    2  A    between atoms: O_2  and  C_14
REMARK    3  A    between atoms: C_13  and  C_15
REMARK    4  A    between atoms: C_18  and  C_21
REMARK                            x       y       z     vdW  Elec       q    Type
REMARK                         _______ _______ _______ _____ _____    ______ ____
ROOT
ATOM      1  O   UNL     1       1.042   1.429  23.997  0.00  0.00    -0.375 OA
ATOM      3  O   UNL     1      -2.372   4.835  24.208  0.00  0.00    -0.268 OA
ATOM      4  N   UNL     1      -1.414   2.948  25.214  0.00  0.00    -0.290 N 
ATOM      8  C   UNL     1      -0.440   0.656  25.774  0.00  0.00    +0.218 C 
ATOM      9  C   UNL     1      -1.601   1.650  25.874  0.00  0.00    +0.155 C 
ATOM     10  C   UNL     1      -0.049   3.403  24.948  0.00  0.00    +0.136 C 
ATOM     11  C   UNL     1       0.060   0.458  24.345  0.00  0.00    +0.206 C 
ATOM     12  C   UNL     1       0.524   2.724  23.711  0.00  0.00    +0.179 C 
ATOM     13  C   UNL     1      -2.481   3.758  24.792  0.00  0.00    +0.267 C 
ENDROOT
BRANCH  13  15
ATOM      6  N   UNL     1      -4.399   3.681  26.232  0.00  0.00    -0.247 NA
ATOM      7  N   UNL     1      -5.796   2.092  24.392  0.00  0.00    -0.259 NA
ATOM     15  C   UNL     1      -3.854   3.300  25.060  0.00  0.00    +0.144 A 
ATOM     17  C   UNL     1      -4.541   2.519  24.156  0.00  0.00    +0.143 A 
ATOM     22  C   UNL     1      -5.656   3.254  26.467  0.00  0.00    +0.131 A 
ATOM     23  C   UNL     1      -6.343   2.473  25.563  0.00  0.00    +0.130 A 
ENDBRANCH  13  15
BRANCH   8   2
ATOM      2  O   UNL     1      -0.923  -0.592  26.274  0.00  0.00    -0.469 OA
BRANCH   2  14
ATOM      5  N   UNL     1      -2.996  -0.753  25.248  0.00  0.00    -0.218 NA
ATOM     14  C   UNL     1      -1.772  -1.289  25.460  0.00  0.00    +0.215 A 
ATOM     16  C   UNL     1      -1.343  -2.485  24.908  0.00  0.00    +0.067 A 
ATOM     18  C   UNL     1      -3.826  -1.452  24.442  0.00  0.00    +0.042 A 
ATOM     19  C   UNL     1      -2.226  -3.175  24.085  0.00  0.00    +0.007 A 
ATOM     20  C   UNL     1      -3.493  -2.656  23.843  0.00  0.00    +0.023 A 
ATOM     21  C   UNL     1      -5.178  -0.866  24.207  0.00  0.00    +0.066 C 
ENDBRANCH   2  14
ENDBRANCH   8   2
TORSDOF 3
ENDMDL
