MODEL 1
REMARK VINA RESULT:      -2.8      0.000      0.000
REMARK  Name = 11879598
REMARK  6 active torsions:
REMARK  status: ('A' for Active; 'I' for Inactive)
REMARK    1  A    between atoms: O_3  and  C_18
REMARK    2  A    between atoms: O_3  and  C_21
REMARK    3  A    between atoms: N_6  and  C_14
REMARK    4  A    between atoms: N_7  and  C_15
REMARK    5  A    between atoms: N_11  and  C_24
REMARK    6  A    between atoms: C_19  and  C_20
REMARK                            x       y       z     vdW  Elec       q    Type
REMARK                         _______ _______ _______ _____ _____    ______ ____
ROOT
ATOM      6  N   UNL     1      -1.758   3.637  24.818  0.00  0.00    -0.187 N 
ATOM      8  N   UNL     1      -0.750   4.318  24.265  0.00  0.00    -0.041 NA
ATOM      9  N   UNL     1      -1.975   5.655  25.562  0.00  0.00    -0.071 NA
ATOM     10  N   UNL     1      -0.888   5.555  24.724  0.00  0.00    -0.020 NA
ATOM     18  C   UNL     1      -2.499   4.451  25.605  0.00  0.00    +0.342 A 
ENDROOT
BRANCH   6  14
ATOM      1  O   UNL     1      -1.279   1.527  22.354  0.00  0.00    -0.370 OA
ATOM      2  O   UNL     1      -0.920   0.096  25.131  0.00  0.00    -0.370 OA
ATOM     12  C   UNL     1      -0.648   1.425  24.651  0.00  0.00    +0.176 C 
ATOM     13  C   UNL     1      -0.158   1.293  23.222  0.00  0.00    +0.171 C 
ATOM     14  C   UNL     1      -1.943   2.209  24.544  0.00  0.00    +0.171 C 
ATOM     15  C   UNL     1       0.297  -0.145  23.114  0.00  0.00    +0.130 C 
ATOM     16  C   UNL     1      -2.428   1.880  23.136  0.00  0.00    +0.190 C 
ATOM     17  C   UNL     1      -0.622  -0.850  24.095  0.00  0.00    +0.185 C 
BRANCH  15   7
ATOM      4  O   UNL     1       2.588   0.098  21.401  0.00  0.00    -0.270 OA
ATOM      7  N   UNL     1       1.680  -0.285  23.501  0.00  0.00    -0.304 N 
ATOM     19  C   UNL     1       2.724  -0.150  22.597  0.00  0.00    +0.244 C 
ATOM     36  H   UNL     1       1.862  -0.604  24.447  0.00  0.00    +0.149 HD
BRANCH  19  20
ATOM     20  C   UNL     1       4.090  -0.349  23.147  0.00  0.00    +0.037 A 
ATOM     22  C   UNL     1       4.411  -1.568  23.706  0.00  0.00    +0.013 A 
ATOM     23  C   UNL     1       4.993   0.691  23.080  0.00  0.00    +0.013 A 
ATOM     32  C   UNL     1       5.693  -1.755  24.223  0.00  0.00    +0.001 A 
ATOM     33  C   UNL     1       6.275   0.504  23.595  0.00  0.00    +0.001 A 
ATOM     35  C   UNL     1       6.625  -0.718  24.167  0.00  0.00    +0.000 A 
ENDBRANCH  19  20
ENDBRANCH  15   7
ENDBRANCH   6  14
BRANCH  18   3
ATOM      3  O   UNL     1      -3.564   4.080  26.291  0.00  0.00    -0.423 OA
BRANCH   3  21
ATOM     21  C   UNL     1      -4.433   3.093  25.847  0.00  0.00    +0.134 A 
ATOM     24  C   UNL     1      -4.828   0.820  25.214  0.00  0.00    +0.033 A 
ATOM     25  C   UNL     1      -3.954   1.811  25.660  0.00  0.00    +0.069 A 
ATOM     28  C   UNL     1      -5.753   3.422  25.606  0.00  0.00    +0.046 A 
ATOM     31  C   UNL     1      -6.165   1.130  24.964  0.00  0.00    +0.023 A 
ATOM     34  C   UNL     1      -6.628   2.431  25.160  0.00  0.00    +0.005 A 
BRANCH  24  11
ATOM      5  O   UNL     1      -3.187  -2.998  24.574  0.00  0.00    -0.377 OA
ATOM     11  N   UNL     1      -4.366  -0.486  25.017  0.00  0.00    -0.325 N 
ATOM     26  C   UNL     1      -3.387  -1.025  25.971  0.00  0.00    +0.133 C 
ATOM     27  C   UNL     1      -4.287  -1.037  23.661  0.00  0.00    +0.133 C 
ATOM     29  C   UNL     1      -3.395  -2.548  25.913  0.00  0.00    +0.178 C 
ATOM     30  C   UNL     1      -4.248  -2.560  23.726  0.00  0.00    +0.178 C 
ENDBRANCH  24  11
ENDBRANCH   3  21
ENDBRANCH  18   3
TORSDOF 6
ENDMDL
