MODEL 1
REMARK VINA RESULT:       2.3      0.000      0.000
REMARK  Name = 71693411
REMARK  8 active torsions:
REMARK  status: ('A' for Active; 'I' for Inactive)
REMARK    1  A    between atoms: O_2  and  C_12
REMARK    2  A    between atoms: N_6  and  C_14
REMARK    3  A    between atoms: N_7  and  C_22
REMARK    4  A    between atoms: C_10  and  C_12
REMARK    5  A    between atoms: C_11  and  C_13
REMARK    6  A    between atoms: C_14  and  C_17
REMARK    7  A    between atoms: C_27  and  C_28
REMARK    8  A    between atoms: C_30  and  C_31
REMARK                            x       y       z     vdW  Elec       q    Type
REMARK                         _______ _______ _______ _____ _____    ______ ____
ROOT
ATOM      1  O   UNL     1      -4.586   0.120  24.743  0.00  0.00    -0.361 OA
ATOM      3  O   UNL     1      -6.124   2.062  27.104  0.00  0.00    -0.273 OA
ATOM      6  N   UNL     1      -4.677   2.744  25.404  0.00  0.00    -0.287 N 
ATOM     10  C   UNL     1      -4.209   2.489  24.038  0.00  0.00    +0.135 C 
ATOM     11  C   UNL     1      -3.955   0.979  23.787  0.00  0.00    +0.171 C 
ATOM     15  C   UNL     1      -5.567   1.870  26.025  0.00  0.00    +0.242 C 
ATOM     16  C   UNL     1      -5.819   0.614  25.225  0.00  0.00    +0.256 C 
ENDROOT
BRANCH  11  13
ATOM     13  C   UNL     1      -2.472   0.660  23.814  0.00  0.00    -0.017 A 
ATOM     18  C   UNL     1      -2.018  -0.504  24.435  0.00  0.00    +0.008 A 
ATOM     19  C   UNL     1      -1.561   1.532  23.217  0.00  0.00    +0.008 A 
ATOM     20  C   UNL     1      -0.655  -0.796  24.458  0.00  0.00    +0.023 A 
ATOM     21  C   UNL     1      -0.197   1.240  23.239  0.00  0.00    +0.023 A 
ATOM     22  C   UNL     1       0.256   0.075  23.860  0.00  0.00    +0.034 A 
BRANCH  22   7
ATOM      4  O   UNL     1       2.274   0.074  21.644  0.00  0.00    -0.268 OA
ATOM      7  N   UNL     1       1.620  -0.217  23.884  0.00  0.00    -0.280 N 
ATOM     27  C   UNL     1       2.524  -0.203  22.812  0.00  0.00    +0.270 C 
ATOM     33  H   UNL     1       1.997  -0.466  24.795  0.00  0.00    +0.155 HD
BRANCH  27  28
ATOM      5  O   UNL     1       5.582  -1.645  24.007  0.00  0.00    -0.359 OA
ATOM      9  N   UNL     1       4.199  -1.640  23.861  0.00  0.00    -0.073 NA
ATOM     28  C   UNL     1       3.930  -0.535  23.160  0.00  0.00    +0.168 A 
ATOM     29  C   UNL     1       5.090   0.190  22.840  0.00  0.00    +0.080 A 
ATOM     30  C   UNL     1       6.101  -0.550  23.394  0.00  0.00    +0.135 A 
ATOM     31  C   UNL     1       7.559  -0.395  23.451  0.00  0.00    +0.089 C 
ENDBRANCH  27  28
ENDBRANCH  22   7
ENDBRANCH  11  13
BRANCH  10  12
ATOM     12  C   UNL     1      -5.196   3.061  23.011  0.00  0.00    +0.181 C 
BRANCH  12   2
ATOM      2  O   UNL     1      -4.451   3.642  21.960  0.00  0.00    -0.393 OA
ATOM     32  H   UNL     1      -5.032   3.680  21.182  0.00  0.00    +0.209 HD
ENDBRANCH  12   2
ENDBRANCH  10  12
BRANCH   6  14
ATOM     14  C   UNL     1      -4.295   3.997  26.036  0.00  0.00    +0.145 C 
BRANCH  14  17
ATOM      8  N   UNL     1      -0.530   3.825  25.712  0.00  0.00    -0.263 NA
ATOM     17  C   UNL     1      -2.882   4.386  25.705  0.00  0.00    -0.012 A 
ATOM     23  C   UNL     1      -2.597   5.609  25.108  0.00  0.00    +0.008 A 
ATOM     24  C   UNL     1      -1.823   3.536  25.983  0.00  0.00    +0.115 A 
ATOM     25  C   UNL     1      -1.278   5.941  24.814  0.00  0.00    +0.020 A 
ATOM     26  C   UNL     1      -0.291   5.023  25.133  0.00  0.00    +0.111 A 
ENDBRANCH  14  17
ENDBRANCH   6  14
TORSDOF 7
ENDMDL
MODEL 2
REMARK VINA RESULT:       3.2      1.742      3.792
REMARK  Name = 71693411
REMARK  8 active torsions:
REMARK  status: ('A' for Active; 'I' for Inactive)
REMARK    1  A    between atoms: O_2  and  C_12
REMARK    2  A    between atoms: N_6  and  C_14
REMARK    3  A    between atoms: N_7  and  C_22
REMARK    4  A    between atoms: C_10  and  C_12
REMARK    5  A    between atoms: C_11  and  C_13
REMARK    6  A    between atoms: C_14  and  C_17
REMARK    7  A    between atoms: C_27  and  C_28
REMARK    8  A    between atoms: C_30  and  C_31
REMARK                            x       y       z     vdW  Elec       q    Type
REMARK                         _______ _______ _______ _____ _____    ______ ____
ROOT
ATOM      1  O   UNL     1      -3.729   3.415  23.290  0.00  0.00    -0.361 OA
ATOM      3  O   UNL     1      -6.615   1.595  23.560  0.00  0.00    -0.273 OA
ATOM      6  N   UNL     1      -4.945   1.886  25.166  0.00  0.00    -0.287 N 
ATOM     10  C   UNL     1      -3.931   2.797  25.705  0.00  0.00    +0.135 C 
ATOM     11  C   UNL     1      -3.107   3.477  24.579  0.00  0.00    +0.171 C 
ATOM     15  C   UNL     1      -5.655   2.216  24.014  0.00  0.00    +0.242 C 
ATOM     16  C   UNL     1      -5.141   3.465  23.337  0.00  0.00    +0.256 C 
ENDROOT
BRANCH  11  13
ATOM     13  C   UNL     1      -1.736   2.842  24.442  0.00  0.00    -0.017 A 
ATOM     18  C   UNL     1      -0.596   3.644  24.403  0.00  0.00    +0.008 A 
ATOM     19  C   UNL     1      -1.616   1.455  24.354  0.00  0.00    +0.008 A 
ATOM     20  C   UNL     1       0.665   3.059  24.277  0.00  0.00    +0.023 A 
ATOM     21  C   UNL     1      -0.356   0.869  24.229  0.00  0.00    +0.023 A 
ATOM     22  C   UNL     1       0.785   1.672  24.191  0.00  0.00    +0.034 A 
BRANCH  22   7
ATOM      4  O   UNL     1       1.890  -0.102  22.043  0.00  0.00    -0.268 OA
ATOM      7  N   UNL     1       2.045   1.087  24.065  0.00  0.00    -0.280 N 
ATOM     27  C   UNL     1       2.514   0.261  23.035  0.00  0.00    +0.270 C 
ATOM     33  H   UNL     1       2.699   1.295  24.817  0.00  0.00    +0.155 HD
BRANCH  27  28
ATOM      5  O   UNL     1       5.581  -1.495  23.638  0.00  0.00    -0.359 OA
ATOM      9  N   UNL     1       4.194  -1.405  23.646  0.00  0.00    -0.073 NA
ATOM     28  C   UNL     1       3.925  -0.187  23.169  0.00  0.00    +0.168 A 
ATOM     29  C   UNL     1       5.089   0.531  22.846  0.00  0.00    +0.080 A 
ATOM     30  C   UNL     1       6.103  -0.336  23.160  0.00  0.00    +0.135 A 
ATOM     31  C   UNL     1       7.566  -0.257  23.082  0.00  0.00    +0.089 C 
ENDBRANCH  27  28
ENDBRANCH  22   7
ENDBRANCH  11  13
BRANCH  10  12
ATOM     12  C   UNL     1      -4.575   3.842  26.626  0.00  0.00    +0.181 C 
BRANCH  12   2
ATOM      2  O   UNL     1      -5.901   4.057  26.189  0.00  0.00    -0.393 OA
ATOM     32  H   UNL     1      -5.870   4.178  25.225  0.00  0.00    +0.209 HD
ENDBRANCH  12   2
ENDBRANCH  10  12
BRANCH   6  14
ATOM     14  C   UNL     1      -5.282   0.701  25.939  0.00  0.00    +0.145 C 
BRANCH  14  17
ATOM      8  N   UNL     1      -4.064  -2.174  23.805  0.00  0.00    -0.263 NA
ATOM     17  C   UNL     1      -4.499  -0.501  25.496  0.00  0.00    -0.012 A 
ATOM     23  C   UNL     1      -3.517  -1.056  26.309  0.00  0.00    +0.008 A 
ATOM     24  C   UNL     1      -4.731  -1.091  24.263  0.00  0.00    +0.115 A 
ATOM     25  C   UNL     1      -2.809  -2.171  25.871  0.00  0.00    +0.020 A 
ATOM     26  C   UNL     1      -3.117  -2.686  24.623  0.00  0.00    +0.111 A 
ENDBRANCH  14  17
ENDBRANCH   6  14
TORSDOF 7
ENDMDL
