MODEL 1
REMARK VINA RESULT:      -5.8      0.000      0.000
REMARK  Name = 44716116
REMARK  7 active torsions:
REMARK  status: ('A' for Active; 'I' for Inactive)
REMARK    1  A    between atoms: O_2  and  C_25
REMARK    2  A    between atoms: O_2  and  C_26
REMARK    3  A    between atoms: N_4  and  C_17
REMARK    4  A    between atoms: N_5  and  C_15
REMARK    5  A    between atoms: C_9  and  C_16
REMARK    6  A    between atoms: C_10  and  C_15
REMARK    7  A    between atoms: C_24  and  C_25
REMARK                            x       y       z     vdW  Elec       q    Type
REMARK                         _______ _______ _______ _____ _____    ______ ____
ROOT
ATOM      3  N   UNL     1      -2.189  -1.121  23.688  0.00  0.00    -0.297 NA
ATOM      8  C   UNL     1      -3.460  -1.012  25.956  0.00  0.00    +0.005 C 
ATOM      9  C   UNL     1      -4.302  -0.411  24.815  0.00  0.00    +0.092 C 
ATOM     10  C   UNL     1      -1.331  -0.481  24.720  0.00  0.00    +0.078 C 
ATOM     11  C   UNL     1      -2.113  -0.266  26.033  0.00  0.00    +0.025 C 
ATOM     12  C   UNL     1      -3.154  -2.469  25.560  0.00  0.00    +0.020 C 
ATOM     13  C   UNL     1      -3.455  -0.364  23.531  0.00  0.00    +0.097 C 
ATOM     14  C   UNL     1      -2.523  -2.489  24.156  0.00  0.00    +0.085 C 
ENDROOT
BRANCH   9  16
ATOM      1  O   UNL     1      -5.844   1.091  25.851  0.00  0.00    -0.275 OA
ATOM      4  N   UNL     1      -4.064   1.966  24.633  0.00  0.00    -0.312 N 
ATOM     16  C   UNL     1      -4.830   0.947  25.172  0.00  0.00    +0.218 C 
ATOM     27  H   UNL     1      -3.223   1.725  24.116  0.00  0.00    +0.149 HD
BRANCH   4  17
ATOM     17  C   UNL     1      -4.373   3.368  24.811  0.00  0.00    +0.073 C 
ATOM     18  C   UNL     1      -3.675   4.225  23.750  0.00  0.00    +0.022 C 
ATOM     19  C   UNL     1      -4.015   3.835  26.226  0.00  0.00    +0.022 C 
ATOM     20  C   UNL     1      -2.166   4.320  23.974  0.00  0.00    +0.002 C 
ATOM     21  C   UNL     1      -2.505   3.931  26.446  0.00  0.00    +0.002 C 
ATOM     22  C   UNL     1      -1.835   4.798  25.384  0.00  0.00    +0.000 C 
ENDBRANCH   4  17
ENDBRANCH   9  16
BRANCH  10  15
ATOM     15  C   UNL     1      -0.687   0.814  24.222  0.00  0.00    +0.164 C 
BRANCH  15   5
ATOM      5  N   UNL     1       0.620   0.549  23.528  0.00  0.00    -0.250 N 
ATOM      6  N   UNL     1       0.745  -0.473  22.666  0.00  0.00    -0.065 NA
ATOM      7  N   UNL     1       1.996  -0.462  22.219  0.00  0.00    -0.132 NA
ATOM     23  C   UNL     1       1.785   1.241  23.656  0.00  0.00    +0.136 A 
ATOM     24  C   UNL     1       2.646   0.583  22.817  0.00  0.00    +0.108 A 
BRANCH  24  25
ATOM     25  C   UNL     1       4.057   0.865  22.529  0.00  0.00    +0.218 C 
BRANCH  25   2
ATOM      2  O   UNL     1       4.831   0.799  23.731  0.00  0.00    -0.377 OA
ATOM     26  C   UNL     1       5.399  -0.489  23.905  0.00  0.00    +0.194 C 
ENDBRANCH  25   2
ENDBRANCH  24  25
ENDBRANCH  15   5
ENDBRANCH  10  15
TORSDOF 6
ENDMDL
MODEL 2
REMARK VINA RESULT:      -4.8      1.122      4.156
REMARK  Name = 44716116
REMARK  7 active torsions:
REMARK  status: ('A' for Active; 'I' for Inactive)
REMARK    1  A    between atoms: O_2  and  C_25
REMARK    2  A    between atoms: O_2  and  C_26
REMARK    3  A    between atoms: N_4  and  C_17
REMARK    4  A    between atoms: N_5  and  C_15
REMARK    5  A    between atoms: C_9  and  C_16
REMARK    6  A    between atoms: C_10  and  C_15
REMARK    7  A    between atoms: C_24  and  C_25
REMARK                            x       y       z     vdW  Elec       q    Type
REMARK                         _______ _______ _______ _____ _____    ______ ____
ROOT
ATOM      3  N   UNL     1      -1.478   3.726  25.593  0.00  0.00    -0.297 NA
ATOM      8  C   UNL     1      -3.409   3.544  23.858  0.00  0.00    +0.005 C 
ATOM      9  C   UNL     1      -3.912   3.254  25.284  0.00  0.00    +0.092 C 
ATOM     10  C   UNL     1      -1.081   2.816  24.486  0.00  0.00    +0.078 C 
ATOM     11  C   UNL     1      -2.262   2.570  23.522  0.00  0.00    +0.025 C 
ATOM     12  C   UNL     1      -2.813   4.963  23.878  0.00  0.00    +0.020 C 
ATOM     13  C   UNL     1      -2.713   3.229  26.249  0.00  0.00    +0.097 C 
ATOM     14  C   UNL     1      -1.770   5.058  25.006  0.00  0.00    +0.085 C 
ENDROOT
BRANCH   9  16
ATOM      1  O   UNL     1      -5.919   1.965  25.399  0.00  0.00    -0.275 OA
ATOM      4  N   UNL     1      -3.871   0.860  25.366  0.00  0.00    -0.312 N 
ATOM     16  C   UNL     1      -4.692   1.974  25.348  0.00  0.00    +0.218 C 
ATOM     27  H   UNL     1      -2.867   0.991  25.282  0.00  0.00    +0.149 HD
BRANCH   4  17
ATOM     17  C   UNL     1      -4.374  -0.493  25.447  0.00  0.00    +0.073 C 
ATOM     18  C   UNL     1      -3.494  -1.356  26.358  0.00  0.00    +0.022 C 
ATOM     19  C   UNL     1      -4.508  -1.116  24.052  0.00  0.00    +0.022 C 
ATOM     20  C   UNL     1      -2.141  -1.680  25.727  0.00  0.00    +0.002 C 
ATOM     21  C   UNL     1      -3.152  -1.442  23.426  0.00  0.00    +0.002 C 
ATOM     22  C   UNL     1      -2.299  -2.309  24.347  0.00  0.00    +0.000 C 
ENDBRANCH   4  17
ENDBRANCH   9  16
BRANCH  10  15
ATOM     15  C   UNL     1      -0.479   1.505  24.996  0.00  0.00    +0.164 C 
BRANCH  15   5
ATOM      5  N   UNL     1       0.539   0.956  24.036  0.00  0.00    -0.250 N 
ATOM      6  N   UNL     1       0.235  -0.071  23.225  0.00  0.00    -0.065 NA
ATOM      7  N   UNL     1       1.318  -0.338  22.503  0.00  0.00    -0.132 NA
ATOM     23  C   UNL     1       1.821   1.375  23.855  0.00  0.00    +0.136 A 
ATOM     24  C   UNL     1       2.299   0.540  22.877  0.00  0.00    +0.108 A 
BRANCH  24  25
ATOM     25  C   UNL     1       3.629   0.504  22.259  0.00  0.00    +0.218 C 
BRANCH  25   2
ATOM      2  O   UNL     1       4.618   0.969  23.182  0.00  0.00    -0.377 OA
ATOM     26  C   UNL     1       5.407  -0.102  23.672  0.00  0.00    +0.194 C 
ENDBRANCH  25   2
ENDBRANCH  24  25
ENDBRANCH  15   5
ENDBRANCH  10  15
TORSDOF 6
ENDMDL
MODEL 3
REMARK VINA RESULT:      -3.1     15.003     16.956
REMARK  Name = 44716116
REMARK  7 active torsions:
REMARK  status: ('A' for Active; 'I' for Inactive)
REMARK    1  A    between atoms: O_2  and  C_25
REMARK    2  A    between atoms: O_2  and  C_26
REMARK    3  A    between atoms: N_4  and  C_17
REMARK    4  A    between atoms: N_5  and  C_15
REMARK    5  A    between atoms: C_9  and  C_16
REMARK    6  A    between atoms: C_10  and  C_15
REMARK    7  A    between atoms: C_24  and  C_25
REMARK                            x       y       z     vdW  Elec       q    Type
REMARK                         _______ _______ _______ _____ _____    ______ ____
ROOT
ATOM      3  N   UNL     1      -5.397  -8.572  10.584  0.00  0.00    -0.297 NA
ATOM      8  C   UNL     1      -7.558  -9.615   9.578  0.00  0.00    +0.005 C 
ATOM      9  C   UNL     1      -7.830  -8.996  10.962  0.00  0.00    +0.092 C 
ATOM     10  C   UNL     1      -5.137  -9.975  10.167  0.00  0.00    +0.078 C 
ATOM     11  C   UNL     1      -6.439 -10.666   9.708  0.00  0.00    +0.025 C 
ATOM     12  C   UNL     1      -7.021  -8.483   8.684  0.00  0.00    +0.020 C 
ATOM     13  C   UNL     1      -6.499  -8.526  11.576  0.00  0.00    +0.097 C 
ATOM     14  C   UNL     1      -5.824  -7.812   9.382  0.00  0.00    +0.085 C 
ENDROOT
BRANCH   9  16
ATOM      1  O   UNL     1      -9.490 -10.633  11.480  0.00  0.00    -0.275 OA
ATOM      4  N   UNL     1      -8.020  -9.951  13.151  0.00  0.00    -0.312 N 
ATOM     16  C   UNL     1      -8.542  -9.956  11.869  0.00  0.00    +0.218 C 
ATOM     27  H   UNL     1      -7.208  -9.373  13.347  0.00  0.00    +0.149 HD
BRANCH   4  17
ATOM     17  C   UNL     1      -8.543 -10.771  14.221  0.00  0.00    +0.073 C 
ATOM     18  C   UNL     1      -9.953 -10.324  14.620  0.00  0.00    +0.022 C 
ATOM     19  C   UNL     1      -7.598 -10.770  15.429  0.00  0.00    +0.022 C 
ATOM     20  C   UNL     1      -9.954  -8.990  15.367  0.00  0.00    +0.002 C 
ATOM     21  C   UNL     1      -7.603  -9.436  16.174  0.00  0.00    +0.002 C 
ATOM     22  C   UNL     1      -9.017  -9.017  16.569  0.00  0.00    +0.000 C 
ENDBRANCH   4  17
ENDBRANCH   9  16
BRANCH  10  15
ATOM     15  C   UNL     1      -4.416 -10.781  11.250  0.00  0.00    +0.164 C 
BRANCH  15   5
ATOM      5  N   UNL     1      -3.065 -10.200  11.562  0.00  0.00    -0.250 N 
ATOM      6  N   UNL     1      -2.556 -10.273  12.803  0.00  0.00    -0.065 NA
ATOM      7  N   UNL     1      -1.368  -9.678  12.778  0.00  0.00    -0.132 NA
ATOM     23  C   UNL     1      -2.220  -9.558  10.711  0.00  0.00    +0.136 A 
ATOM     24  C   UNL     1      -1.148  -9.234  11.503  0.00  0.00    +0.108 A 
BRANCH  24  25
ATOM     25  C   UNL     1       0.088  -8.528  11.146  0.00  0.00    +0.218 C 
BRANCH  25   2
ATOM      2  O   UNL     1       0.514  -7.696  12.229  0.00  0.00    -0.377 OA
ATOM     26  C   UNL     1       1.839  -7.232  12.029  0.00  0.00    +0.194 C 
ENDBRANCH  25   2
ENDBRANCH  24  25
ENDBRANCH  15   5
ENDBRANCH  10  15
TORSDOF 6
ENDMDL
MODEL 4
REMARK VINA RESULT:      -2.7      2.433      2.856
REMARK  Name = 44716116
REMARK  7 active torsions:
REMARK  status: ('A' for Active; 'I' for Inactive)
REMARK    1  A    between atoms: O_2  and  C_25
REMARK    2  A    between atoms: O_2  and  C_26
REMARK    3  A    between atoms: N_4  and  C_17
REMARK    4  A    between atoms: N_5  and  C_15
REMARK    5  A    between atoms: C_9  and  C_16
REMARK    6  A    between atoms: C_10  and  C_15
REMARK    7  A    between atoms: C_24  and  C_25
REMARK                            x       y       z     vdW  Elec       q    Type
REMARK                         _______ _______ _______ _____ _____    ______ ____
ROOT
ATOM      3  N   UNL     1      -2.506  -1.522  23.618  0.00  0.00    -0.297 NA
ATOM      8  C   UNL     1      -3.566  -1.173  25.968  0.00  0.00    +0.005 C 
ATOM      9  C   UNL     1      -4.483  -0.629  24.856  0.00  0.00    +0.092 C 
ATOM     10  C   UNL     1      -1.536  -0.840  24.515  0.00  0.00    +0.078 C 
ATOM     11  C   UNL     1      -2.191  -0.484  25.867  0.00  0.00    +0.025 C 
ATOM     12  C   UNL     1      -3.351  -2.668  25.673  0.00  0.00    +0.020 C 
ATOM     13  C   UNL     1      -3.752  -0.724  23.505  0.00  0.00    +0.097 C 
ATOM     14  C   UNL     1      -2.848  -2.831  24.227  0.00  0.00    +0.085 C 
ENDROOT
BRANCH   9  16
ATOM      1  O   UNL     1      -5.736   1.034  26.027  0.00  0.00    -0.275 OA
ATOM      4  N   UNL     1      -4.338   1.694  24.286  0.00  0.00    -0.312 N 
ATOM     16  C   UNL     1      -4.926   0.777  25.140  0.00  0.00    +0.218 C 
ATOM     27  H   UNL     1      -3.653   1.367  23.613  0.00  0.00    +0.149 HD
BRANCH   4  17
ATOM     17  C   UNL     1      -4.616   3.112  24.338  0.00  0.00    +0.073 C 
ATOM     18  C   UNL     1      -3.641   3.897  23.453  0.00  0.00    +0.022 C 
ATOM     19  C   UNL     1      -4.592   3.627  25.782  0.00  0.00    +0.022 C 
ATOM     20  C   UNL     1      -2.229   3.945  24.037  0.00  0.00    +0.002 C 
ATOM     21  C   UNL     1      -3.178   3.675  26.362  0.00  0.00    +0.002 C 
ATOM     22  C   UNL     1      -2.230   4.470  25.469  0.00  0.00    +0.000 C 
ENDBRANCH   4  17
ENDBRANCH   9  16
BRANCH  10  15
ATOM     15  C   UNL     1      -0.890   0.381  23.856  0.00  0.00    +0.164 C 
BRANCH  15   5
ATOM      5  N   UNL     1      -0.294   1.307  24.878  0.00  0.00    -0.250 N 
ATOM      6  N   UNL     1       0.526   2.305  24.506  0.00  0.00    -0.065 NA
ATOM      7  N   UNL     1       0.896   2.944  25.611  0.00  0.00    -0.132 NA
ATOM     23  C   UNL     1      -0.471   1.282  26.227  0.00  0.00    +0.136 A 
ATOM     24  C   UNL     1       0.293   2.329  26.674  0.00  0.00    +0.108 A 
BRANCH  24  25
ATOM     25  C   UNL     1       0.503   2.803  28.047  0.00  0.00    +0.218 C 
BRANCH  25   2
ATOM      2  O   UNL     1       1.879   2.664  28.414  0.00  0.00    -0.377 OA
ATOM     26  C   UNL     1       2.009   2.239  29.761  0.00  0.00    +0.194 C 
ENDBRANCH  25   2
ENDBRANCH  24  25
ENDBRANCH  15   5
ENDBRANCH  10  15
TORSDOF 6
ENDMDL
MODEL 5
REMARK VINA RESULT:      -2.6      1.679      2.203
REMARK  Name = 44716116
REMARK  7 active torsions:
REMARK  status: ('A' for Active; 'I' for Inactive)
REMARK    1  A    between atoms: O_2  and  C_25
REMARK    2  A    between atoms: O_2  and  C_26
REMARK    3  A    between atoms: N_4  and  C_17
REMARK    4  A    between atoms: N_5  and  C_15
REMARK    5  A    between atoms: C_9  and  C_16
REMARK    6  A    between atoms: C_10  and  C_15
REMARK    7  A    between atoms: C_24  and  C_25
REMARK                            x       y       z     vdW  Elec       q    Type
REMARK                         _______ _______ _______ _____ _____    ______ ____
ROOT
ATOM      3  N   UNL     1      -2.218  -1.942  24.416  0.00  0.00    -0.297 NA
ATOM      8  C   UNL     1      -4.380  -0.499  24.299  0.00  0.00    +0.005 C 
ATOM      9  C   UNL     1      -3.423  -0.164  23.139  0.00  0.00    +0.092 C 
ATOM     10  C   UNL     1      -2.453  -1.273  25.722  0.00  0.00    +0.078 C 
ATOM     11  C   UNL     1      -3.643  -0.292  25.636  0.00  0.00    +0.025 C 
ATOM     12  C   UNL     1      -4.707  -1.999  24.184  0.00  0.00    +0.020 C 
ATOM     13  C   UNL     1      -2.104  -0.932  23.334  0.00  0.00    +0.097 C 
ATOM     14  C   UNL     1      -3.394  -2.800  24.125  0.00  0.00    +0.085 C 
ENDROOT
BRANCH   9  16
ATOM      1  O   UNL     1      -2.351   1.778  22.253  0.00  0.00    -0.275 OA
ATOM      4  N   UNL     1      -3.982   2.041  23.893  0.00  0.00    -0.312 N 
ATOM     16  C   UNL     1      -3.185   1.313  23.026  0.00  0.00    +0.218 C 
ATOM     27  H   UNL     1      -4.664   1.547  24.461  0.00  0.00    +0.149 HD
BRANCH   4  17
ATOM     17  C   UNL     1      -3.930   3.482  23.994  0.00  0.00    +0.073 C 
ATOM     18  C   UNL     1      -2.526   3.956  24.388  0.00  0.00    +0.022 C 
ATOM     19  C   UNL     1      -4.987   4.004  24.973  0.00  0.00    +0.022 C 
ATOM     20  C   UNL     1      -2.189   3.637  25.844  0.00  0.00    +0.002 C 
ATOM     21  C   UNL     1      -4.645   3.686  26.429  0.00  0.00    +0.002 C 
ATOM     22  C   UNL     1      -3.248   4.176  26.799  0.00  0.00    +0.000 C 
ENDBRANCH   4  17
ENDBRANCH   9  16
BRANCH  10  15
ATOM     15  C   UNL     1      -1.193  -0.593  26.265  0.00  0.00    +0.164 C 
BRANCH  15   5
ATOM      5  N   UNL     1      -0.336  -0.055  25.154  0.00  0.00    -0.250 N 
ATOM      6  N   UNL     1      -0.232   1.268  24.946  0.00  0.00    -0.065 NA
ATOM      7  N   UNL     1       0.579   1.442  23.908  0.00  0.00    -0.132 NA
ATOM     23  C   UNL     1       0.404  -0.762  24.258  0.00  0.00    +0.136 A 
ATOM     24  C   UNL     1       0.977   0.207  23.475  0.00  0.00    +0.108 A 
BRANCH  24  25
ATOM     25  C   UNL     1       1.885   0.058  22.331  0.00  0.00    +0.218 C 
BRANCH  25   2
ATOM      2  O   UNL     1       3.198  -0.287  22.782  0.00  0.00    -0.377 OA
ATOM     26  C   UNL     1       4.056   0.842  22.776  0.00  0.00    +0.194 C 
ENDBRANCH  25   2
ENDBRANCH  24  25
ENDBRANCH  15   5
ENDBRANCH  10  15
TORSDOF 6
ENDMDL
MODEL 6
REMARK VINA RESULT:      -2.1     14.822     17.008
REMARK  Name = 44716116
REMARK  7 active torsions:
REMARK  status: ('A' for Active; 'I' for Inactive)
REMARK    1  A    between atoms: O_2  and  C_25
REMARK    2  A    between atoms: O_2  and  C_26
REMARK    3  A    between atoms: N_4  and  C_17
REMARK    4  A    between atoms: N_5  and  C_15
REMARK    5  A    between atoms: C_9  and  C_16
REMARK    6  A    between atoms: C_10  and  C_15
REMARK    7  A    between atoms: C_24  and  C_25
REMARK                            x       y       z     vdW  Elec       q    Type
REMARK                         _______ _______ _______ _____ _____    ______ ____
ROOT
ATOM      3  N   UNL     1      -4.787  -8.236   9.929  0.00  0.00    -0.297 NA
ATOM      8  C   UNL     1      -7.338  -8.739   9.816  0.00  0.00    +0.005 C 
ATOM      9  C   UNL     1      -6.848  -8.661  11.275  0.00  0.00    +0.092 C 
ATOM     10  C   UNL     1      -5.036  -9.398   9.035  0.00  0.00    +0.078 C 
ATOM     11  C   UNL     1      -6.523  -9.813   9.069  0.00  0.00    +0.025 C 
ATOM     12  C   UNL     1      -7.011  -7.382   9.166  0.00  0.00    +0.020 C 
ATOM     13  C   UNL     1      -5.317  -8.509  11.287  0.00  0.00    +0.097 C 
ATOM     14  C   UNL     1      -5.518  -7.069   9.373  0.00  0.00    +0.085 C 
ENDROOT
BRANCH   9  16
ATOM      1  O   UNL     1      -7.911 -10.781  11.561  0.00  0.00    -0.275 OA
ATOM      4  N   UNL     1      -6.927  -9.756  13.405  0.00  0.00    -0.312 N 
ATOM     16  C   UNL     1      -7.287  -9.855  12.072  0.00  0.00    +0.218 C 
ATOM     27  H   UNL     1      -6.378  -8.956  13.705  0.00  0.00    +0.149 HD
BRANCH   4  17
ATOM     17  C   UNL     1      -7.251 -10.765  14.388  0.00  0.00    +0.073 C 
ATOM     18  C   UNL     1      -8.731 -10.699  14.779  0.00  0.00    +0.022 C 
ATOM     19  C   UNL     1      -6.346 -10.645  15.620  0.00  0.00    +0.022 C 
ATOM     20  C   UNL     1      -9.057  -9.473  15.631  0.00  0.00    +0.002 C 
ATOM     21  C   UNL     1      -6.676  -9.419  16.471  0.00  0.00    +0.002 C 
ATOM     22  C   UNL     1      -8.153  -9.381  16.855  0.00  0.00    +0.000 C 
ENDBRANCH   4  17
ENDBRANCH   9  16
BRANCH  10  15
ATOM     15  C   UNL     1      -4.109 -10.577   9.339  0.00  0.00    +0.164 C 
BRANCH  15   5
ATOM      5  N   UNL     1      -3.388 -10.389  10.644  0.00  0.00    -0.250 N 
ATOM      6  N   UNL     1      -2.194  -9.776  10.688  0.00  0.00    -0.065 NA
ATOM      7  N   UNL     1      -1.805  -9.761  11.958  0.00  0.00    -0.132 NA
ATOM     23  C   UNL     1      -3.796 -10.781  11.882  0.00  0.00    +0.136 A 
ATOM     24  C   UNL     1      -2.776 -10.373  12.703  0.00  0.00    +0.108 A 
BRANCH  24  25
ATOM     25  C   UNL     1      -2.642 -10.518  14.157  0.00  0.00    +0.218 C 
BRANCH  25   2
ATOM      2  O   UNL     1      -1.301 -10.230  14.563  0.00  0.00    -0.377 OA
ATOM     26  C   UNL     1      -1.196 -10.157  15.975  0.00  0.00    +0.194 C 
ENDBRANCH  25   2
ENDBRANCH  24  25
ENDBRANCH  15   5
ENDBRANCH  10  15
TORSDOF 6
ENDMDL
