MODEL 1
REMARK VINA RESULT:      -4.3      0.000      0.000
REMARK  Name = 56775487
REMARK  9 active torsions:
REMARK  status: ('A' for Active; 'I' for Inactive)
REMARK    1  A    between atoms: N_4  and  C_6
REMARK    2  A    between atoms: N_4  and  C_10
REMARK    3  A    between atoms: C_6  and  C_9
REMARK    4  A    between atoms: C_9  and  C_12
REMARK    5  A    between atoms: C_10  and  C_11
REMARK    6  A    between atoms: C_11  and  C_13
REMARK    7  A    between atoms: C_13  and  C_15
REMARK    8  A    between atoms: C_13  and  C_16
REMARK    9  A    between atoms: C_17  and  C_18
REMARK                            x       y       z     vdW  Elec       q    Type
REMARK                         _______ _______ _______ _____ _____    ______ ____
ROOT
ATOM      9  C   UNL     1      -2.860   0.606  23.464  0.00  0.00    +0.085 C 
ENDROOT
BRANCH   9  12
ATOM      3  O   UNL     1       0.480   1.744  24.242  0.00  0.00    -0.354 OA
ATOM      5  N   UNL     1      -0.903   1.855  24.306  0.00  0.00    -0.083 NA
ATOM     12  C   UNL     1      -1.367   0.812  23.611  0.00  0.00    +0.086 A 
ATOM     14  C   UNL     1      -0.333   0.016  23.090  0.00  0.00    +0.076 A 
ATOM     17  C   UNL     1       0.808   0.645  23.514  0.00  0.00    +0.167 A 
BRANCH  17  18
ATOM      1  F   UNL     1       6.255  -0.319  22.922  0.00  0.00    -0.205 F 
ATOM     18  C   UNL     1       2.211   0.396  23.362  0.00  0.00    +0.020 A 
ATOM     19  C   UNL     1       3.055   1.412  22.912  0.00  0.00    +0.014 A 
ATOM     20  C   UNL     1       2.734  -0.861  23.665  0.00  0.00    +0.014 A 
ATOM     21  C   UNL     1       4.420   1.171  22.763  0.00  0.00    +0.039 A 
ATOM     22  C   UNL     1       4.100  -1.103  23.517  0.00  0.00    +0.039 A 
ATOM     23  C   UNL     1       4.943  -0.088  23.066  0.00  0.00    +0.123 A 
ENDBRANCH  17  18
ENDBRANCH   9  12
BRANCH   9   6
ATOM      2  O   UNL     1      -3.064  -2.372  24.981  0.00  0.00    -0.376 OA
ATOM      6  C   UNL     1      -3.380  -0.310  24.530  0.00  0.00    +0.072 C 
ATOM      7  C   UNL     1      -2.389  -1.143  25.335  0.00  0.00    +0.184 C 
ATOM      8  C   UNL     1      -3.979  -1.651  24.124  0.00  0.00    +0.184 C 
BRANCH   6   4
ATOM      4  N   UNL     1      -4.300   0.357  25.457  0.00  0.00    -0.306 NA
ATOM     24  H   UNL     1      -3.873   0.716  26.309  0.00  0.00    +0.123 HD
BRANCH   4  10
ATOM     10  C   UNL     1      -4.991   1.435  24.757  0.00  0.00    +0.082 C 
BRANCH  10  11
ATOM     11  C   UNL     1      -5.216   2.617  25.703  0.00  0.00    +0.018 C 
BRANCH  11  13
ATOM     13  C   UNL     1      -4.380   3.859  25.338  0.00  0.00    -0.016 C 
ATOM     15  C   UNL     1      -3.142   3.933  26.233  0.00  0.00    +0.007 C 
ATOM     16  C   UNL     1      -3.955   3.866  23.869  0.00  0.00    +0.007 C 
ENDBRANCH  11  13
ENDBRANCH  10  11
ENDBRANCH   4  10
ENDBRANCH   6   4
ENDBRANCH   9   6
TORSDOF 7
ENDMDL
MODEL 2
REMARK VINA RESULT:      -4.2      1.551      3.478
REMARK  Name = 56775487
REMARK  9 active torsions:
REMARK  status: ('A' for Active; 'I' for Inactive)
REMARK    1  A    between atoms: N_4  and  C_6
REMARK    2  A    between atoms: N_4  and  C_10
REMARK    3  A    between atoms: C_6  and  C_9
REMARK    4  A    between atoms: C_9  and  C_12
REMARK    5  A    between atoms: C_10  and  C_11
REMARK    6  A    between atoms: C_11  and  C_13
REMARK    7  A    between atoms: C_13  and  C_15
REMARK    8  A    between atoms: C_13  and  C_16
REMARK    9  A    between atoms: C_17  and  C_18
REMARK                            x       y       z     vdW  Elec       q    Type
REMARK                         _______ _______ _______ _____ _____    ______ ____
ROOT
ATOM      9  C   UNL     1      -2.979   1.886  23.283  0.00  0.00    +0.085 C 
ENDROOT
BRANCH   9  12
ATOM      3  O   UNL     1       0.467   2.291  24.289  0.00  0.00    -0.354 OA
ATOM      5  N   UNL     1      -0.872   2.658  24.313  0.00  0.00    -0.083 NA
ATOM     12  C   UNL     1      -1.484   1.789  23.504  0.00  0.00    +0.086 A 
ATOM     14  C   UNL     1      -0.590   0.859  22.946  0.00  0.00    +0.076 A 
ATOM     17  C   UNL     1       0.623   1.218  23.471  0.00  0.00    +0.167 A 
BRANCH  17  18
ATOM      1  F   UNL     1       5.816  -0.718  22.994  0.00  0.00    -0.205 F 
ATOM     18  C   UNL     1       1.961   0.719  23.348  0.00  0.00    +0.020 A 
ATOM     19  C   UNL     1       2.228  -0.629  23.591  0.00  0.00    +0.014 A 
ATOM     20  C   UNL     1       2.996   1.581  22.984  0.00  0.00    +0.014 A 
ATOM     21  C   UNL     1       3.531  -1.114  23.472  0.00  0.00    +0.039 A 
ATOM     22  C   UNL     1       4.298   1.095  22.864  0.00  0.00    +0.039 A 
ATOM     23  C   UNL     1       4.566  -0.251  23.108  0.00  0.00    +0.123 A 
ENDBRANCH  17  18
ENDBRANCH   9  12
BRANCH   9   6
ATOM      2  O   UNL     1      -5.161   3.451  25.284  0.00  0.00    -0.376 OA
ATOM      6  C   UNL     1      -3.701   2.060  24.585  0.00  0.00    +0.072 C 
ATOM      7  C   UNL     1      -5.220   2.191  24.576  0.00  0.00    +0.184 C 
ATOM      8  C   UNL     1      -3.716   3.434  25.244  0.00  0.00    +0.184 C 
BRANCH   6   4
ATOM      4  N   UNL     1      -3.318   1.059  25.586  0.00  0.00    -0.306 NA
ATOM     24  H   UNL     1      -3.390   1.366  26.555  0.00  0.00    +0.123 HD
BRANCH   4  10
ATOM     10  C   UNL     1      -4.114  -0.148  25.390  0.00  0.00    +0.082 C 
BRANCH  10  11
ATOM     11  C   UNL     1      -3.370  -1.364  25.946  0.00  0.00    +0.018 C 
BRANCH  11  13
ATOM     13  C   UNL     1      -3.163  -2.481  24.905  0.00  0.00    -0.016 C 
ATOM     15  C   UNL     1      -4.165  -2.316  23.760  0.00  0.00    +0.007 C 
ATOM     16  C   UNL     1      -1.740  -2.502  24.346  0.00  0.00    +0.007 C 
ENDBRANCH  11  13
ENDBRANCH  10  11
ENDBRANCH   4  10
ENDBRANCH   6   4
ENDBRANCH   9   6
TORSDOF 7
ENDMDL
MODEL 3
REMARK VINA RESULT:      -4.1     15.076     17.468
REMARK  Name = 56775487
REMARK  9 active torsions:
REMARK  status: ('A' for Active; 'I' for Inactive)
REMARK    1  A    between atoms: N_4  and  C_6
REMARK    2  A    between atoms: N_4  and  C_10
REMARK    3  A    between atoms: C_6  and  C_9
REMARK    4  A    between atoms: C_9  and  C_12
REMARK    5  A    between atoms: C_10  and  C_11
REMARK    6  A    between atoms: C_11  and  C_13
REMARK    7  A    between atoms: C_13  and  C_15
REMARK    8  A    between atoms: C_13  and  C_16
REMARK    9  A    between atoms: C_17  and  C_18
REMARK                            x       y       z     vdW  Elec       q    Type
REMARK                         _______ _______ _______ _____ _____    ______ ____
ROOT
ATOM      9  C   UNL     1      -6.077 -10.751  10.398  0.00  0.00    +0.085 C 
ENDROOT
BRANCH   9  12
ATOM      3  O   UNL     1      -7.674 -10.078  13.570  0.00  0.00    -0.354 OA
ATOM      5  N   UNL     1      -7.683 -10.175  12.184  0.00  0.00    -0.083 NA
ATOM     12  C   UNL     1      -6.443 -10.545  11.854  0.00  0.00    +0.086 A 
ATOM     14  C   UNL     1      -5.614 -10.697  12.979  0.00  0.00    +0.076 A 
ATOM     17  C   UNL     1      -6.435 -10.392  14.032  0.00  0.00    +0.167 A 
BRANCH  17  18
ATOM      1  F   UNL     1      -5.802 -10.187  19.555  0.00  0.00    -0.205 F 
ATOM     18  C   UNL     1      -6.272 -10.340  15.455  0.00  0.00    +0.020 A 
ATOM     19  C   UNL     1      -7.355 -10.006  16.269  0.00  0.00    +0.014 A 
ATOM     20  C   UNL     1      -5.031 -10.623  16.026  0.00  0.00    +0.014 A 
ATOM     21  C   UNL     1      -7.196  -9.954  17.654  0.00  0.00    +0.039 A 
ATOM     22  C   UNL     1      -4.872 -10.571  17.411  0.00  0.00    +0.039 A 
ATOM     23  C   UNL     1      -5.954 -10.237  18.225  0.00  0.00    +0.123 A 
ENDBRANCH  17  18
ENDBRANCH   9  12
BRANCH   9   6
ATOM      2  O   UNL     1      -8.064  -9.014   8.337  0.00  0.00    -0.376 OA
ATOM      6  C   UNL     1      -6.415  -9.537   9.587  0.00  0.00    +0.072 C 
ATOM      7  C   UNL     1      -7.789  -8.897   9.752  0.00  0.00    +0.184 C 
ATOM      8  C   UNL     1      -6.815  -9.712   8.127  0.00  0.00    +0.184 C 
BRANCH   6   4
ATOM      4  N   UNL     1      -5.392  -8.490   9.674  0.00  0.00    -0.306 NA
ATOM     24  H   UNL     1      -5.423  -7.923  10.520  0.00  0.00    +0.123 HD
BRANCH   4  10
ATOM     10  C   UNL     1      -4.071  -9.093   9.532  0.00  0.00    +0.082 C 
BRANCH  10  11
ATOM     11  C   UNL     1      -3.234  -8.829  10.784  0.00  0.00    +0.018 C 
BRANCH  11  13
ATOM     13  C   UNL     1      -2.020  -9.770  10.916  0.00  0.00    -0.016 C 
ATOM     15  C   UNL     1      -0.747  -8.948  11.129  0.00  0.00    +0.007 C 
ATOM     16  C   UNL     1      -2.182 -10.775  12.058  0.00  0.00    +0.007 C 
ENDBRANCH  11  13
ENDBRANCH  10  11
ENDBRANCH   4  10
ENDBRANCH   6   4
ENDBRANCH   9   6
TORSDOF 7
ENDMDL
MODEL 4
REMARK VINA RESULT:      -3.9      3.678      6.827
REMARK  Name = 56775487
REMARK  9 active torsions:
REMARK  status: ('A' for Active; 'I' for Inactive)
REMARK    1  A    between atoms: N_4  and  C_6
REMARK    2  A    between atoms: N_4  and  C_10
REMARK    3  A    between atoms: C_6  and  C_9
REMARK    4  A    between atoms: C_9  and  C_12
REMARK    5  A    between atoms: C_10  and  C_11
REMARK    6  A    between atoms: C_11  and  C_13
REMARK    7  A    between atoms: C_13  and  C_15
REMARK    8  A    between atoms: C_13  and  C_16
REMARK    9  A    between atoms: C_17  and  C_18
REMARK                            x       y       z     vdW  Elec       q    Type
REMARK                         _______ _______ _______ _____ _____    ______ ____
ROOT
ATOM      9  C   UNL     1       1.643   1.493  23.698  0.00  0.00    +0.085 C 
ENDROOT
BRANCH   9  12
ATOM      3  O   UNL     1      -0.829   2.559  26.108  0.00  0.00    -0.354 OA
ATOM      5  N   UNL     1       0.451   2.148  25.759  0.00  0.00    -0.083 NA
ATOM     12  C   UNL     1       0.405   1.954  24.438  0.00  0.00    +0.086 A 
ATOM     14  C   UNL     1      -0.866   2.225  23.903  0.00  0.00    +0.076 A 
ATOM     17  C   UNL     1      -1.605   2.601  24.993  0.00  0.00    +0.167 A 
BRANCH  17  18
ATOM      1  F   UNL     1      -6.872   4.207  25.785  0.00  0.00    -0.205 F 
ATOM     18  C   UNL     1      -2.962   3.015  25.197  0.00  0.00    +0.020 A 
ATOM     19  C   UNL     1      -3.237   4.168  25.932  0.00  0.00    +0.014 A 
ATOM     20  C   UNL     1      -4.008   2.265  24.659  0.00  0.00    +0.014 A 
ATOM     21  C   UNL     1      -4.557   4.571  26.131  0.00  0.00    +0.039 A 
ATOM     22  C   UNL     1      -5.329   2.668  24.857  0.00  0.00    +0.039 A 
ATOM     23  C   UNL     1      -5.604   3.820  25.593  0.00  0.00    +0.123 A 
ENDBRANCH  17  18
ENDBRANCH   9  12
BRANCH   9   6
ATOM      2  O   UNL     1       1.666  -0.658  21.132  0.00  0.00    -0.376 OA
ATOM      6  C   UNL     1       1.432   0.135  23.099  0.00  0.00    +0.072 C 
ATOM      7  C   UNL     1       2.547  -0.486  22.266  0.00  0.00    +0.184 C 
ATOM      8  C   UNL     1       0.592   0.009  21.833  0.00  0.00    +0.184 C 
BRANCH   6   4
ATOM      4  N   UNL     1       0.965  -0.853  24.077  0.00  0.00    -0.306 NA
ATOM     24  H   UNL     1       1.044  -0.569  25.052  0.00  0.00    +0.123 HD
BRANCH   4  10
ATOM     10  C   UNL     1      -0.416  -1.212  23.776  0.00  0.00    +0.082 C 
BRANCH  10  11
ATOM     11  C   UNL     1      -1.217  -1.355  25.072  0.00  0.00    +0.018 C 
BRANCH  11  13
ATOM     13  C   UNL     1      -2.742  -1.309  24.856  0.00  0.00    -0.016 C 
ATOM     15  C   UNL     1      -3.225  -2.642  24.280  0.00  0.00    +0.007 C 
ATOM     16  C   UNL     1      -3.505  -0.997  26.144  0.00  0.00    +0.007 C 
ENDBRANCH  11  13
ENDBRANCH  10  11
ENDBRANCH   4  10
ENDBRANCH   6   4
ENDBRANCH   9   6
TORSDOF 7
ENDMDL
MODEL 5
REMARK VINA RESULT:      -3.2      1.714      2.266
REMARK  Name = 56775487
REMARK  9 active torsions:
REMARK  status: ('A' for Active; 'I' for Inactive)
REMARK    1  A    between atoms: N_4  and  C_6
REMARK    2  A    between atoms: N_4  and  C_10
REMARK    3  A    between atoms: C_6  and  C_9
REMARK    4  A    between atoms: C_9  and  C_12
REMARK    5  A    between atoms: C_10  and  C_11
REMARK    6  A    between atoms: C_11  and  C_13
REMARK    7  A    between atoms: C_13  and  C_15
REMARK    8  A    between atoms: C_13  and  C_16
REMARK    9  A    between atoms: C_17  and  C_18
REMARK                            x       y       z     vdW  Elec       q    Type
REMARK                         _______ _______ _______ _____ _____    ______ ____
ROOT
ATOM      9  C   UNL     1      -2.883   1.273  23.199  0.00  0.00    +0.085 C 
ENDROOT
BRANCH   9  12
ATOM      3  O   UNL     1      -0.004  -0.659  24.218  0.00  0.00    -0.354 OA
ATOM      5  N   UNL     1      -1.368  -0.395  24.210  0.00  0.00    -0.083 NA
ATOM     12  C   UNL     1      -1.507   0.687  23.439  0.00  0.00    +0.086 A 
ATOM     14  C   UNL     1      -0.277   1.147  22.937  0.00  0.00    +0.076 A 
ATOM     17  C   UNL     1       0.635   0.267  23.456  0.00  0.00    +0.167 A 
BRANCH  17  18
ATOM      1  F   UNL     1       6.159  -0.298  23.103  0.00  0.00    -0.205 F 
ATOM     18  C   UNL     1       2.059   0.121  23.365  0.00  0.00    +0.020 A 
ATOM     19  C   UNL     1       2.837   1.172  22.880  0.00  0.00    +0.014 A 
ATOM     20  C   UNL     1       2.665  -1.070  23.763  0.00  0.00    +0.014 A 
ATOM     21  C   UNL     1       4.222   1.030  22.791  0.00  0.00    +0.039 A 
ATOM     22  C   UNL     1       4.050  -1.212  23.675  0.00  0.00    +0.039 A 
ATOM     23  C   UNL     1       4.829  -0.162  23.189  0.00  0.00    +0.123 A 
ENDBRANCH  17  18
ENDBRANCH   9  12
BRANCH   9   6
ATOM      2  O   UNL     1      -5.625   0.842  25.072  0.00  0.00    -0.376 OA
ATOM      6  C   UNL     1      -3.647   1.384  24.484  0.00  0.00    +0.072 C 
ATOM      7  C   UNL     1      -4.355   0.151  25.031  0.00  0.00    +0.184 C 
ATOM      8  C   UNL     1      -5.035   2.014  24.465  0.00  0.00    +0.184 C 
BRANCH   6   4
ATOM      4  N   UNL     1      -2.863   1.998  25.561  0.00  0.00    -0.306 NA
ATOM     24  H   UNL     1      -1.870   2.109  25.365  0.00  0.00    +0.123 HD
BRANCH   4  10
ATOM     10  C   UNL     1      -3.448   3.289  25.906  0.00  0.00    +0.082 C 
BRANCH  10  11
ATOM     11  C   UNL     1      -2.356   4.358  25.979  0.00  0.00    +0.018 C 
BRANCH  11  13
ATOM     13  C   UNL     1      -1.139   4.049  25.086  0.00  0.00    -0.016 C 
ATOM     15  C   UNL     1      -0.438   5.353  24.696  0.00  0.00    +0.007 C 
ATOM     16  C   UNL     1      -0.140   3.111  25.764  0.00  0.00    +0.007 C 
ENDBRANCH  11  13
ENDBRANCH  10  11
ENDBRANCH   4  10
ENDBRANCH   6   4
ENDBRANCH   9   6
TORSDOF 7
ENDMDL
MODEL 6
REMARK VINA RESULT:      -2.3      3.507      6.884
REMARK  Name = 56775487
REMARK  9 active torsions:
REMARK  status: ('A' for Active; 'I' for Inactive)
REMARK    1  A    between atoms: N_4  and  C_6
REMARK    2  A    between atoms: N_4  and  C_10
REMARK    3  A    between atoms: C_6  and  C_9
REMARK    4  A    between atoms: C_9  and  C_12
REMARK    5  A    between atoms: C_10  and  C_11
REMARK    6  A    between atoms: C_11  and  C_13
REMARK    7  A    between atoms: C_13  and  C_15
REMARK    8  A    between atoms: C_13  and  C_16
REMARK    9  A    between atoms: C_17  and  C_18
REMARK                            x       y       z     vdW  Elec       q    Type
REMARK                         _______ _______ _______ _____ _____    ______ ____
ROOT
ATOM      9  C   UNL     1      -0.322  -1.458  23.927  0.00  0.00    +0.085 C 
ENDROOT
BRANCH   9  12
ATOM      3  O   UNL     1      -3.722  -0.653  24.848  0.00  0.00    -0.354 OA
ATOM      5  N   UNL     1      -2.705  -1.557  24.568  0.00  0.00    -0.083 NA
ATOM     12  C   UNL     1      -1.639  -0.802  24.286  0.00  0.00    +0.086 A 
ATOM     14  C   UNL     1      -1.921   0.572  24.372  0.00  0.00    +0.076 A 
ATOM     17  C   UNL     1      -3.243   0.612  24.728  0.00  0.00    +0.167 A 
BRANCH  17  18
ATOM      1  F   UNL     1      -6.897   4.680  25.751  0.00  0.00    -0.205 F 
ATOM     18  C   UNL     1      -4.184   1.661  24.992  0.00  0.00    +0.020 A 
ATOM     19  C   UNL     1      -5.440   1.354  25.517  0.00  0.00    +0.014 A 
ATOM     20  C   UNL     1      -3.844   2.987  24.725  0.00  0.00    +0.014 A 
ATOM     21  C   UNL     1      -6.357   2.374  25.773  0.00  0.00    +0.039 A 
ATOM     22  C   UNL     1      -4.761   4.007  24.982  0.00  0.00    +0.039 A 
ATOM     23  C   UNL     1      -6.016   3.702  25.505  0.00  0.00    +0.123 A 
ENDBRANCH  17  18
ENDBRANCH   9  12
BRANCH   9   6
ATOM      2  O   UNL     1       2.301  -0.289  22.205  0.00  0.00    -0.376 OA
ATOM      6  C   UNL     1       0.726  -0.427  23.639  0.00  0.00    +0.072 C 
ATOM      7  C   UNL     1       0.900   0.071  22.209  0.00  0.00    +0.184 C 
ATOM      8  C   UNL     1       2.182  -0.865  23.526  0.00  0.00    +0.184 C 
BRANCH   6   4
ATOM      4  N   UNL     1       0.649   0.731  24.537  0.00  0.00    -0.306 NA
ATOM     24  H   UNL     1       1.255   0.686  25.354  0.00  0.00    +0.123 HD
BRANCH   4  10
ATOM     10  C   UNL     1       0.928   1.947  23.780  0.00  0.00    +0.082 C 
BRANCH  10  11
ATOM     11  C   UNL     1      -0.245   2.922  23.902  0.00  0.00    +0.018 C 
BRANCH  11  13
ATOM     13  C   UNL     1      -0.211   3.759  25.195  0.00  0.00    -0.016 C 
ATOM     15  C   UNL     1      -1.095   4.997  25.036  0.00  0.00    +0.007 C 
ATOM     16  C   UNL     1      -0.659   2.960  26.420  0.00  0.00    +0.007 C 
ENDBRANCH  11  13
ENDBRANCH  10  11
ENDBRANCH   4  10
ENDBRANCH   6   4
ENDBRANCH   9   6
TORSDOF 7
ENDMDL
MODEL 7
REMARK VINA RESULT:      -2.2      3.432      7.936
REMARK  Name = 56775487
REMARK  9 active torsions:
REMARK  status: ('A' for Active; 'I' for Inactive)
REMARK    1  A    between atoms: N_4  and  C_6
REMARK    2  A    between atoms: N_4  and  C_10
REMARK    3  A    between atoms: C_6  and  C_9
REMARK    4  A    between atoms: C_9  and  C_12
REMARK    5  A    between atoms: C_10  and  C_11
REMARK    6  A    between atoms: C_11  and  C_13
REMARK    7  A    between atoms: C_13  and  C_15
REMARK    8  A    between atoms: C_13  and  C_16
REMARK    9  A    between atoms: C_17  and  C_18
REMARK                            x       y       z     vdW  Elec       q    Type
REMARK                         _______ _______ _______ _____ _____    ______ ____
ROOT
ATOM      9  C   UNL     1       0.795  -0.706  24.200  0.00  0.00    +0.085 C 
ENDROOT
BRANCH   9  12
ATOM      3  O   UNL     1      -2.758  -0.287  24.708  0.00  0.00    -0.354 OA
ATOM      5  N   UNL     1      -1.631  -1.068  24.484  0.00  0.00    -0.083 NA
ATOM     12  C   UNL     1      -0.614  -0.203  24.435  0.00  0.00    +0.086 A 
ATOM     14  C   UNL     1      -1.034   1.126  24.620  0.00  0.00    +0.076 A 
ATOM     17  C   UNL     1      -2.390   1.018  24.787  0.00  0.00    +0.167 A 
BRANCH  17  18
ATOM      1  F   UNL     1      -6.514   4.639  25.697  0.00  0.00    -0.205 F 
ATOM     18  C   UNL     1      -3.453   1.951  25.022  0.00  0.00    +0.020 A 
ATOM     19  C   UNL     1      -3.166   3.306  25.193  0.00  0.00    +0.014 A 
ATOM     20  C   UNL     1      -4.773   1.505  25.076  0.00  0.00    +0.014 A 
ATOM     21  C   UNL     1      -4.201   4.213  25.422  0.00  0.00    +0.039 A 
ATOM     22  C   UNL     1      -5.808   2.413  25.304  0.00  0.00    +0.039 A 
ATOM     23  C   UNL     1      -5.522   3.766  25.477  0.00  0.00    +0.123 A 
ENDBRANCH  17  18
ENDBRANCH   9  12
BRANCH   9   6
ATOM      2  O   UNL     1       1.074  -0.515  20.869  0.00  0.00    -0.376 OA
ATOM      6  C   UNL     1       1.368  -0.120  22.946  0.00  0.00    +0.072 C 
ATOM      7  C   UNL     1       0.419   0.332  21.841  0.00  0.00    +0.184 C 
ATOM      8  C   UNL     1       1.944  -1.056  21.889  0.00  0.00    +0.184 C 
BRANCH   6   4
ATOM      4  N   UNL     1       2.336   0.951  23.206  0.00  0.00    -0.306 NA
ATOM     24  H   UNL     1       2.482   1.173  24.189  0.00  0.00    +0.123 HD
BRANCH   4  10
ATOM     10  C   UNL     1       3.609   0.612  22.581  0.00  0.00    +0.082 C 
BRANCH  10  11
ATOM     11  C   UNL     1       4.765   0.943  23.527  0.00  0.00    +0.018 C 
BRANCH  11  13
ATOM     13  C   UNL     1       5.587  -0.293  23.941  0.00  0.00    -0.016 C 
ATOM     15  C   UNL     1       4.699  -1.539  23.918  0.00  0.00    +0.007 C 
ATOM     16  C   UNL     1       6.806  -0.512  23.044  0.00  0.00    +0.007 C 
ENDBRANCH  11  13
ENDBRANCH  10  11
ENDBRANCH   4  10
ENDBRANCH   6   4
ENDBRANCH   9   6
TORSDOF 7
ENDMDL
MODEL 8
REMARK VINA RESULT:      -2.0      3.847      6.838
REMARK  Name = 56775487
REMARK  9 active torsions:
REMARK  status: ('A' for Active; 'I' for Inactive)
REMARK    1  A    between atoms: N_4  and  C_6
REMARK    2  A    between atoms: N_4  and  C_10
REMARK    3  A    between atoms: C_6  and  C_9
REMARK    4  A    between atoms: C_9  and  C_12
REMARK    5  A    between atoms: C_10  and  C_11
REMARK    6  A    between atoms: C_11  and  C_13
REMARK    7  A    between atoms: C_13  and  C_15
REMARK    8  A    between atoms: C_13  and  C_16
REMARK    9  A    between atoms: C_17  and  C_18
REMARK                            x       y       z     vdW  Elec       q    Type
REMARK                         _______ _______ _______ _____ _____    ______ ____
ROOT
ATOM      9  C   UNL     1      -2.203  -2.534  24.317  0.00  0.00    +0.085 C 
ENDROOT
BRANCH   9  12
ATOM      3  O   UNL     1      -5.133  -0.422  24.186  0.00  0.00    -0.354 OA
ATOM      5  N   UNL     1      -4.478  -1.632  23.988  0.00  0.00    -0.083 NA
ATOM     12  C   UNL     1      -3.223  -1.416  24.390  0.00  0.00    +0.086 A 
ATOM     14  C   UNL     1      -3.027  -0.101  24.848  0.00  0.00    +0.076 A 
ATOM     17  C   UNL     1      -4.258   0.481  24.699  0.00  0.00    +0.167 A 
BRANCH  17  18
ATOM      1  F   UNL     1      -6.335   5.541  25.718  0.00  0.00    -0.205 F 
ATOM     18  C   UNL     1      -4.794   1.785  24.961  0.00  0.00    +0.020 A 
ATOM     19  C   UNL     1      -4.072   2.922  24.594  0.00  0.00    +0.014 A 
ATOM     20  C   UNL     1      -6.035   1.917  25.582  0.00  0.00    +0.014 A 
ATOM     21  C   UNL     1      -4.593   4.190  24.850  0.00  0.00    +0.039 A 
ATOM     22  C   UNL     1      -6.556   3.186  25.838  0.00  0.00    +0.039 A 
ATOM     23  C   UNL     1      -5.836   4.322  25.472  0.00  0.00    +0.123 A 
ENDBRANCH  17  18
ENDBRANCH   9  12
BRANCH   9   6
ATOM      2  O   UNL     1       0.470  -2.255  26.314  0.00  0.00    -0.376 OA
ATOM      6  C   UNL     1      -0.831  -2.025  24.638  0.00  0.00    +0.072 C 
ATOM      7  C   UNL     1       0.232  -3.012  25.105  0.00  0.00    +0.184 C 
ATOM      8  C   UNL     1      -0.593  -1.335  25.976  0.00  0.00    +0.184 C 
BRANCH   6   4
ATOM      4  N   UNL     1      -0.267  -1.193  23.570  0.00  0.00    -0.306 NA
ATOM     24  H   UNL     1      -0.931  -0.888  22.861  0.00  0.00    +0.123 HD
BRANCH   4  10
ATOM     10  C   UNL     1       0.393  -0.033  24.160  0.00  0.00    +0.082 C 
BRANCH  10  11
ATOM     11  C   UNL     1      -0.375   1.243  23.812  0.00  0.00    +0.018 C 
BRANCH  11  13
ATOM     13  C   UNL     1       0.023   2.452  24.681  0.00  0.00    -0.016 C 
ATOM     15  C   UNL     1      -0.578   3.732  24.097  0.00  0.00    +0.007 C 
ATOM     16  C   UNL     1      -0.415   2.294  26.138  0.00  0.00    +0.007 C 
ENDBRANCH  11  13
ENDBRANCH  10  11
ENDBRANCH   4  10
ENDBRANCH   6   4
ENDBRANCH   9   6
TORSDOF 7
ENDMDL
MODEL 9
REMARK VINA RESULT:      -1.3      1.350      2.024
REMARK  Name = 56775487
REMARK  9 active torsions:
REMARK  status: ('A' for Active; 'I' for Inactive)
REMARK    1  A    between atoms: N_4  and  C_6
REMARK    2  A    between atoms: N_4  and  C_10
REMARK    3  A    between atoms: C_6  and  C_9
REMARK    4  A    between atoms: C_9  and  C_12
REMARK    5  A    between atoms: C_10  and  C_11
REMARK    6  A    between atoms: C_11  and  C_13
REMARK    7  A    between atoms: C_13  and  C_15
REMARK    8  A    between atoms: C_13  and  C_16
REMARK    9  A    between atoms: C_17  and  C_18
REMARK                            x       y       z     vdW  Elec       q    Type
REMARK                         _______ _______ _______ _____ _____    ______ ____
ROOT
ATOM      9  C   UNL     1      -2.022   1.077  23.596  0.00  0.00    +0.085 C 
ENDROOT
BRANCH   9  12
ATOM      3  O   UNL     1       0.840  -1.007  22.872  0.00  0.00    -0.354 OA
ATOM      5  N   UNL     1      -0.529  -0.773  22.928  0.00  0.00    -0.083 NA
ATOM     12  C   UNL     1      -0.648   0.472  23.399  0.00  0.00    +0.086 A 
ATOM     14  C   UNL     1       0.599   1.067  23.656  0.00  0.00    +0.076 A 
ATOM     17  C   UNL     1       1.501   0.096  23.308  0.00  0.00    +0.167 A 
BRANCH  17  18
ATOM      1  F   UNL     1       7.053  -0.261  23.298  0.00  0.00    -0.205 F 
ATOM     18  C   UNL     1       2.932   0.004  23.305  0.00  0.00    +0.020 A 
ATOM     19  C   UNL     1       3.556  -1.173  23.720  0.00  0.00    +0.014 A 
ATOM     20  C   UNL     1       3.700   1.091  22.886  0.00  0.00    +0.014 A 
ATOM     21  C   UNL     1       4.948  -1.262  23.718  0.00  0.00    +0.039 A 
ATOM     22  C   UNL     1       5.092   1.001  22.883  0.00  0.00    +0.039 A 
ATOM     23  C   UNL     1       5.716  -0.175  23.299  0.00  0.00    +0.123 A 
ENDBRANCH  17  18
ENDBRANCH   9  12
BRANCH   9   6
ATOM      2  O   UNL     1      -3.821  -0.803  25.704  0.00  0.00    -0.376 OA
ATOM      6  C   UNL     1      -2.560   0.748  24.956  0.00  0.00    +0.072 C 
ATOM      7  C   UNL     1      -2.396  -0.670  25.491  0.00  0.00    +0.184 C 
ATOM      8  C   UNL     1      -4.055   0.499  25.119  0.00  0.00    +0.184 C 
BRANCH   6   4
ATOM      4  N   UNL     1      -2.124   1.696  25.986  0.00  0.00    -0.306 NA
ATOM     24  H   UNL     1      -1.245   1.463  26.446  0.00  0.00    +0.123 HD
BRANCH   4  10
ATOM     10  C   UNL     1      -2.039   3.032  25.407  0.00  0.00    +0.082 C 
BRANCH  10  11
ATOM     11  C   UNL     1      -3.248   3.868  25.832  0.00  0.00    +0.018 C 
BRANCH  11  13
ATOM     13  C   UNL     1      -4.523   3.551  25.027  0.00  0.00    -0.016 C 
ATOM     15  C   UNL     1      -5.684   4.409  25.534  0.00  0.00    +0.007 C 
ATOM     16  C   UNL     1      -4.336   3.772  23.525  0.00  0.00    +0.007 C 
ENDBRANCH  11  13
ENDBRANCH  10  11
ENDBRANCH   4  10
ENDBRANCH   6   4
ENDBRANCH   9   6
TORSDOF 7
ENDMDL
MODEL 10
REMARK VINA RESULT:      -1.1      3.143      4.876
REMARK  Name = 56775487
REMARK  9 active torsions:
REMARK  status: ('A' for Active; 'I' for Inactive)
REMARK    1  A    between atoms: N_4  and  C_6
REMARK    2  A    between atoms: N_4  and  C_10
REMARK    3  A    between atoms: C_6  and  C_9
REMARK    4  A    between atoms: C_9  and  C_12
REMARK    5  A    between atoms: C_10  and  C_11
REMARK    6  A    between atoms: C_11  and  C_13
REMARK    7  A    between atoms: C_13  and  C_15
REMARK    8  A    between atoms: C_13  and  C_16
REMARK    9  A    between atoms: C_17  and  C_18
REMARK                            x       y       z     vdW  Elec       q    Type
REMARK                         _______ _______ _______ _____ _____    ______ ____
ROOT
ATOM      9  C   UNL     1      -4.422   3.670  23.604  0.00  0.00    +0.085 C 
ENDROOT
BRANCH   9  12
ATOM      3  O   UNL     1      -2.120   1.039  22.687  0.00  0.00    -0.354 OA
ATOM      5  N   UNL     1      -2.816   2.213  22.423  0.00  0.00    -0.083 NA
ATOM     12  C   UNL     1      -3.526   2.451  23.529  0.00  0.00    +0.086 A 
ATOM     14  C   UNL     1      -3.322   1.471  24.516  0.00  0.00    +0.076 A 
ATOM     17  C   UNL     1      -2.430   0.607  23.937  0.00  0.00    +0.167 A 
BRANCH  17  18
ATOM      1  F   UNL     1       0.085  -4.081  25.563  0.00  0.00    -0.205 F 
ATOM     18  C   UNL     1      -1.781  -0.601  24.356  0.00  0.00    +0.020 A 
ATOM     19  C   UNL     1      -2.524  -1.771  24.515  0.00  0.00    +0.014 A 
ATOM     20  C   UNL     1      -0.409  -0.606  24.603  0.00  0.00    +0.014 A 
ATOM     21  C   UNL     1      -1.893  -2.947  24.923  0.00  0.00    +0.039 A 
ATOM     22  C   UNL     1       0.222  -1.782  25.011  0.00  0.00    +0.039 A 
ATOM     23  C   UNL     1      -0.520  -2.952  25.171  0.00  0.00    +0.123 A 
ENDBRANCH  17  18
ENDBRANCH   9  12
BRANCH   9   6
ATOM      2  O   UNL     1      -6.337   3.423  26.339  0.00  0.00    -0.376 OA
ATOM      6  C   UNL     1      -4.755   4.000  25.027  0.00  0.00    +0.072 C 
ATOM      7  C   UNL     1      -5.047   2.863  25.999  0.00  0.00    +0.184 C 
ATOM      8  C   UNL     1      -6.164   4.476  25.364  0.00  0.00    +0.184 C 
BRANCH   6   4
ATOM      4  N   UNL     1      -3.787   4.913  25.643  0.00  0.00    -0.306 NA
ATOM     24  H   UNL     1      -4.143   5.458  26.426  0.00  0.00    +0.123 HD
BRANCH   4  10
ATOM     10  C   UNL     1      -2.610   4.158  26.059  0.00  0.00    +0.082 C 
BRANCH  10  11
ATOM     11  C   UNL     1      -1.381   4.630  25.281  0.00  0.00    +0.018 C 
BRANCH  11  13
ATOM     13  C   UNL     1      -0.183   3.667  25.390  0.00  0.00    -0.016 C 
ATOM     15  C   UNL     1      -0.491   2.569  26.411  0.00  0.00    +0.007 C 
ATOM     16  C   UNL     1       0.183   3.033  24.047  0.00  0.00    +0.007 C 
ENDBRANCH  11  13
ENDBRANCH  10  11
ENDBRANCH   4  10
ENDBRANCH   6   4
ENDBRANCH   9   6
TORSDOF 7
ENDMDL
