MODEL 1
REMARK VINA RESULT:      33.1      0.000      0.000
REMARK  Name = 11884215
REMARK  6 active torsions:
REMARK  status: ('A' for Active; 'I' for Inactive)
REMARK    1  A    between atoms: O_5  and  C_27
REMARK    2  A    between atoms: O_5  and  C_35
REMARK    3  A    between atoms: O_6  and  C_34
REMARK    4  A    between atoms: O_6  and  C_36
REMARK    5  A    between atoms: C_18  and  C_21
REMARK    6  A    between atoms: C_22  and  C_24
REMARK                            x       y       z     vdW  Elec       q    Type
REMARK                         _______ _______ _______ _____ _____    ______ ____
ROOT
ATOM      2  O   UNL     1       3.265  -0.420  21.159  0.00  0.00    -0.273 OA
ATOM      3  O   UNL     1       1.283   2.426  25.148  0.00  0.00    -0.270 OA
ATOM      4  O   UNL     1       6.202  -2.546  22.966  0.00  0.00    -0.270 OA
ATOM      7  N   UNL     1       2.491   0.725  24.151  0.00  0.00    -0.283 N 
ATOM      8  N   UNL     1       4.988  -0.653  23.602  0.00  0.00    -0.294 N 
ATOM      9  N   UNL     1       1.138   0.285  21.557  0.00  0.00    -0.283 N 
ATOM     10  C   UNL     1       2.491  -0.548  23.443  0.00  0.00    +0.180 C 
ATOM     11  C   UNL     1       3.733  -1.394  23.746  0.00  0.00    +0.140 C 
ATOM     12  C   UNL     1       3.748   1.146  24.774  0.00  0.00    +0.128 C 
ATOM     13  C   UNL     1       4.952   0.779  23.919  0.00  0.00    +0.127 C 
ATOM     14  C   UNL     1       2.361  -0.201  21.967  0.00  0.00    +0.239 C 
ATOM     15  C   UNL     1       1.331   1.454  24.392  0.00  0.00    +0.249 C 
ATOM     16  C   UNL     1       0.080   1.070  23.686  0.00  0.00    +0.059 A 
ATOM     17  C   UNL     1       0.026   0.634  22.352  0.00  0.00    +0.046 A 
ATOM     18  C   UNL     1       6.147  -1.348  23.235  0.00  0.00    +0.247 C 
ATOM     19  C   UNL     1      -1.119   1.346  24.370  0.00  0.00    +0.023 A 
ATOM     20  C   UNL     1      -1.224   0.552  21.714  0.00  0.00    +0.024 A 
ATOM     22  C   UNL     1      -2.353   1.212  23.735  0.00  0.00    -0.014 A 
ATOM     23  C   UNL     1      -2.405   0.827  22.402  0.00  0.00    +0.010 A 
ATOM     37  H   UNL     1       0.989   0.302  20.551  0.00  0.00    +0.155 HD
ENDROOT
BRANCH  18  21
ATOM      1  F   UNL     1       8.809   2.562  24.283  0.00  0.00    -0.205 F 
ATOM     21  C   UNL     1       7.409  -0.595  23.157  0.00  0.00    +0.040 A 
ATOM     25  C   UNL     1       7.511   0.650  23.769  0.00  0.00    +0.051 A 
ATOM     26  C   UNL     1       8.493  -1.134  22.469  0.00  0.00    +0.013 A 
ATOM     29  C   UNL     1       8.707   1.364  23.694  0.00  0.00    +0.124 A 
ATOM     30  C   UNL     1       9.689  -0.420  22.394  0.00  0.00    +0.004 A 
ATOM     31  C   UNL     1       9.796   0.828  23.007  0.00  0.00    +0.038 A 
ENDBRANCH  18  21
BRANCH  22  24
ATOM     24  C   UNL     1      -3.575   1.495  24.457  0.00  0.00    +0.024 A 
ATOM     27  C   UNL     1      -3.894   2.798  24.843  0.00  0.00    +0.131 A 
ATOM     28  C   UNL     1      -4.441   0.447  24.768  0.00  0.00    +0.016 A 
ATOM     32  C   UNL     1      -5.076   3.051  25.539  0.00  0.00    +0.091 A 
ATOM     33  C   UNL     1      -5.624   0.700  25.464  0.00  0.00    +0.046 A 
ATOM     34  C   UNL     1      -5.941   2.002  25.850  0.00  0.00    +0.124 A 
BRANCH  27   5
ATOM      5  O   UNL     1      -3.067   3.844  24.553  0.00  0.00    -0.494 OA
ATOM     35  C   UNL     1      -2.363   4.433  25.645  0.00  0.00    +0.277 C 
ENDBRANCH  27   5
BRANCH  34   6
ATOM      6  O   UNL     1      -7.094   2.249  26.528  0.00  0.00    -0.495 OA
ATOM     36  C   UNL     1      -7.364   1.435  27.669  0.00  0.00    +0.277 C 
ENDBRANCH  34   6
ENDBRANCH  22  24
TORSDOF 4
ENDMDL
MODEL 2
REMARK VINA RESULT:      33.3      0.882      1.534
REMARK  Name = 11884215
REMARK  6 active torsions:
REMARK  status: ('A' for Active; 'I' for Inactive)
REMARK    1  A    between atoms: O_5  and  C_27
REMARK    2  A    between atoms: O_5  and  C_35
REMARK    3  A    between atoms: O_6  and  C_34
REMARK    4  A    between atoms: O_6  and  C_36
REMARK    5  A    between atoms: C_18  and  C_21
REMARK    6  A    between atoms: C_22  and  C_24
REMARK                            x       y       z     vdW  Elec       q    Type
REMARK                         _______ _______ _______ _____ _____    ______ ____
ROOT
ATOM      2  O   UNL     1       3.298  -0.439  21.144  0.00  0.00    -0.273 OA
ATOM      3  O   UNL     1       1.298   2.446  25.096  0.00  0.00    -0.270 OA
ATOM      4  O   UNL     1       6.233  -2.539  22.981  0.00  0.00    -0.270 OA
ATOM      7  N   UNL     1       2.512   0.736  24.120  0.00  0.00    -0.283 N 
ATOM      8  N   UNL     1       5.014  -0.642  23.594  0.00  0.00    -0.294 N 
ATOM      9  N   UNL     1       1.168   0.266  21.528  0.00  0.00    -0.283 N 
ATOM     10  C   UNL     1       2.517  -0.544  23.426  0.00  0.00    +0.180 C 
ATOM     11  C   UNL     1       3.760  -1.384  23.742  0.00  0.00    +0.140 C 
ATOM     12  C   UNL     1       3.766   1.167  24.742  0.00  0.00    +0.128 C 
ATOM     13  C   UNL     1       4.973   0.794  23.895  0.00  0.00    +0.127 C 
ATOM     14  C   UNL     1       2.390  -0.213  21.946  0.00  0.00    +0.239 C 
ATOM     15  C   UNL     1       1.350   1.466  24.351  0.00  0.00    +0.249 C 
ATOM     16  C   UNL     1       0.101   1.072  23.646  0.00  0.00    +0.059 A 
ATOM     17  C   UNL     1       0.053   0.622  22.316  0.00  0.00    +0.046 A 
ATOM     18  C   UNL     1       6.175  -1.338  23.238  0.00  0.00    +0.247 C 
ATOM     19  C   UNL     1      -1.100   1.352  24.322  0.00  0.00    +0.023 A 
ATOM     20  C   UNL     1      -1.196   0.529  21.675  0.00  0.00    +0.024 A 
ATOM     22  C   UNL     1      -2.332   1.208  23.686  0.00  0.00    -0.014 A 
ATOM     23  C   UNL     1      -2.379   0.809  22.356  0.00  0.00    +0.010 A 
ATOM     37  H   UNL     1       1.021   0.272  20.521  0.00  0.00    +0.155 HD
ENDROOT
BRANCH  18  21
ATOM      1  F   UNL     1       8.846   2.561  24.303  0.00  0.00    -0.205 F 
ATOM     21  C   UNL     1       7.435  -0.584  23.155  0.00  0.00    +0.040 A 
ATOM     25  C   UNL     1       7.543   0.655  23.781  0.00  0.00    +0.051 A 
ATOM     26  C   UNL     1       8.513  -1.113  22.449  0.00  0.00    +0.013 A 
ATOM     29  C   UNL     1       8.738   1.370  23.702  0.00  0.00    +0.124 A 
ATOM     30  C   UNL     1       9.708  -0.398  22.370  0.00  0.00    +0.004 A 
ATOM     31  C   UNL     1       9.820   0.844  22.997  0.00  0.00    +0.038 A 
ENDBRANCH  18  21
BRANCH  22  24
ATOM     24  C   UNL     1      -3.556   1.497  24.401  0.00  0.00    +0.024 A 
ATOM     27  C   UNL     1      -4.447   0.476  24.738  0.00  0.00    +0.131 A 
ATOM     28  C   UNL     1      -3.844   2.815  24.755  0.00  0.00    +0.016 A 
ATOM     32  C   UNL     1      -5.623   0.775  25.428  0.00  0.00    +0.091 A 
ATOM     33  C   UNL     1      -5.020   3.114  25.444  0.00  0.00    +0.046 A 
ATOM     34  C   UNL     1      -5.909   2.094  25.780  0.00  0.00    +0.124 A 
BRANCH  27   5
ATOM      5  O   UNL     1      -4.193  -0.822  24.406  0.00  0.00    -0.494 OA
ATOM     35  C   UNL     1      -3.551  -1.627  25.393  0.00  0.00    +0.277 C 
ENDBRANCH  27   5
BRANCH  34   6
ATOM      6  O   UNL     1      -7.055   2.385  26.452  0.00  0.00    -0.495 OA
ATOM     36  C   UNL     1      -7.361   1.583  27.593  0.00  0.00    +0.277 C 
ENDBRANCH  34   6
ENDBRANCH  22  24
TORSDOF 4
ENDMDL
MODEL 3
REMARK VINA RESULT:      33.9      3.440     10.581
REMARK  Name = 11884215
REMARK  6 active torsions:
REMARK  status: ('A' for Active; 'I' for Inactive)
REMARK    1  A    between atoms: O_5  and  C_27
REMARK    2  A    between atoms: O_5  and  C_35
REMARK    3  A    between atoms: O_6  and  C_34
REMARK    4  A    between atoms: O_6  and  C_36
REMARK    5  A    between atoms: C_18  and  C_21
REMARK    6  A    between atoms: C_22  and  C_24
REMARK                            x       y       z     vdW  Elec       q    Type
REMARK                         _______ _______ _______ _____ _____    ______ ____
ROOT
ATOM      2  O   UNL     1      -2.425   0.039  23.106  0.00  0.00    -0.273 OA
ATOM      3  O   UNL     1       1.723   2.000  25.730  0.00  0.00    -0.270 OA
ATOM      4  O   UNL     1      -4.656   3.343  22.385  0.00  0.00    -0.270 OA
ATOM      7  N   UNL     1      -0.160   2.059  24.389  0.00  0.00    -0.283 N 
ATOM      8  N   UNL     1      -2.884   2.908  23.846  0.00  0.00    -0.294 N 
ATOM      9  N   UNL     1      -0.244  -0.612  23.122  0.00  0.00    -0.283 N 
ATOM     10  C   UNL     1      -0.770   1.797  23.092  0.00  0.00    +0.180 C 
ATOM     11  C   UNL     1      -1.906   2.772  22.764  0.00  0.00    +0.140 C 
ATOM     12  C   UNL     1      -0.872   2.962  25.295  0.00  0.00    +0.128 C 
ATOM     13  C   UNL     1      -2.379   2.767  25.216  0.00  0.00    +0.127 C 
ATOM     14  C   UNL     1      -1.233   0.348  23.138  0.00  0.00    +0.239 C 
ATOM     15  C   UNL     1       1.120   1.628  24.721  0.00  0.00    +0.249 C 
ATOM     16  C   UNL     1       1.800   0.643  23.839  0.00  0.00    +0.059 A 
ATOM     17  C   UNL     1       1.152  -0.430  23.204  0.00  0.00    +0.046 A 
ATOM     18  C   UNL     1      -4.210   3.219  23.524  0.00  0.00    +0.247 C 
ATOM     19  C   UNL     1       3.205   0.715  23.807  0.00  0.00    +0.023 A 
ATOM     20  C   UNL     1       1.931  -1.440  22.613  0.00  0.00    +0.024 A 
ATOM     22  C   UNL     1       3.960  -0.271  23.173  0.00  0.00    -0.014 A 
ATOM     23  C   UNL     1       3.322  -1.357  22.587  0.00  0.00    +0.010 A 
ATOM     37  H   UNL     1      -0.559  -1.560  22.928  0.00  0.00    +0.155 HD
ENDROOT
BRANCH  18  21
ATOM      1  F   UNL     1      -7.029   1.432  27.036  0.00  0.00    -0.205 F 
ATOM     21  C   UNL     1      -5.162   3.412  24.630  0.00  0.00    +0.040 A 
ATOM     25  C   UNL     1      -5.652   2.308  25.321  0.00  0.00    +0.051 A 
ATOM     26  C   UNL     1      -5.568   4.698  24.976  0.00  0.00    +0.013 A 
ATOM     29  C   UNL     1      -6.555   2.491  26.368  0.00  0.00    +0.124 A 
ATOM     30  C   UNL     1      -6.471   4.881  26.023  0.00  0.00    +0.004 A 
ATOM     31  C   UNL     1      -6.965   3.778  26.720  0.00  0.00    +0.038 A 
ENDBRANCH  18  21
BRANCH  22  24
ATOM     24  C   UNL     1       5.403  -0.176  23.147  0.00  0.00    +0.024 A 
ATOM     27  C   UNL     1       6.081   0.689  24.009  0.00  0.00    +0.131 A 
ATOM     28  C   UNL     1       6.122  -0.962  22.246  0.00  0.00    +0.016 A 
ATOM     32  C   UNL     1       7.473   0.767  23.968  0.00  0.00    +0.091 A 
ATOM     33  C   UNL     1       7.514  -0.884  22.205  0.00  0.00    +0.046 A 
ATOM     34  C   UNL     1       8.189  -0.019  23.066  0.00  0.00    +0.124 A 
BRANCH  27   5
ATOM      5  O   UNL     1       5.406   1.470  24.900  0.00  0.00    -0.494 OA
ATOM     35  C   UNL     1       5.441   1.067  26.268  0.00  0.00    +0.277 C 
ENDBRANCH  27   5
BRANCH  34   6
ATOM      6  O   UNL     1       9.547   0.056  23.027  0.00  0.00    -0.495 OA
ATOM     36  C   UNL     1      10.219   0.330  24.255  0.00  0.00    +0.277 C 
ENDBRANCH  34   6
ENDBRANCH  22  24
TORSDOF 4
ENDMDL
MODEL 4
REMARK VINA RESULT:      35.7      3.417     10.612
REMARK  Name = 11884215
REMARK  6 active torsions:
REMARK  status: ('A' for Active; 'I' for Inactive)
REMARK    1  A    between atoms: O_5  and  C_27
REMARK    2  A    between atoms: O_5  and  C_35
REMARK    3  A    between atoms: O_6  and  C_34
REMARK    4  A    between atoms: O_6  and  C_36
REMARK    5  A    between atoms: C_18  and  C_21
REMARK    6  A    between atoms: C_22  and  C_24
REMARK                            x       y       z     vdW  Elec       q    Type
REMARK                         _______ _______ _______ _____ _____    ______ ____
ROOT
ATOM      2  O   UNL     1      -2.699  -1.240  25.569  0.00  0.00    -0.273 OA
ATOM      3  O   UNL     1       1.310   2.129  24.855  0.00  0.00    -0.270 OA
ATOM      4  O   UNL     1      -5.701   0.505  23.483  0.00  0.00    -0.270 OA
ATOM      7  N   UNL     1      -0.748   1.161  24.436  0.00  0.00    -0.283 N 
ATOM      8  N   UNL     1      -3.644   1.290  24.268  0.00  0.00    -0.294 N 
ATOM      9  N   UNL     1      -0.461  -1.621  25.400  0.00  0.00    -0.283 N 
ATOM     10  C   UNL     1      -1.506   0.038  23.904  0.00  0.00    +0.180 C 
ATOM     11  C   UNL     1      -2.871   0.457  23.345  0.00  0.00    +0.140 C 
ATOM     12  C   UNL     1      -1.469   2.419  24.647  0.00  0.00    +0.128 C 
ATOM     13  C   UNL     1      -2.884   2.179  25.154  0.00  0.00    +0.127 C 
ATOM     14  C   UNL     1      -1.619  -0.963  25.044  0.00  0.00    +0.239 C 
ATOM     15  C   UNL     1       0.634   1.133  24.590  0.00  0.00    +0.249 C 
ATOM     16  C   UNL     1       1.347  -0.165  24.461  0.00  0.00    +0.059 A 
ATOM     17  C   UNL     1       0.851  -1.391  24.936  0.00  0.00    +0.046 A 
ATOM     18  C   UNL     1      -5.042   1.240  24.216  0.00  0.00    +0.247 C 
ATOM     19  C   UNL     1       2.671  -0.094  23.991  0.00  0.00    +0.023 A 
ATOM     20  C   UNL     1       1.716  -2.498  24.993  0.00  0.00    +0.024 A 
ATOM     22  C   UNL     1       3.501  -1.215  24.010  0.00  0.00    -0.014 A 
ATOM     23  C   UNL     1       3.027  -2.415  24.524  0.00  0.00    +0.010 A 
ATOM     37  H   UNL     1      -0.586  -2.435  25.997  0.00  0.00    +0.155 HD
ENDROOT
BRANCH  18  21
ATOM      1  F   UNL     1      -6.455   5.676  25.558  0.00  0.00    -0.205 F 
ATOM     21  C   UNL     1      -5.799   2.131  25.110  0.00  0.00    +0.040 A 
ATOM     25  C   UNL     1      -5.766   3.507  24.905  0.00  0.00    +0.051 A 
ATOM     26  C   UNL     1      -6.544   1.591  26.156  0.00  0.00    +0.013 A 
ATOM     29  C   UNL     1      -6.484   4.351  25.752  0.00  0.00    +0.124 A 
ATOM     30  C   UNL     1      -7.261   2.435  27.003  0.00  0.00    +0.004 A 
ATOM     31  C   UNL     1      -7.231   3.816  26.801  0.00  0.00    +0.038 A 
ENDBRANCH  18  21
BRANCH  22  24
ATOM     24  C   UNL     1       4.858  -1.122  23.518  0.00  0.00    +0.024 A 
ATOM     27  C   UNL     1       5.447   0.119  23.267  0.00  0.00    +0.131 A 
ATOM     28  C   UNL     1       5.583  -2.292  23.293  0.00  0.00    +0.016 A 
ATOM     32  C   UNL     1       6.757   0.188  22.792  0.00  0.00    +0.091 A 
ATOM     33  C   UNL     1       6.893  -2.224  22.818  0.00  0.00    +0.046 A 
ATOM     34  C   UNL     1       7.479  -0.984  22.567  0.00  0.00    +0.124 A 
BRANCH  27   5
ATOM      5  O   UNL     1       4.764   1.281  23.478  0.00  0.00    -0.494 OA
ATOM     35  C   UNL     1       3.997   1.786  22.387  0.00  0.00    +0.277 C 
ENDBRANCH  27   5
BRANCH  34   6
ATOM      6  O   UNL     1       8.757  -0.917  22.104  0.00  0.00    -0.495 OA
ATOM     36  C   UNL     1       9.677  -0.119  22.848  0.00  0.00    +0.277 C 
ENDBRANCH  34   6
ENDBRANCH  22  24
TORSDOF 4
ENDMDL
