MODEL 1
REMARK VINA RESULT:       1.1      0.000      0.000
REMARK  Name = 26742474
REMARK  11 active torsions:
REMARK  status: ('A' for Active; 'I' for Inactive)
REMARK    1  A    between atoms: O_2  and  C_22
REMARK    2  A    between atoms: O_2  and  C_29
REMARK    3  A    between atoms: N_4  and  C_15
REMARK    4  A    between atoms: N_7  and  C_28
REMARK    5  A    between atoms: N_7  and  C_30
REMARK    6  A    between atoms: N_7  and  C_31
REMARK    7  A    between atoms: C_9  and  C_16
REMARK    8  A    between atoms: C_10  and  C_15
REMARK    9  A    between atoms: C_18  and  C_21
REMARK   10  A    between atoms: C_19  and  C_22
REMARK   11  A    between atoms: C_20  and  C_23
REMARK                            x       y       z     vdW  Elec       q    Type
REMARK                         _______ _______ _______ _____ _____    ______ ____
ROOT
ATOM      3  N   UNL     1      -4.335   3.478  25.916  0.00  0.00    -0.297 NA
ATOM      8  C   UNL     1      -5.129   1.926  23.982  0.00  0.00    +0.002 C 
ATOM      9  C   UNL     1      -4.526   1.085  25.141  0.00  0.00    +0.055 C 
ATOM     10  C   UNL     1      -3.795   3.964  24.620  0.00  0.00    +0.074 C 
ATOM     11  C   UNL     1      -4.080   2.947  23.494  0.00  0.00    +0.024 C 
ATOM     12  C   UNL     1      -6.303   2.730  24.579  0.00  0.00    +0.019 C 
ATOM     13  C   UNL     1      -3.897   2.080  26.157  0.00  0.00    +0.094 C 
ATOM     14  C   UNL     1      -5.814   3.489  25.824  0.00  0.00    +0.085 C 
ENDROOT
BRANCH   9  16
ATOM      5  N   UNL     1      -4.116  -1.292  24.734  0.00  0.00    -0.237 NA
ATOM      6  N   UNL     1      -1.933  -2.139  24.161  0.00  0.00    -0.232 NA
ATOM     16  C   UNL     1      -3.580  -0.055  24.787  0.00  0.00    +0.050 A 
ATOM     17  C   UNL     1      -2.249   0.216  24.544  0.00  0.00    +0.052 A 
ATOM     18  C   UNL     1      -1.466  -0.876  24.232  0.00  0.00    +0.075 A 
ATOM     20  C   UNL     1      -3.248  -2.273  24.419  0.00  0.00    +0.127 A 
ATOM     23  C   UNL     1      -3.802  -3.656  24.353  0.00  0.00    +0.088 C 
BRANCH  18  21
ATOM     21  C   UNL     1      -0.056  -0.727  23.956  0.00  0.00    +0.001 A 
ATOM     24  C   UNL     1       0.388   0.303  23.127  0.00  0.00    +0.012 A 
ATOM     25  C   UNL     1       0.861  -1.613  24.521  0.00  0.00    +0.012 A 
ATOM     26  C   UNL     1       1.750   0.447  22.862  0.00  0.00    +0.024 A 
ATOM     27  C   UNL     1       2.224  -1.469  24.255  0.00  0.00    +0.024 A 
ATOM     28  C   UNL     1       2.667  -0.439  23.426  0.00  0.00    +0.029 A 
BRANCH  28   7
ATOM      7  N   UNL     1       4.045  -0.294  23.157  0.00  0.00    -0.336 N 
ATOM     30  C   UNL     1       4.516   0.768  22.290  0.00  0.00    +0.129 C 
ATOM     31  C   UNL     1       5.008  -1.201  23.750  0.00  0.00    +0.129 C 
ENDBRANCH  28   7
ENDBRANCH  18  21
ENDBRANCH   9  16
BRANCH  10  15
ATOM     15  C   UNL     1      -2.309   4.320  24.704  0.00  0.00    +0.123 C 
BRANCH  15   4
ATOM      1  O   UNL     1       0.291   3.053  24.644  0.00  0.00    -0.273 OA
ATOM      4  N   UNL     1      -1.672   3.603  25.766  0.00  0.00    -0.312 N 
ATOM     19  C   UNL     1      -0.411   3.021  25.651  0.00  0.00    +0.239 C 
ATOM     32  H   UNL     1      -2.172   3.516  26.646  0.00  0.00    +0.149 HD
BRANCH  19  22
ATOM     22  C   UNL     1       0.018   2.329  26.927  0.00  0.00    +0.255 C 
BRANCH  22   2
ATOM      2  O   UNL     1       1.325   2.721  27.291  0.00  0.00    -0.374 OA
ATOM     29  C   UNL     1       1.543   2.604  28.693  0.00  0.00    +0.194 C 
ENDBRANCH  22   2
ENDBRANCH  19  22
ENDBRANCH  15   4
ENDBRANCH  10  15
TORSDOF 7
ENDMDL
MODEL 2
REMARK VINA RESULT:       3.7      1.633      2.130
REMARK  Name = 26742474
REMARK  11 active torsions:
REMARK  status: ('A' for Active; 'I' for Inactive)
REMARK    1  A    between atoms: O_2  and  C_22
REMARK    2  A    between atoms: O_2  and  C_29
REMARK    3  A    between atoms: N_4  and  C_15
REMARK    4  A    between atoms: N_7  and  C_28
REMARK    5  A    between atoms: N_7  and  C_30
REMARK    6  A    between atoms: N_7  and  C_31
REMARK    7  A    between atoms: C_9  and  C_16
REMARK    8  A    between atoms: C_10  and  C_15
REMARK    9  A    between atoms: C_18  and  C_21
REMARK   10  A    between atoms: C_19  and  C_22
REMARK   11  A    between atoms: C_20  and  C_23
REMARK                            x       y       z     vdW  Elec       q    Type
REMARK                         _______ _______ _______ _____ _____    ______ ____
ROOT
ATOM      3  N   UNL     1      -5.457   2.735  26.511  0.00  0.00    -0.297 NA
ATOM      8  C   UNL     1      -5.083   2.091  24.015  0.00  0.00    +0.002 C 
ATOM      9  C   UNL     1      -4.953   0.839  24.925  0.00  0.00    +0.055 C 
ATOM     10  C   UNL     1      -4.467   3.654  25.892  0.00  0.00    +0.074 C 
ATOM     11  C   UNL     1      -4.077   3.165  24.479  0.00  0.00    +0.024 C 
ATOM     12  C   UNL     1      -6.498   2.665  24.246  0.00  0.00    +0.019 C 
ATOM     13  C   UNL     1      -4.986   1.331  26.400  0.00  0.00    +0.094 C 
ATOM     14  C   UNL     1      -6.726   2.858  25.755  0.00  0.00    +0.085 C 
ENDROOT
BRANCH   9  16
ATOM      5  N   UNL     1      -4.085  -1.442  24.750  0.00  0.00    -0.237 NA
ATOM      6  N   UNL     1      -1.782  -1.901  24.208  0.00  0.00    -0.232 NA
ATOM     16  C   UNL     1      -3.803  -0.124  24.664  0.00  0.00    +0.050 A 
ATOM     17  C   UNL     1      -2.553   0.374  24.360  0.00  0.00    +0.052 A 
ATOM     18  C   UNL     1      -1.572  -0.571  24.139  0.00  0.00    +0.075 A 
ATOM     20  C   UNL     1      -3.043  -2.261  24.513  0.00  0.00    +0.127 A 
ATOM     23  C   UNL     1      -3.315  -3.725  24.601  0.00  0.00    +0.088 C 
BRANCH  18  21
ATOM     21  C   UNL     1      -0.221  -0.179  23.814  0.00  0.00    +0.001 A 
ATOM     24  C   UNL     1       0.500  -0.891  22.854  0.00  0.00    +0.012 A 
ATOM     25  C   UNL     1       0.363   0.911  24.458  0.00  0.00    +0.012 A 
ATOM     26  C   UNL     1       1.806  -0.513  22.540  0.00  0.00    +0.024 A 
ATOM     27  C   UNL     1       1.669   1.290  24.143  0.00  0.00    +0.024 A 
ATOM     28  C   UNL     1       2.389   0.578  23.184  0.00  0.00    +0.029 A 
BRANCH  28   7
ATOM      7  N   UNL     1       3.709   0.960  22.867  0.00  0.00    -0.336 N 
ATOM     30  C   UNL     1       4.830   0.131  23.264  0.00  0.00    +0.129 C 
ATOM     31  C   UNL     1       3.962   2.184  22.131  0.00  0.00    +0.129 C 
ENDBRANCH  28   7
ENDBRANCH  18  21
ENDBRANCH   9  16
BRANCH  10  15
ATOM     15  C   UNL     1      -3.238   3.871  26.778  0.00  0.00    +0.123 C 
BRANCH  15   4
ATOM      1  O   UNL     1      -1.768   5.839  25.252  0.00  0.00    -0.273 OA
ATOM      4  N   UNL     1      -2.031   3.665  26.038  0.00  0.00    -0.312 N 
ATOM     19  C   UNL     1      -1.386   4.675  25.327  0.00  0.00    +0.239 C 
ATOM     32  H   UNL     1      -1.632   2.731  26.033  0.00  0.00    +0.149 HD
BRANCH  19  22
ATOM     22  C   UNL     1      -0.132   4.178  24.640  0.00  0.00    +0.255 C 
BRANCH  22   2
ATOM      2  O   UNL     1      -0.309   4.150  23.239  0.00  0.00    -0.374 OA
ATOM     29  C   UNL     1      -1.273   3.180  22.845  0.00  0.00    +0.194 C 
ENDBRANCH  22   2
ENDBRANCH  19  22
ENDBRANCH  15   4
ENDBRANCH  10  15
TORSDOF 7
ENDMDL
MODEL 3
REMARK VINA RESULT:       4.8      2.333      3.797
REMARK  Name = 26742474
REMARK  11 active torsions:
REMARK  status: ('A' for Active; 'I' for Inactive)
REMARK    1  A    between atoms: O_2  and  C_22
REMARK    2  A    between atoms: O_2  and  C_29
REMARK    3  A    between atoms: N_4  and  C_15
REMARK    4  A    between atoms: N_7  and  C_28
REMARK    5  A    between atoms: N_7  and  C_30
REMARK    6  A    between atoms: N_7  and  C_31
REMARK    7  A    between atoms: C_9  and  C_16
REMARK    8  A    between atoms: C_10  and  C_15
REMARK    9  A    between atoms: C_18  and  C_21
REMARK   10  A    between atoms: C_19  and  C_22
REMARK   11  A    between atoms: C_20  and  C_23
REMARK                            x       y       z     vdW  Elec       q    Type
REMARK                         _______ _______ _______ _____ _____    ______ ____
ROOT
ATOM      3  N   UNL     1      -4.013   3.293  23.777  0.00  0.00    -0.297 NA
ATOM      8  C   UNL     1      -1.842   3.186  25.211  0.00  0.00    +0.002 C 
ATOM      9  C   UNL     1      -1.591   2.585  23.801  0.00  0.00    +0.055 C 
ATOM     10  C   UNL     1      -4.309   2.694  25.104  0.00  0.00    +0.074 C 
ATOM     11  C   UNL     1      -3.005   2.432  25.888  0.00  0.00    +0.024 C 
ATOM     12  C   UNL     1      -2.308   4.642  24.999  0.00  0.00    +0.019 C 
ATOM     13  C   UNL     1      -2.968   2.499  23.083  0.00  0.00    +0.094 C 
ATOM     14  C   UNL     1      -3.480   4.658  24.004  0.00  0.00    +0.085 C 
ENDROOT
BRANCH   9  16
ATOM      5  N   UNL     1      -1.523   0.141  23.718  0.00  0.00    -0.237 NA
ATOM      6  N   UNL     1       0.545  -1.080  23.529  0.00  0.00    -0.232 NA
ATOM     16  C   UNL     1      -0.806   1.284  23.702  0.00  0.00    +0.050 A 
ATOM     17  C   UNL     1       0.570   1.325  23.603  0.00  0.00    +0.052 A 
ATOM     18  C   UNL     1       1.198   0.100  23.518  0.00  0.00    +0.075 A 
ATOM     20  C   UNL     1      -0.794  -0.988  23.629  0.00  0.00    +0.127 A 
ATOM     23  C   UNL     1      -1.552  -2.272  23.647  0.00  0.00    +0.088 C 
BRANCH  18  21
ATOM     21  C   UNL     1       2.635   0.005  23.412  0.00  0.00    +0.001 A 
ATOM     24  C   UNL     1       3.296  -1.133  23.877  0.00  0.00    +0.012 A 
ATOM     25  C   UNL     1       3.362   1.051  22.844  0.00  0.00    +0.012 A 
ATOM     26  C   UNL     1       4.684  -1.224  23.775  0.00  0.00    +0.024 A 
ATOM     27  C   UNL     1       4.751   0.959  22.741  0.00  0.00    +0.024 A 
ATOM     28  C   UNL     1       5.411  -0.178  23.206  0.00  0.00    +0.029 A 
BRANCH  28   7
ATOM      7  N   UNL     1       6.815  -0.270  23.103  0.00  0.00    -0.336 N 
ATOM     30  C   UNL     1       7.665   0.689  23.780  0.00  0.00    +0.129 C 
ATOM     31  C   UNL     1       7.425  -1.330  22.326  0.00  0.00    +0.129 C 
ENDBRANCH  28   7
ENDBRANCH  18  21
ENDBRANCH   9  16
BRANCH  10  15
ATOM     15  C   UNL     1      -5.172   1.434  24.995  0.00  0.00    +0.123 C 
BRANCH  15   4
ATOM      1  O   UNL     1      -4.724  -1.129  23.732  0.00  0.00    -0.273 OA
ATOM      4  N   UNL     1      -4.496   0.303  25.552  0.00  0.00    -0.312 N 
ATOM     19  C   UNL     1      -4.324  -0.900  24.870  0.00  0.00    +0.239 C 
ATOM     32  H   UNL     1      -4.127   0.388  26.496  0.00  0.00    +0.149 HD
BRANCH  19  22
ATOM     22  C   UNL     1      -3.572  -1.923  25.695  0.00  0.00    +0.255 C 
BRANCH  22   2
ATOM      2  O   UNL     1      -3.062  -1.336  26.873  0.00  0.00    -0.374 OA
ATOM     29  C   UNL     1      -1.676  -1.030  26.757  0.00  0.00    +0.194 C 
ENDBRANCH  22   2
ENDBRANCH  19  22
ENDBRANCH  15   4
ENDBRANCH  10  15
TORSDOF 7
ENDMDL
