MODEL 1
REMARK VINA RESULT:      -4.1      0.000      0.000
REMARK  Name = 75536906
REMARK  3 active torsions:
REMARK  status: ('A' for Active; 'I' for Inactive)
REMARK    1  A    between atoms: O_3  and  C_14
REMARK    2  A    between atoms: O_3  and  C_17
REMARK    3  A    between atoms: C_7  and  C_11
REMARK                            x       y       z     vdW  Elec       q    Type
REMARK                         _______ _______ _______ _____ _____    ______ ____
ROOT
ATOM      1  O   UNL     1      -2.003   3.967  24.437  0.00  0.00    -0.375 OA
ATOM      2  O   UNL     1       0.049  -0.756  23.783  0.00  0.00    -0.275 OA
ATOM      4  N   UNL     1      -0.274   1.453  24.446  0.00  0.00    -0.295 N 
ATOM     11  C   UNL     1       0.387   0.435  23.726  0.00  0.00    +0.219 C 
ATOM     12  C   UNL     1      -1.424   1.104  25.283  0.00  0.00    +0.154 C 
ATOM     13  C   UNL     1       0.150   2.854  24.357  0.00  0.00    +0.136 C 
ATOM     14  C   UNL     1      -2.739   1.631  24.709  0.00  0.00    +0.218 C 
ATOM     15  C   UNL     1      -0.727   3.880  25.063  0.00  0.00    +0.179 C 
ATOM     16  C   UNL     1      -2.979   3.107  25.014  0.00  0.00    +0.206 C 
ENDROOT
BRANCH  11   7
ATOM      7  C   UNL     1       1.570   0.868  22.854  0.00  0.00    +0.075 C 
ATOM      8  C   UNL     1       2.988   0.824  23.482  0.00  0.00    +0.013 C 
ATOM      9  C   UNL     1       2.100  -0.149  21.811  0.00  0.00    +0.013 C 
ATOM     10  C   UNL     1       3.515   0.385  22.102  0.00  0.00    +0.001 C 
ENDBRANCH  11   7
BRANCH  14   3
ATOM      3  O   UNL     1      -3.802   0.872  25.283  0.00  0.00    -0.468 OA
BRANCH   3  17
ATOM      5  N   UNL     1      -3.284  -1.283  25.985  0.00  0.00    -0.219 NA
ATOM      6  N   UNL     1      -4.307  -2.282  23.571  0.00  0.00    -0.256 NA
ATOM     17  C   UNL     1      -3.795  -0.473  25.036  0.00  0.00    +0.234 A 
ATOM     18  C   UNL     1      -4.297  -0.964  23.851  0.00  0.00    +0.177 A 
ATOM     19  C   UNL     1      -3.295  -2.601  25.705  0.00  0.00    +0.134 A 
ATOM     20  C   UNL     1      -3.796  -3.092  24.521  0.00  0.00    +0.130 A 
ENDBRANCH   3  17
ENDBRANCH  14   3
TORSDOF 3
ENDMDL
MODEL 2
REMARK VINA RESULT:      -3.8     15.383     17.873
REMARK  Name = 75536906
REMARK  3 active torsions:
REMARK  status: ('A' for Active; 'I' for Inactive)
REMARK    1  A    between atoms: O_3  and  C_14
REMARK    2  A    between atoms: O_3  and  C_17
REMARK    3  A    between atoms: C_7  and  C_11
REMARK                            x       y       z     vdW  Elec       q    Type
REMARK                         _______ _______ _______ _____ _____    ______ ____
ROOT
ATOM      1  O   UNL     1      -3.454 -10.781  10.334  0.00  0.00    -0.375 OA
ATOM      2  O   UNL     1      -7.773  -9.285  12.794  0.00  0.00    -0.275 OA
ATOM      4  N   UNL     1      -5.538  -9.578  12.209  0.00  0.00    -0.295 N 
ATOM     11  C   UNL     1      -6.656  -9.756  13.052  0.00  0.00    +0.219 C 
ATOM     12  C   UNL     1      -5.696  -8.825  10.963  0.00  0.00    +0.154 C 
ATOM     13  C   UNL     1      -4.229 -10.148  12.543  0.00  0.00    +0.136 C 
ATOM     14  C   UNL     1      -5.595  -9.721   9.729  0.00  0.00    +0.218 C 
ATOM     15  C   UNL     1      -3.136 -10.014  11.490  0.00  0.00    +0.179 C 
ATOM     16  C   UNL     1      -4.156 -10.046   9.338  0.00  0.00    +0.206 C 
ENDROOT
BRANCH  11   7
ATOM      7  C   UNL     1      -6.430 -10.569  14.330  0.00  0.00    +0.075 C 
ATOM      8  C   UNL     1      -5.669  -9.887  15.499  0.00  0.00    +0.013 C 
ATOM      9  C   UNL     1      -7.623 -10.709  15.310  0.00  0.00    +0.013 C 
ATOM     10  C   UNL     1      -6.603 -10.644  16.463  0.00  0.00    +0.001 C 
ENDBRANCH  11   7
BRANCH  14   3
ATOM      3  O   UNL     1      -6.217  -9.038   8.641  0.00  0.00    -0.468 OA
BRANCH   3  17
ATOM      5  N   UNL     1      -7.857  -7.394   8.523  0.00  0.00    -0.219 NA
ATOM      6  N   UNL     1      -9.737  -9.246   9.471  0.00  0.00    -0.256 NA
ATOM     17  C   UNL     1      -7.520  -8.666   8.818  0.00  0.00    +0.234 A 
ATOM     18  C   UNL     1      -8.444  -9.575   9.284  0.00  0.00    +0.177 A 
ATOM     19  C   UNL     1      -9.150  -7.066   8.710  0.00  0.00    +0.134 A 
ATOM     20  C   UNL     1     -10.074  -7.975   9.176  0.00  0.00    +0.130 A 
ENDBRANCH   3  17
ENDBRANCH  14   3
TORSDOF 3
ENDMDL
MODEL 3
REMARK VINA RESULT:      -3.8      2.502      6.404
REMARK  Name = 75536906
REMARK  3 active torsions:
REMARK  status: ('A' for Active; 'I' for Inactive)
REMARK    1  A    between atoms: O_3  and  C_14
REMARK    2  A    between atoms: O_3  and  C_17
REMARK    3  A    between atoms: C_7  and  C_11
REMARK                            x       y       z     vdW  Elec       q    Type
REMARK                         _______ _______ _______ _____ _____    ______ ____
ROOT
ATOM      1  O   UNL     1      -0.795  -1.589  24.312  0.00  0.00    -0.375 OA
ATOM      2  O   UNL     1      -0.477   3.585  24.035  0.00  0.00    -0.275 OA
ATOM      4  N   UNL     1      -0.545   1.404  24.848  0.00  0.00    -0.295 N 
ATOM     11  C   UNL     1      -1.057   2.710  24.693  0.00  0.00    +0.219 C 
ATOM     12  C   UNL     1       0.715   1.049  24.191  0.00  0.00    +0.154 C 
ATOM     13  C   UNL     1      -1.256   0.391  25.634  0.00  0.00    +0.136 C 
ATOM     14  C   UNL     1       0.507   0.069  23.036  0.00  0.00    +0.218 C 
ATOM     15  C   UNL     1      -0.681  -1.019  25.612  0.00  0.00    +0.179 C 
ATOM     16  C   UNL     1       0.351  -1.377  23.495  0.00  0.00    +0.206 C 
ENDROOT
BRANCH  11   7
ATOM      7  C   UNL     1      -2.387   3.014  25.389  0.00  0.00    +0.075 C 
ATOM      8  C   UNL     1      -2.724   4.498  25.695  0.00  0.00    +0.013 C 
ATOM      9  C   UNL     1      -3.671   2.997  24.520  0.00  0.00    +0.013 C 
ATOM     10  C   UNL     1      -4.195   4.161  25.382  0.00  0.00    +0.001 C 
ENDBRANCH  11   7
BRANCH  14   3
ATOM      3  O   UNL     1       1.648   0.153  22.182  0.00  0.00    -0.468 OA
BRANCH   3  17
ATOM      5  N   UNL     1       3.165  -1.226  23.281  0.00  0.00    -0.219 NA
ATOM      6  N   UNL     1       4.964   0.921  23.425  0.00  0.00    -0.256 NA
ATOM     17  C   UNL     1       2.869  -0.011  22.777  0.00  0.00    +0.234 A 
ATOM     18  C   UNL     1       3.753   1.043  22.847  0.00  0.00    +0.177 A 
ATOM     19  C   UNL     1       4.376  -1.348  23.858  0.00  0.00    +0.134 A 
ATOM     20  C   UNL     1       5.260  -0.294  23.929  0.00  0.00    +0.130 A 
ENDBRANCH   3  17
ENDBRANCH  14   3
TORSDOF 3
ENDMDL
MODEL 4
REMARK VINA RESULT:      -2.9      1.947      5.331
REMARK  Name = 75536906
REMARK  3 active torsions:
REMARK  status: ('A' for Active; 'I' for Inactive)
REMARK    1  A    between atoms: O_3  and  C_14
REMARK    2  A    between atoms: O_3  and  C_17
REMARK    3  A    between atoms: C_7  and  C_11
REMARK                            x       y       z     vdW  Elec       q    Type
REMARK                         _______ _______ _______ _____ _____    ______ ____
ROOT
ATOM      1  O   UNL     1       0.979   0.725  23.109  0.00  0.00    -0.375 OA
ATOM      2  O   UNL     1      -3.648  -0.107  25.310  0.00  0.00    -0.275 OA
ATOM      4  N   UNL     1      -1.390  -0.258  24.761  0.00  0.00    -0.295 N 
ATOM     11  C   UNL     1      -2.712  -0.748  24.811  0.00  0.00    +0.219 C 
ATOM     12  C   UNL     1      -1.101   1.073  25.300  0.00  0.00    +0.154 C 
ATOM     13  C   UNL     1      -0.304  -1.041  24.163  0.00  0.00    +0.136 C 
ATOM     14  C   UNL     1      -0.765   2.081  24.201  0.00  0.00    +0.218 C 
ATOM     15  C   UNL     1       1.048  -0.352  24.037  0.00  0.00    +0.179 C 
ATOM     16  C   UNL     1       0.677   1.978  23.712  0.00  0.00    +0.206 C 
ENDROOT
BRANCH  11   7
ATOM      7  C   UNL     1      -2.952  -2.138  24.214  0.00  0.00    +0.075 C 
ATOM      8  C   UNL     1      -3.368  -3.280  25.179  0.00  0.00    +0.013 C 
ATOM      9  C   UNL     1      -4.301  -2.383  23.490  0.00  0.00    +0.013 C 
ATOM     10  C   UNL     1      -4.270  -3.817  24.051  0.00  0.00    +0.001 C 
ENDBRANCH  11   7
BRANCH  14   3
ATOM      3  O   UNL     1      -0.971   3.390  24.732  0.00  0.00    -0.468 OA
BRANCH   3  17
ATOM      5  N   UNL     1      -2.441   4.209  26.336  0.00  0.00    -0.219 NA
ATOM      6  N   UNL     1      -4.565   3.808  24.549  0.00  0.00    -0.256 NA
ATOM     17  C   UNL     1      -2.249   3.706  25.100  0.00  0.00    +0.234 A 
ATOM     18  C   UNL     1      -3.293   3.510  24.222  0.00  0.00    +0.177 A 
ATOM     19  C   UNL     1      -3.713   4.509  26.662  0.00  0.00    +0.134 A 
ATOM     20  C   UNL     1      -4.757   4.312  25.785  0.00  0.00    +0.130 A 
ENDBRANCH   3  17
ENDBRANCH  14   3
TORSDOF 3
ENDMDL
MODEL 5
REMARK VINA RESULT:      -2.7      2.284      6.236
REMARK  Name = 75536906
REMARK  3 active torsions:
REMARK  status: ('A' for Active; 'I' for Inactive)
REMARK    1  A    between atoms: O_3  and  C_14
REMARK    2  A    between atoms: O_3  and  C_17
REMARK    3  A    between atoms: C_7  and  C_11
REMARK                            x       y       z     vdW  Elec       q    Type
REMARK                         _______ _______ _______ _____ _____    ______ ____
ROOT
ATOM      1  O   UNL     1       0.411   2.492  25.584  0.00  0.00    -0.375 OA
ATOM      2  O   UNL     1      -3.571   0.008  23.366  0.00  0.00    -0.275 OA
ATOM      4  N   UNL     1      -2.170   1.684  24.172  0.00  0.00    -0.295 N 
ATOM     11  C   UNL     1      -3.364   0.932  24.166  0.00  0.00    +0.219 C 
ATOM     12  C   UNL     1      -1.114   1.356  23.211  0.00  0.00    +0.154 C 
ATOM     13  C   UNL     1      -1.954   2.772  25.131  0.00  0.00    +0.136 C 
ATOM     14  C   UNL     1       0.108   0.733  23.885  0.00  0.00    +0.218 C 
ATOM     15  C   UNL     1      -0.574   3.416  25.136  0.00  0.00    +0.179 C 
ATOM     16  C   UNL     1       1.030   1.764  24.529  0.00  0.00    +0.206 C 
ENDROOT
BRANCH  11   7
ATOM      7  C   UNL     1      -4.420   1.312  25.208  0.00  0.00    +0.075 C 
ATOM      8  C   UNL     1      -4.848   2.801  25.297  0.00  0.00    +0.013 C 
ATOM      9  C   UNL     1      -5.901   1.002  24.871  0.00  0.00    +0.013 C 
ATOM     10  C   UNL     1      -6.275   2.306  25.601  0.00  0.00    +0.001 C 
ENDBRANCH  11   7
BRANCH  14   3
ATOM      3  O   UNL     1       0.845   0.027  22.887  0.00  0.00    -0.468 OA
BRANCH   3  17
ATOM      5  N   UNL     1       2.759  -1.144  23.495  0.00  0.00    -0.219 NA
ATOM      6  N   UNL     1       4.302   1.113  22.865  0.00  0.00    -0.256 NA
ATOM     17  C   UNL     1       2.203  -0.003  23.038  0.00  0.00    +0.234 A 
ATOM     18  C   UNL     1       2.961   1.104  22.728  0.00  0.00    +0.177 A 
ATOM     19  C   UNL     1       4.100  -1.135  23.631  0.00  0.00    +0.134 A 
ATOM     20  C   UNL     1       4.858  -0.028  23.322  0.00  0.00    +0.130 A 
ENDBRANCH   3  17
ENDBRANCH  14   3
TORSDOF 3
ENDMDL
MODEL 6
REMARK VINA RESULT:      -2.6      2.397      4.857
REMARK  Name = 75536906
REMARK  3 active torsions:
REMARK  status: ('A' for Active; 'I' for Inactive)
REMARK    1  A    between atoms: O_3  and  C_14
REMARK    2  A    between atoms: O_3  and  C_17
REMARK    3  A    between atoms: C_7  and  C_11
REMARK                            x       y       z     vdW  Elec       q    Type
REMARK                         _______ _______ _______ _____ _____    ______ ____
ROOT
ATOM      1  O   UNL     1      -0.159   3.318  25.782  0.00  0.00    -0.375 OA
ATOM      2  O   UNL     1      -4.580   1.053  24.276  0.00  0.00    -0.275 OA
ATOM      4  N   UNL     1      -2.697   2.422  24.347  0.00  0.00    -0.295 N 
ATOM     11  C   UNL     1      -4.089   2.186  24.379  0.00  0.00    +0.219 C 
ATOM     12  C   UNL     1      -1.784   1.285  24.208  0.00  0.00    +0.154 C 
ATOM     13  C   UNL     1      -2.147   3.775  24.471  0.00  0.00    +0.136 C 
ATOM     14  C   UNL     1      -0.995   1.018  25.490  0.00  0.00    +0.218 C 
ATOM     15  C   UNL     1      -0.631   3.890  24.567  0.00  0.00    +0.179 C 
ATOM     16  C   UNL     1       0.203   1.947  25.662  0.00  0.00    +0.206 C 
ENDROOT
BRANCH  11   7
ATOM      7  C   UNL     1      -4.990   3.414  24.545  0.00  0.00    +0.075 C 
ATOM      8  C   UNL     1      -6.235   3.280  25.463  0.00  0.00    +0.013 C 
ATOM      9  C   UNL     1      -4.511   4.527  25.511  0.00  0.00    +0.013 C 
ATOM     10  C   UNL     1      -5.986   4.736  25.902  0.00  0.00    +0.001 C 
ENDBRANCH  11   7
BRANCH  14   3
ATOM      3  O   UNL     1      -0.521  -0.327  25.439  0.00  0.00    -0.468 OA
BRANCH   3  17
ATOM      5  N   UNL     1      -2.619  -1.251  25.832  0.00  0.00    -0.219 NA
ATOM      6  N   UNL     1      -2.072  -3.230  23.922  0.00  0.00    -0.256 NA
ATOM     17  C   UNL     1      -1.450  -1.292  25.161  0.00  0.00    +0.234 A 
ATOM     18  C   UNL     1      -1.182  -2.264  24.222  0.00  0.00    +0.177 A 
ATOM     19  C   UNL     1      -3.508  -2.217  25.531  0.00  0.00    +0.134 A 
ATOM     20  C   UNL     1      -3.240  -3.189  24.593  0.00  0.00    +0.130 A 
ENDBRANCH   3  17
ENDBRANCH  14   3
TORSDOF 3
ENDMDL
MODEL 7
REMARK VINA RESULT:      -2.5      2.086      6.413
REMARK  Name = 75536906
REMARK  3 active torsions:
REMARK  status: ('A' for Active; 'I' for Inactive)
REMARK    1  A    between atoms: O_3  and  C_14
REMARK    2  A    between atoms: O_3  and  C_17
REMARK    3  A    between atoms: C_7  and  C_11
REMARK                            x       y       z     vdW  Elec       q    Type
REMARK                         _______ _______ _______ _____ _____    ______ ____
ROOT
ATOM      1  O   UNL     1      -1.589  -1.240  24.504  0.00  0.00    -0.375 OA
ATOM      2  O   UNL     1      -2.591   3.849  24.705  0.00  0.00    -0.275 OA
ATOM      4  N   UNL     1      -2.531   1.576  25.205  0.00  0.00    -0.295 N 
ATOM     11  C   UNL     1      -3.183   2.766  24.820  0.00  0.00    +0.219 C 
ATOM     12  C   UNL     1      -1.089   1.602  25.462  0.00  0.00    +0.154 C 
ATOM     13  C   UNL     1      -3.259   0.310  25.333  0.00  0.00    +0.136 C 
ATOM     14  C   UNL     1      -0.297   0.855  24.390  0.00  0.00    +0.218 C 
ATOM     15  C   UNL     1      -2.426  -0.934  25.614  0.00  0.00    +0.179 C 
ATOM     16  C   UNL     1      -0.294  -0.658  24.590  0.00  0.00    +0.206 C 
ENDROOT
BRANCH  11   7
ATOM      7  C   UNL     1      -4.687   2.668  24.547  0.00  0.00    +0.075 C 
ATOM      8  C   UNL     1      -5.368   1.286  24.731  0.00  0.00    +0.013 C 
ATOM      9  C   UNL     1      -5.649   3.186  25.646  0.00  0.00    +0.013 C 
ATOM     10  C   UNL     1      -6.603   2.038  25.265  0.00  0.00    +0.001 C 
ENDBRANCH  11   7
BRANCH  14   3
ATOM      3  O   UNL     1       1.052   1.321  24.439  0.00  0.00    -0.468 OA
BRANCH   3  17
ATOM      5  N   UNL     1       3.159   1.325  23.458  0.00  0.00    -0.219 NA
ATOM      6  N   UNL     1       2.183  -0.346  21.427  0.00  0.00    -0.256 NA
ATOM     17  C   UNL     1       1.878   0.905  23.432  0.00  0.00    +0.234 A 
ATOM     18  C   UNL     1       1.399   0.084  22.435  0.00  0.00    +0.177 A 
ATOM     19  C   UNL     1       3.943   0.894  22.450  0.00  0.00    +0.134 A 
ATOM     20  C   UNL     1       3.464   0.074  21.452  0.00  0.00    +0.130 A 
ENDBRANCH   3  17
ENDBRANCH  14   3
TORSDOF 3
ENDMDL
MODEL 8
REMARK VINA RESULT:      -2.3     18.465     19.459
REMARK  Name = 75536906
REMARK  3 active torsions:
REMARK  status: ('A' for Active; 'I' for Inactive)
REMARK    1  A    between atoms: O_3  and  C_14
REMARK    2  A    between atoms: O_3  and  C_17
REMARK    3  A    between atoms: C_7  and  C_11
REMARK                            x       y       z     vdW  Elec       q    Type
REMARK                         _______ _______ _______ _____ _____    ______ ____
ROOT
ATOM      1  O   UNL     1      17.404  -7.688  27.748  0.00  0.00    -0.375 OA
ATOM      2  O   UNL     1      14.498  -5.352  31.359  0.00  0.00    -0.275 OA
ATOM      4  N   UNL     1      15.671  -5.794  29.397  0.00  0.00    -0.295 N 
ATOM     11  C   UNL     1      15.447  -5.098  30.604  0.00  0.00    +0.219 C 
ATOM     12  C   UNL     1      14.762  -6.879  29.019  0.00  0.00    +0.154 C 
ATOM     13  C   UNL     1      16.804  -5.470  28.524  0.00  0.00    +0.136 C 
ATOM     14  C   UNL     1      15.430  -8.251  29.111  0.00  0.00    +0.218 C 
ATOM     15  C   UNL     1      17.026  -6.382  27.324  0.00  0.00    +0.179 C 
ATOM     16  C   UNL     1      16.304  -8.576  27.903  0.00  0.00    +0.206 C 
ENDROOT
BRANCH  11   7
ATOM      7  C   UNL     1      16.443  -3.988  30.951  0.00  0.00    +0.075 C 
ATOM      8  C   UNL     1      16.265  -2.611  30.257  0.00  0.00    +0.013 C 
ATOM      9  C   UNL     1      16.238  -3.235  32.291  0.00  0.00    +0.013 C 
ATOM     10  C   UNL     1      16.722  -1.959  31.576  0.00  0.00    +0.001 C 
ENDBRANCH  11   7
BRANCH  14   3
ATOM      3  O   UNL     1      14.399  -9.234  29.203  0.00  0.00    -0.468 OA
BRANCH   3  17
ATOM      5  N   UNL     1      14.650  -9.118  31.511  0.00  0.00    -0.219 NA
ATOM      6  N   UNL     1      12.143 -10.340  31.813  0.00  0.00    -0.256 NA
ATOM     17  C   UNL     1      13.900  -9.481  30.451  0.00  0.00    +0.234 A 
ATOM     18  C   UNL     1      12.669 -10.081  30.600  0.00  0.00    +0.177 A 
ATOM     19  C   UNL     1      14.124  -9.377  32.724  0.00  0.00    +0.134 A 
ATOM     20  C   UNL     1      12.894  -9.978  32.873  0.00  0.00    +0.130 A 
ENDBRANCH   3  17
ENDBRANCH  14   3
TORSDOF 3
ENDMDL
MODEL 9
REMARK VINA RESULT:      -2.2      2.021      2.711
REMARK  Name = 75536906
REMARK  3 active torsions:
REMARK  status: ('A' for Active; 'I' for Inactive)
REMARK    1  A    between atoms: O_3  and  C_14
REMARK    2  A    between atoms: O_3  and  C_17
REMARK    3  A    between atoms: C_7  and  C_11
REMARK                            x       y       z     vdW  Elec       q    Type
REMARK                         _______ _______ _______ _____ _____    ______ ____
ROOT
ATOM      1  O   UNL     1      -0.624   3.774  25.326  0.00  0.00    -0.375 OA
ATOM      2  O   UNL     1       0.742  -0.247  22.341  0.00  0.00    -0.275 OA
ATOM      4  N   UNL     1       0.399   1.137  24.182  0.00  0.00    -0.295 N 
ATOM     11  C   UNL     1       1.210   0.454  23.250  0.00  0.00    +0.219 C 
ATOM     12  C   UNL     1      -1.058   1.040  24.068  0.00  0.00    +0.154 C 
ATOM     13  C   UNL     1       0.982   1.959  25.247  0.00  0.00    +0.136 C 
ATOM     14  C   UNL     1      -1.692   2.356  23.617  0.00  0.00    +0.218 C 
ATOM     15  C   UNL     1       0.010   2.762  26.101  0.00  0.00    +0.179 C 
ATOM     16  C   UNL     1      -1.859   3.361  24.752  0.00  0.00    +0.206 C 
ENDROOT
BRANCH  11   7
ATOM      7  C   UNL     1       2.724   0.612  23.411  0.00  0.00    +0.075 C 
ATOM      8  C   UNL     1       3.589  -0.677  23.436  0.00  0.00    +0.013 C 
ATOM      9  C   UNL     1       3.539   1.024  22.159  0.00  0.00    +0.013 C 
ATOM     10  C   UNL     1       4.669   0.111  22.670  0.00  0.00    +0.001 C 
ENDBRANCH  11   7
BRANCH  14   3
ATOM      3  O   UNL     1      -2.981   2.059  23.082  0.00  0.00    -0.468 OA
BRANCH   3  17
ATOM      5  N   UNL     1      -4.666   3.077  24.320  0.00  0.00    -0.219 NA
ATOM      6  N   UNL     1      -5.340   0.577  25.400  0.00  0.00    -0.256 NA
ATOM     17  C   UNL     1      -4.006   1.951  23.981  0.00  0.00    +0.234 A 
ATOM     18  C   UNL     1      -4.338   0.723  24.511  0.00  0.00    +0.177 A 
ATOM     19  C   UNL     1      -5.668   2.930  25.208  0.00  0.00    +0.134 A 
ATOM     20  C   UNL     1      -6.000   1.703  25.738  0.00  0.00    +0.130 A 
ENDBRANCH   3  17
ENDBRANCH  14   3
TORSDOF 3
ENDMDL
MODEL 10
REMARK VINA RESULT:      -1.4     19.229     20.196
REMARK  Name = 75536906
REMARK  3 active torsions:
REMARK  status: ('A' for Active; 'I' for Inactive)
REMARK    1  A    between atoms: O_3  and  C_14
REMARK    2  A    between atoms: O_3  and  C_17
REMARK    3  A    between atoms: C_7  and  C_11
REMARK                            x       y       z     vdW  Elec       q    Type
REMARK                         _______ _______ _______ _____ _____    ______ ____
ROOT
ATOM      1  O   UNL     1      16.395 -10.692  27.574  0.00  0.00    -0.375 OA
ATOM      2  O   UNL     1      16.425  -5.536  28.176  0.00  0.00    -0.275 OA
ATOM      4  N   UNL     1      16.012  -7.674  27.348  0.00  0.00    -0.295 N 
ATOM     11  C   UNL     1      16.578  -6.382  27.283  0.00  0.00    +0.219 C 
ATOM     12  C   UNL     1      15.226  -8.050  28.525  0.00  0.00    +0.154 C 
ATOM     13  C   UNL     1      16.212  -8.653  26.275  0.00  0.00    +0.136 C 
ATOM     14  C   UNL     1      15.941  -9.089  29.389  0.00  0.00    +0.218 C 
ATOM     15  C   UNL     1      15.676 -10.057  26.521  0.00  0.00    +0.179 C 
ATOM     16  C   UNL     1      15.804 -10.512  28.855  0.00  0.00    +0.206 C 
ENDROOT
BRANCH  11   7
ATOM      7  C   UNL     1      17.405  -6.056  26.036  0.00  0.00    +0.075 C 
ATOM      8  C   UNL     1      16.920  -6.625  24.675  0.00  0.00    +0.013 C 
ATOM      9  C   UNL     1      17.228  -4.651  25.407  0.00  0.00    +0.013 C 
ATOM     10  C   UNL     1      17.405  -5.314  24.028  0.00  0.00    +0.001 C 
ENDBRANCH  11   7
BRANCH  14   3
ATOM      3  O   UNL     1      15.369  -9.039  30.696  0.00  0.00    -0.468 OA
BRANCH   3  17
ATOM      5  N   UNL     1      16.821  -7.399  31.475  0.00  0.00    -0.219 NA
ATOM      6  N   UNL     1      14.659  -6.123  32.726  0.00  0.00    -0.256 NA
ATOM     17  C   UNL     1      15.566  -7.886  31.405  0.00  0.00    +0.234 A 
ATOM     18  C   UNL     1      14.504  -7.259  32.019  0.00  0.00    +0.177 A 
ATOM     19  C   UNL     1      16.975  -6.262  32.182  0.00  0.00    +0.134 A 
ATOM     20  C   UNL     1      15.914  -5.635  32.797  0.00  0.00    +0.130 A 
ENDBRANCH   3  17
ENDBRANCH  14   3
TORSDOF 3
ENDMDL
