MODEL 1
REMARK VINA RESULT:       8.0      0.000      0.000
REMARK  Name = 11885142
REMARK  2 active torsions:
REMARK  status: ('A' for Active; 'I' for Inactive)
REMARK    1  A    between atoms: C_15  and  C_18
REMARK    2  A    between atoms: C_16  and  C_19
REMARK                            x       y       z     vdW  Elec       q    Type
REMARK                         _______ _______ _______ _____ _____    ______ ____
ROOT
ATOM      1  O   UNL     1       0.521   2.330  25.554  0.00  0.00    -0.267 OA
ATOM      2  O   UNL     1      -2.847  -0.547  26.616  0.00  0.00    -0.267 OA
ATOM      4  N   UNL     1      -4.179   0.761  25.242  0.00  0.00    -0.294 N 
ATOM      5  N   UNL     1      -1.574   2.391  24.530  0.00  0.00    -0.311 N 
ATOM      6  C   UNL     1      -3.690   3.143  25.765  0.00  0.00    +0.027 C 
ATOM      7  C   UNL     1      -3.834   2.410  23.419  0.00  0.00    +0.054 C 
ATOM      8  C   UNL     1      -4.185   3.546  24.380  0.00  0.00    +0.018 C 
ATOM      9  C   UNL     1      -2.161   3.018  25.723  0.00  0.00    +0.130 C 
ATOM     10  C   UNL     1      -4.367   1.837  26.218  0.00  0.00    +0.113 C 
ATOM     11  C   UNL     1      -4.550   1.117  23.862  0.00  0.00    +0.117 C 
ATOM     12  C   UNL     1      -2.337   2.173  23.379  0.00  0.00    +0.027 A 
ATOM     13  C   UNL     1      -1.753   1.713  22.261  0.00  0.00    +0.022 A 
ATOM     14  C   UNL     1      -0.192   2.120  24.571  0.00  0.00    +0.259 A 
ATOM     15  C   UNL     1      -3.606  -0.458  25.650  0.00  0.00    +0.282 C 
ATOM     16  C   UNL     1       0.422   1.561  23.317  0.00  0.00    +0.047 A 
ATOM     17  C   UNL     1      -0.354   1.399  22.234  0.00  0.00    +0.015 A 
ENDROOT
BRANCH  16  19
ATOM     19  C   UNL     1       1.844   1.180  23.269  0.00  0.00    -0.012 A 
ATOM     20  C   UNL     1       2.231  -0.119  23.605  0.00  0.00    +0.017 A 
ATOM     22  C   UNL     1       2.803   2.114  22.888  0.00  0.00    +0.009 A 
ATOM     23  C   UNL     1       3.583  -0.498  23.565  0.00  0.00    -0.017 A 
ATOM     24  C   UNL     1       4.151   1.755  22.842  0.00  0.00    +0.009 A 
ATOM     25  C   UNL     1       4.556   0.453  23.177  0.00  0.00    -0.018 A 
ATOM     28  C   UNL     1       3.989  -1.800  23.899  0.00  0.00    +0.008 A 
ATOM     29  C   UNL     1       5.909   0.074  23.136  0.00  0.00    +0.008 A 
ATOM     30  C   UNL     1       5.336  -2.159  23.853  0.00  0.00    +0.001 A 
ATOM     31  C   UNL     1       6.294  -1.225  23.473  0.00  0.00    +0.001 A 
ENDBRANCH  16  19
BRANCH  15  18
ATOM      3  O   UNL     1      -3.428  -2.826  25.281  0.00  0.00    -0.458 OA
ATOM     18  C   UNL     1      -3.924  -1.638  24.859  0.00  0.00    +0.189 A 
ATOM     21  C   UNL     1      -4.661  -1.786  23.716  0.00  0.00    +0.054 A 
ATOM     26  C   UNL     1      -4.621  -3.167  23.407  0.00  0.00    +0.042 A 
ATOM     27  C   UNL     1      -3.858  -3.755  24.389  0.00  0.00    +0.196 A 
ENDBRANCH  15  18
TORSDOF 2
ENDMDL
