MODEL 1
REMARK VINA RESULT:      -4.9      0.000      0.000
REMARK  Name = 26742338
REMARK  5 active torsions:
REMARK  status: ('A' for Active; 'I' for Inactive)
REMARK    1  A    between atoms: O_3  and  C_14
REMARK    2  A    between atoms: O_3  and  C_17
REMARK    3  A    between atoms: N_6  and  C_18
REMARK    4  A    between atoms: C_8  and  C_14
REMARK    5  A    between atoms: C_10  and  C_15
REMARK                            x       y       z     vdW  Elec       q    Type
REMARK                         _______ _______ _______ _____ _____    ______ ____
ROOT
ATOM      3  O   UNL     1       0.412   1.825  24.864  0.00  0.00    -0.449 OA
ENDROOT
BRANCH   3  17
ATOM      4  O   UNL     1       0.327   0.231  23.227  0.00  0.00    -0.226 OA
ATOM      6  N   UNL     1      -1.255   0.314  24.952  0.00  0.00    -0.248 N 
ATOM     17  C   UNL     1      -0.141   0.725  24.246  0.00  0.00    +0.405 C 
ATOM     24  H   UNL     1      -1.490   0.855  25.781  0.00  0.00    +0.158 HD
BRANCH   6  18
ATOM      1  F   UNL     1      -0.430  -2.326  25.282  0.00  0.00    -0.203 F 
ATOM      2  F   UNL     1      -4.635  -3.932  23.826  0.00  0.00    -0.205 F 
ATOM     18  C   UNL     1      -2.115  -0.770  24.666  0.00  0.00    +0.072 A 
ATOM     19  C   UNL     1      -1.671  -2.081  24.841  0.00  0.00    +0.147 A 
ATOM     20  C   UNL     1      -3.410  -0.528  24.206  0.00  0.00    +0.029 A 
ATOM     21  C   UNL     1      -2.523  -3.150  24.558  0.00  0.00    +0.078 A 
ATOM     22  C   UNL     1      -4.260  -1.596  23.922  0.00  0.00    +0.040 A 
ATOM     23  C   UNL     1      -3.817  -2.907  24.099  0.00  0.00    +0.126 A 
ENDBRANCH   6  18
ENDBRANCH   3  17
BRANCH   3  14
ATOM     14  C   UNL     1      -0.097   2.161  26.140  0.00  0.00    +0.252 C 
BRANCH  14   8
ATOM      5  N   UNL     1      -2.292   3.343  26.396  0.00  0.00    -0.295 NA
ATOM      7  C   UNL     1      -2.080   4.655  24.160  0.00  0.00    +0.008 C 
ATOM      8  C   UNL     1      -0.860   3.482  26.023  0.00  0.00    +0.095 C 
ATOM      9  C   UNL     1      -0.713   4.108  24.618  0.00  0.00    +0.027 C 
ATOM     10  C   UNL     1      -3.071   3.479  24.018  0.00  0.00    +0.081 C 
ATOM     11  C   UNL     1      -2.615   5.558  25.286  0.00  0.00    +0.020 C 
ATOM     12  C   UNL     1      -3.040   2.647  25.319  0.00  0.00    +0.101 C 
ATOM     13  C   UNL     1      -2.859   4.706  26.545  0.00  0.00    +0.085 C 
BRANCH  10  15
ATOM     15  C   UNL     1      -2.778   2.648  22.839  0.00  0.00    -0.101 C 
ATOM     16  C   UNL     1      -2.539   1.971  21.877  0.00  0.00    +0.004 C 
ENDBRANCH  10  15
ENDBRANCH  14   8
ENDBRANCH   3  14
TORSDOF 5
ENDMDL
MODEL 2
REMARK VINA RESULT:      -4.8      0.962      1.608
REMARK  Name = 26742338
REMARK  5 active torsions:
REMARK  status: ('A' for Active; 'I' for Inactive)
REMARK    1  A    between atoms: O_3  and  C_14
REMARK    2  A    between atoms: O_3  and  C_17
REMARK    3  A    between atoms: N_6  and  C_18
REMARK    4  A    between atoms: C_8  and  C_14
REMARK    5  A    between atoms: C_10  and  C_15
REMARK                            x       y       z     vdW  Elec       q    Type
REMARK                         _______ _______ _______ _____ _____    ______ ____
ROOT
ATOM      3  O   UNL     1       0.261   1.800  25.188  0.00  0.00    -0.449 OA
ENDROOT
BRANCH   3  17
ATOM      4  O   UNL     1       0.289   0.260  23.497  0.00  0.00    -0.226 OA
ATOM      6  N   UNL     1      -1.409   0.292  25.110  0.00  0.00    -0.248 N 
ATOM     17  C   UNL     1      -0.249   0.723  24.497  0.00  0.00    +0.405 C 
ATOM     24  H   UNL     1      -1.701   0.806  25.937  0.00  0.00    +0.158 HD
BRANCH   6  18
ATOM      1  F   UNL     1      -0.605  -2.360  25.395  0.00  0.00    -0.203 F 
ATOM      2  F   UNL     1      -4.706  -3.905  23.612  0.00  0.00    -0.205 F 
ATOM     18  C   UNL     1      -2.248  -0.780  24.729  0.00  0.00    +0.072 A 
ATOM     19  C   UNL     1      -1.815  -2.097  24.884  0.00  0.00    +0.147 A 
ATOM     20  C   UNL     1      -3.510  -0.519  24.196  0.00  0.00    +0.029 A 
ATOM     21  C   UNL     1      -2.646  -3.153  24.507  0.00  0.00    +0.078 A 
ATOM     22  C   UNL     1      -4.340  -1.574  23.819  0.00  0.00    +0.040 A 
ATOM     23  C   UNL     1      -3.908  -2.891  23.975  0.00  0.00    +0.126 A 
ENDBRANCH   6  18
ENDBRANCH   3  17
BRANCH   3  14
ATOM     14  C   UNL     1      -0.650   2.538  25.979  0.00  0.00    +0.252 C 
BRANCH  14   8
ATOM      5  N   UNL     1      -1.923   4.696  25.919  0.00  0.00    -0.295 NA
ATOM      7  C   UNL     1      -3.494   3.952  23.983  0.00  0.00    +0.008 C 
ATOM      8  C   UNL     1      -1.265   3.636  25.110  0.00  0.00    +0.095 C 
ATOM      9  C   UNL     1      -2.239   3.059  24.059  0.00  0.00    +0.027 C 
ATOM     10  C   UNL     1      -4.229   3.903  25.340  0.00  0.00    +0.081 C 
ATOM     11  C   UNL     1      -3.015   5.402  23.785  0.00  0.00    +0.020 C 
ATOM     12  C   UNL     1      -3.213   4.202  26.464  0.00  0.00    +0.101 C 
ATOM     13  C   UNL     1      -2.210   5.842  25.022  0.00  0.00    +0.085 C 
BRANCH  10  15
ATOM     15  C   UNL     1      -4.909   2.616  25.555  0.00  0.00    -0.101 C 
ATOM     16  C   UNL     1      -5.464   1.566  25.730  0.00  0.00    +0.004 C 
ENDBRANCH  10  15
ENDBRANCH  14   8
ENDBRANCH   3  14
TORSDOF 5
ENDMDL
MODEL 3
REMARK VINA RESULT:      -4.3      2.361      3.092
REMARK  Name = 26742338
REMARK  5 active torsions:
REMARK  status: ('A' for Active; 'I' for Inactive)
REMARK    1  A    between atoms: O_3  and  C_14
REMARK    2  A    between atoms: O_3  and  C_17
REMARK    3  A    between atoms: N_6  and  C_18
REMARK    4  A    between atoms: C_8  and  C_14
REMARK    5  A    between atoms: C_10  and  C_15
REMARK                            x       y       z     vdW  Elec       q    Type
REMARK                         _______ _______ _______ _____ _____    ______ ____
ROOT
ATOM      3  O   UNL     1      -5.002   3.079  25.677  0.00  0.00    -0.449 OA
ENDROOT
BRANCH   3  17
ATOM      4  O   UNL     1      -6.347   1.542  24.649  0.00  0.00    -0.226 OA
ATOM      6  N   UNL     1      -4.179   1.008  25.353  0.00  0.00    -0.248 N 
ATOM     17  C   UNL     1      -5.276   1.827  25.170  0.00  0.00    +0.405 C 
ATOM     24  H   UNL     1      -3.372   1.428  25.810  0.00  0.00    +0.158 HD
BRANCH   6  18
ATOM      1  F   UNL     1      -3.001  -0.852  27.061  0.00  0.00    -0.203 F 
ATOM      2  F   UNL     1      -3.616  -4.308  23.889  0.00  0.00    -0.205 F 
ATOM     18  C   UNL     1      -4.034  -0.348  24.982  0.00  0.00    +0.072 A 
ATOM     19  C   UNL     1      -3.440  -1.254  25.860  0.00  0.00    +0.147 A 
ATOM     20  C   UNL     1      -4.487  -0.779  23.735  0.00  0.00    +0.029 A 
ATOM     21  C   UNL     1      -3.298  -2.593  25.491  0.00  0.00    +0.078 A 
ATOM     22  C   UNL     1      -4.345  -2.117  23.366  0.00  0.00    +0.040 A 
ATOM     23  C   UNL     1      -3.751  -3.023  24.245  0.00  0.00    +0.126 A 
ENDBRANCH   6  18
ENDBRANCH   3  17
BRANCH   3  14
ATOM     14  C   UNL     1      -3.961   3.166  26.630  0.00  0.00    +0.252 C 
BRANCH  14   8
ATOM      5  N   UNL     1      -2.960   4.219  24.588  0.00  0.00    -0.295 NA
ATOM      7  C   UNL     1      -0.505   3.681  25.263  0.00  0.00    +0.008 C 
ATOM      8  C   UNL     1      -2.861   4.066  26.063  0.00  0.00    +0.095 C 
ATOM      9  C   UNL     1      -1.453   3.582  26.475  0.00  0.00    +0.027 C 
ATOM     10  C   UNL     1      -0.998   2.720  24.159  0.00  0.00    +0.081 C 
ATOM     11  C   UNL     1      -0.627   5.109  24.700  0.00  0.00    +0.020 C 
ATOM     12  C   UNL     1      -2.499   2.982  23.910  0.00  0.00    +0.101 C 
ATOM     13  C   UNL     1      -2.061   5.328  24.184  0.00  0.00    +0.085 C 
BRANCH  10  15
ATOM     15  C   UNL     1      -0.744   1.311  24.500  0.00  0.00    -0.101 C 
ATOM     16  C   UNL     1      -0.539   0.161  24.777  0.00  0.00    +0.004 C 
ENDBRANCH  10  15
ENDBRANCH  14   8
ENDBRANCH   3  14
TORSDOF 5
ENDMDL
MODEL 4
REMARK VINA RESULT:      -4.1      3.415      5.569
REMARK  Name = 26742338
REMARK  5 active torsions:
REMARK  status: ('A' for Active; 'I' for Inactive)
REMARK    1  A    between atoms: O_3  and  C_14
REMARK    2  A    between atoms: O_3  and  C_17
REMARK    3  A    between atoms: N_6  and  C_18
REMARK    4  A    between atoms: C_8  and  C_14
REMARK    5  A    between atoms: C_10  and  C_15
REMARK                            x       y       z     vdW  Elec       q    Type
REMARK                         _______ _______ _______ _____ _____    ______ ____
ROOT
ATOM      3  O   UNL     1      -0.907   0.248  23.157  0.00  0.00    -0.449 OA
ENDROOT
BRANCH   3  17
ATOM      4  O   UNL     1       0.282  -1.071  24.598  0.00  0.00    -0.226 OA
ATOM      6  N   UNL     1       1.339   0.265  22.991  0.00  0.00    -0.248 N 
ATOM     17  C   UNL     1       0.262  -0.267  23.673  0.00  0.00    +0.405 C 
ATOM     24  H   UNL     1       1.122   0.923  22.246  0.00  0.00    +0.158 HD
BRANCH   6  18
ATOM      1  F   UNL     1       3.259   2.257  22.667  0.00  0.00    -0.203 F 
ATOM      2  F   UNL     1       6.726  -0.756  23.803  0.00  0.00    -0.205 F 
ATOM     18  C   UNL     1       2.713   0.007  23.197  0.00  0.00    +0.072 A 
ATOM     19  C   UNL     1       3.650   1.026  23.027  0.00  0.00    +0.147 A 
ATOM     20  C   UNL     1       3.132  -1.270  23.572  0.00  0.00    +0.029 A 
ATOM     21  C   UNL     1       5.006   0.769  23.232  0.00  0.00    +0.078 A 
ATOM     22  C   UNL     1       4.487  -1.527  23.777  0.00  0.00    +0.040 A 
ATOM     23  C   UNL     1       5.424  -0.507  23.607  0.00  0.00    +0.126 A 
ENDBRANCH   6  18
ENDBRANCH   3  17
BRANCH   3  14
ATOM     14  C   UNL     1      -1.032   1.657  23.148  0.00  0.00    +0.252 C 
BRANCH  14   8
ATOM      5  N   UNL     1      -2.510   2.153  25.111  0.00  0.00    -0.295 NA
ATOM      7  C   UNL     1      -4.486   0.695  24.253  0.00  0.00    +0.008 C 
ATOM      8  C   UNL     1      -2.437   2.020  23.632  0.00  0.00    +0.095 C 
ATOM      9  C   UNL     1      -3.499   1.023  23.115  0.00  0.00    +0.027 C 
ATOM     10  C   UNL     1      -3.724  -0.021  25.389  0.00  0.00    +0.081 C 
ATOM     11  C   UNL     1      -4.990   2.032  24.826  0.00  0.00    +0.020 C 
ATOM     12  C   UNL     1      -2.476   0.815  25.751  0.00  0.00    +0.101 C 
ATOM     13  C   UNL     1      -3.805   2.794  25.448  0.00  0.00    +0.085 C 
BRANCH  10  15
ATOM     15  C   UNL     1      -3.363  -1.402  25.029  0.00  0.00    -0.101 C 
ATOM     16  C   UNL     1      -3.067  -2.528  24.734  0.00  0.00    +0.004 C 
ENDBRANCH  10  15
ENDBRANCH  14   8
ENDBRANCH   3  14
TORSDOF 5
ENDMDL
MODEL 5
REMARK VINA RESULT:      -3.7      2.794      4.760
REMARK  Name = 26742338
REMARK  5 active torsions:
REMARK  status: ('A' for Active; 'I' for Inactive)
REMARK    1  A    between atoms: O_3  and  C_14
REMARK    2  A    between atoms: O_3  and  C_17
REMARK    3  A    between atoms: N_6  and  C_18
REMARK    4  A    between atoms: C_8  and  C_14
REMARK    5  A    between atoms: C_10  and  C_15
REMARK                            x       y       z     vdW  Elec       q    Type
REMARK                         _______ _______ _______ _____ _____    ______ ____
ROOT
ATOM      3  O   UNL     1      -2.544  -0.724  24.725  0.00  0.00    -0.449 OA
ENDROOT
BRANCH   3  17
ATOM      4  O   UNL     1      -0.510  -1.537  25.381  0.00  0.00    -0.226 OA
ATOM      6  N   UNL     1      -0.714   0.020  23.644  0.00  0.00    -0.248 N 
ATOM     17  C   UNL     1      -1.171  -0.813  24.647  0.00  0.00    +0.405 C 
ATOM     24  H   UNL     1      -1.420   0.548  23.138  0.00  0.00    +0.158 HD
BRANCH   6  18
ATOM      1  F   UNL     1       0.888   1.966  24.831  0.00  0.00    -0.203 F 
ATOM      2  F   UNL     1       4.519   0.844  22.014  0.00  0.00    -0.205 F 
ATOM     18  C   UNL     1       0.621   0.232  23.231  0.00  0.00    +0.072 A 
ATOM     19  C   UNL     1       1.397   1.215  23.845  0.00  0.00    +0.147 A 
ATOM     20  C   UNL     1       1.162  -0.544  22.205  0.00  0.00    +0.029 A 
ATOM     21  C   UNL     1       2.714   1.422  23.434  0.00  0.00    +0.078 A 
ATOM     22  C   UNL     1       2.478  -0.337  21.794  0.00  0.00    +0.040 A 
ATOM     23  C   UNL     1       3.254   0.646  22.409  0.00  0.00    +0.126 A 
ENDBRANCH   6  18
ENDBRANCH   3  17
BRANCH   3  14
ATOM     14  C   UNL     1      -3.169   0.224  23.882  0.00  0.00    +0.252 C 
BRANCH  14   8
ATOM      5  N   UNL     1      -4.866   2.069  23.918  0.00  0.00    -0.295 NA
ATOM      7  C   UNL     1      -3.948   3.149  26.099  0.00  0.00    +0.008 C 
ATOM      8  C   UNL     1      -4.145   1.049  24.724  0.00  0.00    +0.095 C 
ATOM      9  C   UNL     1      -3.447   1.699  25.940  0.00  0.00    +0.027 C 
ATOM     10  C   UNL     1      -3.527   3.966  24.859  0.00  0.00    +0.081 C 
ATOM     11  C   UNL     1      -5.487   3.106  26.105  0.00  0.00    +0.020 C 
ATOM     12  C   UNL     1      -3.963   3.200  23.590  0.00  0.00    +0.101 C 
ATOM     13  C   UNL     1      -5.984   2.593  24.741  0.00  0.00    +0.085 C 
BRANCH  10  15
ATOM     15  C   UNL     1      -2.082   4.251  24.848  0.00  0.00    -0.101 C 
ATOM     16  C   UNL     1      -0.905   4.482  24.838  0.00  0.00    +0.004 C 
ENDBRANCH  10  15
ENDBRANCH  14   8
ENDBRANCH   3  14
TORSDOF 5
ENDMDL
MODEL 6
REMARK VINA RESULT:      -3.4      3.469      5.298
REMARK  Name = 26742338
REMARK  5 active torsions:
REMARK  status: ('A' for Active; 'I' for Inactive)
REMARK    1  A    between atoms: O_3  and  C_14
REMARK    2  A    between atoms: O_3  and  C_17
REMARK    3  A    between atoms: N_6  and  C_18
REMARK    4  A    between atoms: C_8  and  C_14
REMARK    5  A    between atoms: C_10  and  C_15
REMARK                            x       y       z     vdW  Elec       q    Type
REMARK                         _______ _______ _______ _____ _____    ______ ____
ROOT
ATOM      3  O   UNL     1      -0.777   0.453  22.736  0.00  0.00    -0.449 OA
ENDROOT
BRANCH   3  17
ATOM      4  O   UNL     1       0.250  -0.381  24.601  0.00  0.00    -0.226 OA
ATOM      6  N   UNL     1       1.466   0.261  22.706  0.00  0.00    -0.248 N 
ATOM     17  C   UNL     1       0.327   0.064  23.462  0.00  0.00    +0.405 C 
ATOM     24  H   UNL     1       1.329   0.644  21.774  0.00  0.00    +0.158 HD
BRANCH   6  18
ATOM      1  F   UNL     1       3.421   2.244  22.605  0.00  0.00    -0.203 F 
ATOM      2  F   UNL     1       6.721  -0.787  24.123  0.00  0.00    -0.205 F 
ATOM     18  C   UNL     1       2.807  -0.003  23.067  0.00  0.00    +0.072 A 
ATOM     19  C   UNL     1       3.762   1.011  23.005  0.00  0.00    +0.147 A 
ATOM     20  C   UNL     1       3.174  -1.282  23.485  0.00  0.00    +0.029 A 
ATOM     21  C   UNL     1       5.085   0.747  23.362  0.00  0.00    +0.078 A 
ATOM     22  C   UNL     1       4.496  -1.546  23.842  0.00  0.00    +0.040 A 
ATOM     23  C   UNL     1       5.451  -0.531  23.781  0.00  0.00    +0.126 A 
ENDBRANCH   6  18
ENDBRANCH   3  17
BRANCH   3  14
ATOM     14  C   UNL     1      -1.944   0.767  23.471  0.00  0.00    +0.252 C 
BRANCH  14   8
ATOM      5  N   UNL     1      -1.756   2.559  25.214  0.00  0.00    -0.295 NA
ATOM      7  C   UNL     1      -3.720   3.976  24.264  0.00  0.00    +0.008 C 
ATOM      8  C   UNL     1      -1.938   2.268  23.768  0.00  0.00    +0.095 C 
ATOM      9  C   UNL     1      -3.201   2.968  23.218  0.00  0.00    +0.027 C 
ATOM     10  C   UNL     1      -4.156   3.208  25.530  0.00  0.00    +0.081 C 
ATOM     11  C   UNL     1      -2.534   4.870  24.669  0.00  0.00    +0.020 C 
ATOM     12  C   UNL     1      -3.007   2.269  25.959  0.00  0.00    +0.101 C 
ATOM     13  C   UNL     1      -1.460   4.006  25.355  0.00  0.00    +0.085 C 
BRANCH  10  15
ATOM     15  C   UNL     1      -5.410   2.466  25.323  0.00  0.00    -0.101 C 
ATOM     16  C   UNL     1      -6.433   1.861  25.155  0.00  0.00    +0.004 C 
ENDBRANCH  10  15
ENDBRANCH  14   8
ENDBRANCH   3  14
TORSDOF 5
ENDMDL
MODEL 7
REMARK VINA RESULT:      -3.3      3.313      5.324
REMARK  Name = 26742338
REMARK  5 active torsions:
REMARK  status: ('A' for Active; 'I' for Inactive)
REMARK    1  A    between atoms: O_3  and  C_14
REMARK    2  A    between atoms: O_3  and  C_17
REMARK    3  A    between atoms: N_6  and  C_18
REMARK    4  A    between atoms: C_8  and  C_14
REMARK    5  A    between atoms: C_10  and  C_15
REMARK                            x       y       z     vdW  Elec       q    Type
REMARK                         _______ _______ _______ _____ _____    ______ ____
ROOT
ATOM      3  O   UNL     1      -0.933   1.339  23.597  0.00  0.00    -0.449 OA
ENDROOT
BRANCH   3  17
ATOM      4  O   UNL     1       0.757   1.900  25.031  0.00  0.00    -0.226 OA
ATOM      6  N   UNL     1       1.116   0.501  23.189  0.00  0.00    -0.248 N 
ATOM     17  C   UNL     1       0.372   1.299  24.035  0.00  0.00    +0.405 C 
ATOM     24  H   UNL     1       0.617   0.082  22.407  0.00  0.00    +0.158 HD
BRANCH   6  18
ATOM      1  F   UNL     1       3.075   2.411  22.664  0.00  0.00    -0.203 F 
ATOM      2  F   UNL     1       6.511  -0.727  23.516  0.00  0.00    -0.205 F 
ATOM     18  C   UNL     1       2.492   0.190  23.271  0.00  0.00    +0.072 A 
ATOM     19  C   UNL     1       3.449   1.169  23.002  0.00  0.00    +0.147 A 
ATOM     20  C   UNL     1       2.894  -1.099  23.623  0.00  0.00    +0.029 A 
ATOM     21  C   UNL     1       4.807   0.860  23.085  0.00  0.00    +0.078 A 
ATOM     22  C   UNL     1       4.251  -1.408  23.705  0.00  0.00    +0.040 A 
ATOM     23  C   UNL     1       5.207  -0.429  23.436  0.00  0.00    +0.126 A 
ENDBRANCH   6  18
ENDBRANCH   3  17
BRANCH   3  14
ATOM     14  C   UNL     1      -1.781   0.291  24.024  0.00  0.00    +0.252 C 
BRANCH  14   8
ATOM      5  N   UNL     1      -3.863   1.654  23.725  0.00  0.00    -0.295 NA
ATOM      7  C   UNL     1      -3.480   3.084  25.864  0.00  0.00    +0.008 C 
ATOM      8  C   UNL     1      -3.013   0.907  24.689  0.00  0.00    +0.095 C 
ATOM      9  C   UNL     1      -2.632   1.797  25.893  0.00  0.00    +0.027 C 
ATOM     10  C   UNL     1      -3.131   3.888  24.593  0.00  0.00    +0.081 C 
ATOM     11  C   UNL     1      -4.955   2.660  25.735  0.00  0.00    +0.020 C 
ATOM     12  C   UNL     1      -3.227   2.947  23.372  0.00  0.00    +0.101 C 
ATOM     13  C   UNL     1      -5.159   1.943  24.388  0.00  0.00    +0.085 C 
BRANCH  10  15
ATOM     15  C   UNL     1      -1.805   4.521  24.685  0.00  0.00    -0.101 C 
ATOM     16  C   UNL     1      -0.724   5.036  24.761  0.00  0.00    +0.004 C 
ENDBRANCH  10  15
ENDBRANCH  14   8
ENDBRANCH   3  14
TORSDOF 5
ENDMDL
MODEL 8
REMARK VINA RESULT:      -3.3      2.612      5.792
REMARK  Name = 26742338
REMARK  5 active torsions:
REMARK  status: ('A' for Active; 'I' for Inactive)
REMARK    1  A    between atoms: O_3  and  C_14
REMARK    2  A    between atoms: O_3  and  C_17
REMARK    3  A    between atoms: N_6  and  C_18
REMARK    4  A    between atoms: C_8  and  C_14
REMARK    5  A    between atoms: C_10  and  C_15
REMARK                            x       y       z     vdW  Elec       q    Type
REMARK                         _______ _______ _______ _____ _____    ______ ____
ROOT
ATOM      3  O   UNL     1       0.537  -0.474  23.887  0.00  0.00    -0.449 OA
ENDROOT
BRANCH   3  17
ATOM      4  O   UNL     1       1.707   1.481  23.694  0.00  0.00    -0.226 OA
ATOM      6  N   UNL     1      -0.527   1.443  24.396  0.00  0.00    -0.248 N 
ATOM     17  C   UNL     1       0.667   0.895  23.970  0.00  0.00    +0.405 C 
ATOM     24  H   UNL     1      -1.286   0.791  24.577  0.00  0.00    +0.158 HD
BRANCH   6  18
ATOM      1  F   UNL     1      -2.338   2.238  26.358  0.00  0.00    -0.203 F 
ATOM      2  F   UNL     1      -1.703   6.793  25.247  0.00  0.00    -0.205 F 
ATOM     18  C   UNL     1      -0.828   2.806  24.615  0.00  0.00    +0.072 A 
ATOM     19  C   UNL     1      -1.740   3.172  25.605  0.00  0.00    +0.147 A 
ATOM     20  C   UNL     1      -0.212   3.788  23.838  0.00  0.00    +0.029 A 
ATOM     21  C   UNL     1      -2.036   4.519  25.819  0.00  0.00    +0.078 A 
ATOM     22  C   UNL     1      -0.508   5.134  24.052  0.00  0.00    +0.040 A 
ATOM     23  C   UNL     1      -1.419   5.499  25.043  0.00  0.00    +0.126 A 
ENDBRANCH   6  18
ENDBRANCH   3  17
BRANCH   3  14
ATOM     14  C   UNL     1      -0.667  -0.968  23.333  0.00  0.00    +0.252 C 
BRANCH  14   8
ATOM      5  N   UNL     1      -2.643  -2.394  23.920  0.00  0.00    -0.295 NA
ATOM      7  C   UNL     1      -3.325  -0.961  25.982  0.00  0.00    +0.008 C 
ATOM      8  C   UNL     1      -1.459  -1.662  24.443  0.00  0.00    +0.095 C 
ATOM      9  C   UNL     1      -1.869  -0.676  25.560  0.00  0.00    +0.027 C 
ATOM     10  C   UNL     1      -4.259  -0.685  24.784  0.00  0.00    +0.081 C 
ATOM     11  C   UNL     1      -3.427  -2.466  26.292  0.00  0.00    +0.020 C 
ATOM     12  C   UNL     1      -3.717  -1.440  23.550  0.00  0.00    +0.101 C 
ATOM     13  C   UNL     1      -3.155  -3.267  25.006  0.00  0.00    +0.085 C 
BRANCH  10  15
ATOM     15  C   UNL     1      -4.404   0.755  24.515  0.00  0.00    -0.101 C 
ATOM     16  C   UNL     1      -4.523   1.929  24.295  0.00  0.00    +0.004 C 
ENDBRANCH  10  15
ENDBRANCH  14   8
ENDBRANCH   3  14
TORSDOF 5
ENDMDL
MODEL 9
REMARK VINA RESULT:      -2.2      3.089      6.293
REMARK  Name = 26742338
REMARK  5 active torsions:
REMARK  status: ('A' for Active; 'I' for Inactive)
REMARK    1  A    between atoms: O_3  and  C_14
REMARK    2  A    between atoms: O_3  and  C_17
REMARK    3  A    between atoms: N_6  and  C_18
REMARK    4  A    between atoms: C_8  and  C_14
REMARK    5  A    between atoms: C_10  and  C_15
REMARK                            x       y       z     vdW  Elec       q    Type
REMARK                         _______ _______ _______ _____ _____    ______ ____
ROOT
ATOM      3  O   UNL     1      -5.466   1.114  24.593  0.00  0.00    -0.449 OA
ENDROOT
BRANCH   3  17
ATOM      4  O   UNL     1      -5.514   3.328  25.164  0.00  0.00    -0.226 OA
ATOM      6  N   UNL     1      -3.536   2.268  24.494  0.00  0.00    -0.248 N 
ATOM     17  C   UNL     1      -4.883   2.347  24.787  0.00  0.00    +0.405 C 
ATOM     24  H   UNL     1      -3.191   1.360  24.194  0.00  0.00    +0.158 HD
BRANCH   6  18
ATOM      1  F   UNL     1      -1.135   2.105  23.089  0.00  0.00    -0.203 F 
ATOM      2  F   UNL     1       0.245   6.313  24.755  0.00  0.00    -0.205 F 
ATOM     18  C   UNL     1      -2.570   3.298  24.558  0.00  0.00    +0.072 A 
ATOM     19  C   UNL     1      -1.378   3.186  23.843  0.00  0.00    +0.147 A 
ATOM     20  C   UNL     1      -2.811   4.428  25.340  0.00  0.00    +0.029 A 
ATOM     21  C   UNL     1      -0.426   4.205  23.909  0.00  0.00    +0.078 A 
ATOM     22  C   UNL     1      -1.860   5.446  25.406  0.00  0.00    +0.040 A 
ATOM     23  C   UNL     1      -0.668   5.334  24.690  0.00  0.00    +0.126 A 
ENDBRANCH   6  18
ENDBRANCH   3  17
BRANCH   3  14
ATOM     14  C   UNL     1      -5.125   0.096  25.514  0.00  0.00    +0.252 C 
BRANCH  14   8
ATOM      5  N   UNL     1      -3.741  -1.985  25.704  0.00  0.00    -0.295 NA
ATOM      7  C   UNL     1      -1.879  -1.139  24.095  0.00  0.00    +0.008 C 
ATOM      8  C   UNL     1      -4.295  -0.959  24.781  0.00  0.00    +0.095 C 
ATOM      9  C   UNL     1      -3.175  -0.320  23.929  0.00  0.00    +0.027 C 
ATOM     10  C   UNL     1      -1.417  -1.057  25.566  0.00  0.00    +0.081 C 
ATOM     11  C   UNL     1      -2.227  -2.613  23.817  0.00  0.00    +0.020 C 
ATOM     12  C   UNL     1      -2.608  -1.422  26.479  0.00  0.00    +0.101 C 
ATOM     13  C   UNL     1      -3.224  -3.106  24.881  0.00  0.00    +0.085 C 
BRANCH  10  15
ATOM     15  C   UNL     1      -0.865   0.266  25.900  0.00  0.00    -0.101 C 
ATOM     16  C   UNL     1      -0.416   1.345  26.173  0.00  0.00    +0.004 C 
ENDBRANCH  10  15
ENDBRANCH  14   8
ENDBRANCH   3  14
TORSDOF 5
ENDMDL
MODEL 10
REMARK VINA RESULT:      -1.8      2.842      5.502
REMARK  Name = 26742338
REMARK  5 active torsions:
REMARK  status: ('A' for Active; 'I' for Inactive)
REMARK    1  A    between atoms: O_3  and  C_14
REMARK    2  A    between atoms: O_3  and  C_17
REMARK    3  A    between atoms: N_6  and  C_18
REMARK    4  A    between atoms: C_8  and  C_14
REMARK    5  A    between atoms: C_10  and  C_15
REMARK                            x       y       z     vdW  Elec       q    Type
REMARK                         _______ _______ _______ _____ _____    ______ ____
ROOT
ATOM      3  O   UNL     1       0.504   2.150  23.861  0.00  0.00    -0.449 OA
ENDROOT
BRANCH   3  17
ATOM      4  O   UNL     1      -0.144   4.295  24.317  0.00  0.00    -0.226 OA
ATOM      6  N   UNL     1      -1.658   2.510  24.376  0.00  0.00    -0.248 N 
ATOM     17  C   UNL     1      -0.425   3.108  24.201  0.00  0.00    +0.405 C 
ATOM     24  H   UNL     1      -1.696   1.503  24.235  0.00  0.00    +0.158 HD
BRANCH   6  18
ATOM      1  F   UNL     1      -3.712   2.837  22.522  0.00  0.00    -0.203 F 
ATOM      2  F   UNL     1      -6.451   4.922  25.768  0.00  0.00    -0.205 F 
ATOM     18  C   UNL     1      -2.881   3.124  24.728  0.00  0.00    +0.072 A 
ATOM     19  C   UNL     1      -3.890   3.273  23.777  0.00  0.00    +0.147 A 
ATOM     20  C   UNL     1      -3.078   3.583  26.031  0.00  0.00    +0.029 A 
ATOM     21  C   UNL     1      -5.096   3.880  24.128  0.00  0.00    +0.078 A 
ATOM     22  C   UNL     1      -4.283   4.190  26.382  0.00  0.00    +0.040 A 
ATOM     23  C   UNL     1      -5.293   4.338  25.430  0.00  0.00    +0.126 A 
ENDBRANCH   6  18
ENDBRANCH   3  17
BRANCH   3  14
ATOM     14  C   UNL     1       0.003   0.919  23.379  0.00  0.00    +0.252 C 
BRANCH  14   8
ATOM      5  N   UNL     1      -0.277  -1.477  24.059  0.00  0.00    -0.295 NA
ATOM      7  C   UNL     1      -1.613  -0.921  26.221  0.00  0.00    +0.008 C 
ATOM      8  C   UNL     1       0.050  -0.101  24.518  0.00  0.00    +0.095 C 
ATOM      9  C   UNL     1      -0.853   0.316  25.701  0.00  0.00    +0.027 C 
ATOM     10  C   UNL     1      -2.552  -1.439  25.111  0.00  0.00    +0.081 C 
ATOM     11  C   UNL     1      -0.572  -2.026  26.480  0.00  0.00    +0.020 C 
ATOM     12  C   UNL     1      -1.735  -1.604  23.810  0.00  0.00    +0.101 C 
ATOM     13  C   UNL     1       0.089  -2.419  25.146  0.00  0.00    +0.085 C 
BRANCH  10  15
ATOM     15  C   UNL     1      -3.713  -0.557  24.911  0.00  0.00    -0.101 C 
ATOM     16  C   UNL     1      -4.659   0.164  24.748  0.00  0.00    +0.004 C 
ENDBRANCH  10  15
ENDBRANCH  14   8
ENDBRANCH   3  14
TORSDOF 5
ENDMDL
