MODEL 1
REMARK VINA RESULT:      -6.2      0.000      0.000
REMARK  Name = 11886032
REMARK  4 active torsions:
REMARK  status: ('A' for Active; 'I' for Inactive)
REMARK    1  A    between atoms: S_1  and  C_15
REMARK    2  A    between atoms: S_1  and  C_20
REMARK    3  A    between atoms: O_4  and  C_12
REMARK    4  A    between atoms: N_5  and  C_11
REMARK                            x       y       z     vdW  Elec       q    Type
REMARK                         _______ _______ _______ _____ _____    ______ ____
ROOT
ATOM      5  N   UNL     1      -4.403   2.932  25.125  0.00  0.00    -0.212 N 
ATOM      6  N   UNL     1      -5.282   3.494  25.963  0.00  0.00    -0.043 NA
ATOM      7  N   UNL     1      -6.121   1.618  25.100  0.00  0.00    -0.101 NA
ATOM      8  N   UNL     1      -6.334   2.685  25.943  0.00  0.00    -0.022 NA
ATOM     20  C   UNL     1      -4.918   1.792  24.603  0.00  0.00    +0.210 A 
ENDROOT
BRANCH   5  11
ATOM      2  O   UNL     1      -1.573   3.431  26.726  0.00  0.00    -0.369 OA
ATOM      3  O   UNL     1      -1.041   3.163  23.693  0.00  0.00    -0.369 OA
ATOM      9  C   UNL     1      -2.019   2.553  24.564  0.00  0.00    +0.176 C 
ATOM     10  C   UNL     1      -1.326   2.293  25.886  0.00  0.00    +0.180 C 
ATOM     11  C   UNL     1      -3.101   3.562  24.894  0.00  0.00    +0.168 C 
ATOM     12  C   UNL     1       0.127   2.197  25.487  0.00  0.00    +0.171 C 
ATOM     13  C   UNL     1      -2.514   4.307  26.089  0.00  0.00    +0.190 C 
ATOM     14  C   UNL     1       0.220   3.218  24.377  0.00  0.00    +0.194 C 
BRANCH  12   4
ATOM      4  O   UNL     1       1.021   2.477  26.540  0.00  0.00    -0.387 OA
ATOM     21  H   UNL     1       1.536   1.670  26.710  0.00  0.00    +0.210 HD
ENDBRANCH  12   4
ENDBRANCH   5  11
BRANCH  20   1
ATOM      1  S   UNL     1      -4.089   0.786  23.483  0.00  0.00    -0.081 S 
BRANCH   1  15
ATOM     15  C   UNL     1      -3.748  -0.677  24.494  0.00  0.00    +0.054 C 
ATOM     16  C   UNL     1      -2.257  -0.977  24.601  0.00  0.00    +0.014 C 
ATOM     17  C   UNL     1      -4.301  -1.957  23.879  0.00  0.00    +0.014 C 
ATOM     18  C   UNL     1      -2.217  -2.431  25.063  0.00  0.00    +0.001 C 
ATOM     19  C   UNL     1      -3.525  -3.065  24.587  0.00  0.00    +0.001 C 
ENDBRANCH   1  15
ENDBRANCH  20   1
TORSDOF 4
ENDMDL
MODEL 2
REMARK VINA RESULT:      -5.7      2.739      4.423
REMARK  Name = 11886032
REMARK  4 active torsions:
REMARK  status: ('A' for Active; 'I' for Inactive)
REMARK    1  A    between atoms: S_1  and  C_15
REMARK    2  A    between atoms: S_1  and  C_20
REMARK    3  A    between atoms: O_4  and  C_12
REMARK    4  A    between atoms: N_5  and  C_11
REMARK                            x       y       z     vdW  Elec       q    Type
REMARK                         _______ _______ _______ _____ _____    ______ ____
ROOT
ATOM      5  N   UNL     1      -2.791  -1.306  24.820  0.00  0.00    -0.212 N 
ATOM      6  N   UNL     1      -3.006  -2.599  25.089  0.00  0.00    -0.043 NA
ATOM      7  N   UNL     1      -4.514  -1.847  23.631  0.00  0.00    -0.101 NA
ATOM      8  N   UNL     1      -4.064  -2.925  24.358  0.00  0.00    -0.022 NA
ATOM     20  C   UNL     1      -3.710  -0.854  23.934  0.00  0.00    +0.210 A 
ENDROOT
BRANCH   5  11
ATOM      2  O   UNL     1       0.401  -0.707  24.296  0.00  0.00    -0.369 OA
ATOM      3  O   UNL     1      -0.886   1.660  25.813  0.00  0.00    -0.369 OA
ATOM      9  C   UNL     1      -1.404   0.748  24.819  0.00  0.00    +0.176 C 
ATOM     10  C   UNL     1      -0.276   0.476  23.844  0.00  0.00    +0.180 C 
ATOM     11  C   UNL     1      -1.681  -0.597  25.462  0.00  0.00    +0.168 C 
ATOM     12  C   UNL     1       0.590   1.705  23.986  0.00  0.00    +0.171 C 
ATOM     13  C   UNL     1      -0.327  -1.294  25.384  0.00  0.00    +0.190 C 
ATOM     14  C   UNL     1       0.458   2.017  25.459  0.00  0.00    +0.194 C 
BRANCH  12   4
ATOM      4  O   UNL     1       1.932   1.496  23.607  0.00  0.00    -0.387 OA
ATOM     21  H   UNL     1       2.174   2.204  22.985  0.00  0.00    +0.210 HD
ENDBRANCH  12   4
ENDBRANCH   5  11
BRANCH  20   1
ATOM      1  S   UNL     1      -3.765   0.759  23.342  0.00  0.00    -0.081 S 
BRANCH   1  15
ATOM     15  C   UNL     1      -4.348   1.661  24.800  0.00  0.00    +0.054 C 
ATOM     16  C   UNL     1      -5.846   1.497  25.027  0.00  0.00    +0.014 C 
ATOM     17  C   UNL     1      -4.198   3.170  24.656  0.00  0.00    +0.014 C 
ATOM     18  C   UNL     1      -6.196   2.650  25.963  0.00  0.00    +0.001 C 
ATOM     19  C   UNL     1      -5.143   3.733  25.714  0.00  0.00    +0.001 C 
ENDBRANCH   1  15
ENDBRANCH  20   1
TORSDOF 4
ENDMDL
MODEL 3
REMARK VINA RESULT:      -5.7      2.793      4.190
REMARK  Name = 11886032
REMARK  4 active torsions:
REMARK  status: ('A' for Active; 'I' for Inactive)
REMARK    1  A    between atoms: S_1  and  C_15
REMARK    2  A    between atoms: S_1  and  C_20
REMARK    3  A    between atoms: O_4  and  C_12
REMARK    4  A    between atoms: N_5  and  C_11
REMARK                            x       y       z     vdW  Elec       q    Type
REMARK                         _______ _______ _______ _____ _____    ______ ____
ROOT
ATOM      5  N   UNL     1      -1.397   2.881  24.966  0.00  0.00    -0.212 N 
ATOM      6  N   UNL     1      -0.540   3.430  25.834  0.00  0.00    -0.043 NA
ATOM      7  N   UNL     1       0.304   1.546  24.994  0.00  0.00    -0.101 NA
ATOM      8  N   UNL     1       0.501   2.607  25.847  0.00  0.00    -0.022 NA
ATOM     20  C   UNL     1      -0.881   1.736  24.459  0.00  0.00    +0.210 A 
ENDROOT
BRANCH   5  11
ATOM      2  O   UNL     1      -4.401   2.075  23.891  0.00  0.00    -0.369 OA
ATOM      3  O   UNL     1      -4.586   4.436  25.877  0.00  0.00    -0.369 OA
ATOM      9  C   UNL     1      -3.694   3.302  25.799  0.00  0.00    +0.176 C 
ATOM     10  C   UNL     1      -4.522   2.127  25.320  0.00  0.00    +0.180 C 
ATOM     11  C   UNL     1      -2.683   3.529  24.693  0.00  0.00    +0.168 C 
ATOM     12  C   UNL     1      -5.919   2.507  25.749  0.00  0.00    +0.171 C 
ATOM     13  C   UNL     1      -3.418   3.026  23.455  0.00  0.00    +0.190 C 
ATOM     14  C   UNL     1      -5.915   4.005  25.551  0.00  0.00    +0.194 C 
BRANCH  12   4
ATOM      4  O   UNL     1      -6.931   1.876  24.998  0.00  0.00    -0.387 OA
ATOM     21  H   UNL     1      -7.537   1.446  25.627  0.00  0.00    +0.210 HD
ENDBRANCH  12   4
ENDBRANCH   5  11
BRANCH  20   1
ATOM      1  S   UNL     1      -1.686   0.741  23.312  0.00  0.00    -0.081 S 
BRANCH   1  15
ATOM     15  C   UNL     1      -2.321  -0.587  24.366  0.00  0.00    +0.054 C 
ATOM     16  C   UNL     1      -1.409  -1.808  24.380  0.00  0.00    +0.014 C 
ATOM     17  C   UNL     1      -3.638  -1.162  23.857  0.00  0.00    +0.014 C 
ATOM     18  C   UNL     1      -2.308  -2.921  24.909  0.00  0.00    +0.001 C 
ATOM     19  C   UNL     1      -3.741  -2.513  24.561  0.00  0.00    +0.001 C 
ENDBRANCH   1  15
ENDBRANCH  20   1
TORSDOF 4
ENDMDL
MODEL 4
REMARK VINA RESULT:      -5.5      3.186      4.249
REMARK  Name = 11886032
REMARK  4 active torsions:
REMARK  status: ('A' for Active; 'I' for Inactive)
REMARK    1  A    between atoms: S_1  and  C_15
REMARK    2  A    between atoms: S_1  and  C_20
REMARK    3  A    between atoms: O_4  and  C_12
REMARK    4  A    between atoms: N_5  and  C_11
REMARK                            x       y       z     vdW  Elec       q    Type
REMARK                         _______ _______ _______ _____ _____    ______ ____
ROOT
ATOM      5  N   UNL     1       0.109   0.763  24.445  0.00  0.00    -0.212 N 
ATOM      6  N   UNL     1       0.966   1.370  23.617  0.00  0.00    -0.043 NA
ATOM      7  N   UNL     1       1.018  -0.837  23.309  0.00  0.00    -0.101 NA
ATOM      8  N   UNL     1       1.521   0.385  22.924  0.00  0.00    -0.022 NA
ATOM     20  C   UNL     1       0.144  -0.578  24.254  0.00  0.00    +0.210 A 
ENDROOT
BRANCH   5  11
ATOM      2  O   UNL     1      -0.044   3.842  25.595  0.00  0.00    -0.369 OA
ATOM      3  O   UNL     1      -2.874   2.600  25.516  0.00  0.00    -0.369 OA
ATOM      9  C   UNL     1      -1.714   2.427  24.671  0.00  0.00    +0.176 C 
ATOM     10  C   UNL     1      -1.043   3.782  24.566  0.00  0.00    +0.180 C 
ATOM     11  C   UNL     1      -0.698   1.554  25.379  0.00  0.00    +0.168 C 
ATOM     12  C   UNL     1      -2.181   4.738  24.836  0.00  0.00    +0.171 C 
ATOM     13  C   UNL     1       0.079   2.558  26.224  0.00  0.00    +0.190 C 
ATOM     14  C   UNL     1      -2.990   3.987  25.867  0.00  0.00    +0.194 C 
BRANCH  12   4
ATOM      4  O   UNL     1      -1.759   5.997  25.308  0.00  0.00    -0.387 OA
ATOM     21  H   UNL     1      -1.820   6.624  24.566  0.00  0.00    +0.210 HD
ENDBRANCH  12   4
ENDBRANCH   5  11
BRANCH  20   1
ATOM      1  S   UNL     1      -0.816  -1.702  25.133  0.00  0.00    -0.081 S 
BRANCH   1  15
ATOM     15  C   UNL     1      -2.365  -1.666  24.196  0.00  0.00    +0.054 C 
ATOM     16  C   UNL     1      -3.357  -0.650  24.749  0.00  0.00    +0.014 C 
ATOM     17  C   UNL     1      -3.140  -2.974  24.293  0.00  0.00    +0.014 C 
ATOM     18  C   UNL     1      -4.691  -1.092  24.154  0.00  0.00    +0.001 C 
ATOM     19  C   UNL     1      -4.556  -2.590  23.873  0.00  0.00    +0.001 C 
ENDBRANCH   1  15
ENDBRANCH  20   1
TORSDOF 4
ENDMDL
MODEL 5
REMARK VINA RESULT:      -5.5      1.837      2.529
REMARK  Name = 11886032
REMARK  4 active torsions:
REMARK  status: ('A' for Active; 'I' for Inactive)
REMARK    1  A    between atoms: S_1  and  C_15
REMARK    2  A    between atoms: S_1  and  C_20
REMARK    3  A    between atoms: O_4  and  C_12
REMARK    4  A    between atoms: N_5  and  C_11
REMARK                            x       y       z     vdW  Elec       q    Type
REMARK                         _______ _______ _______ _____ _____    ______ ____
ROOT
ATOM      5  N   UNL     1      -3.144   2.433  24.861  0.00  0.00    -0.212 N 
ATOM      6  N   UNL     1      -2.671   3.588  25.343  0.00  0.00    -0.043 NA
ATOM      7  N   UNL     1      -4.729   3.208  26.113  0.00  0.00    -0.101 NA
ATOM      8  N   UNL     1      -3.647   4.059  26.110  0.00  0.00    -0.022 NA
ATOM     20  C   UNL     1      -4.395   2.207  25.331  0.00  0.00    +0.210 A 
ENDROOT
BRANCH   5  11
ATOM      2  O   UNL     1      -0.322   2.675  23.187  0.00  0.00    -0.369 OA
ATOM      3  O   UNL     1      -0.804  -0.259  24.031  0.00  0.00    -0.369 OA
ATOM      9  C   UNL     1      -1.133   0.998  24.662  0.00  0.00    +0.176 C 
ATOM     10  C   UNL     1       0.015   1.945  24.376  0.00  0.00    +0.180 C 
ATOM     11  C   UNL     1      -2.323   1.622  23.959  0.00  0.00    +0.168 C 
ATOM     12  C   UNL     1       1.173   1.003  24.144  0.00  0.00    +0.171 C 
ATOM     13  C   UNL     1      -1.673   2.380  22.806  0.00  0.00    +0.190 C 
ATOM     14  C   UNL     1       0.503  -0.158  23.447  0.00  0.00    +0.194 C 
BRANCH  12   4
ATOM      4  O   UNL     1       2.207   1.562  23.367  0.00  0.00    -0.387 OA
ATOM     21  H   UNL     1       3.010   1.034  23.524  0.00  0.00    +0.210 HD
ENDBRANCH  12   4
ENDBRANCH   5  11
BRANCH  20   1
ATOM      1  S   UNL     1      -5.337   0.825  24.935  0.00  0.00    -0.081 S 
BRANCH   1  15
ATOM     15  C   UNL     1      -4.059  -0.442  24.741  0.00  0.00    +0.054 C 
ATOM     16  C   UNL     1      -4.505  -1.588  23.841  0.00  0.00    +0.014 C 
ATOM     17  C   UNL     1      -3.735  -1.155  26.049  0.00  0.00    +0.014 C 
ATOM     18  C   UNL     1      -3.526  -2.710  24.177  0.00  0.00    +0.001 C 
ATOM     19  C   UNL     1      -3.042  -2.439  25.602  0.00  0.00    +0.001 C 
ENDBRANCH   1  15
ENDBRANCH  20   1
TORSDOF 4
ENDMDL
MODEL 6
REMARK VINA RESULT:      -5.4      3.138      5.146
REMARK  Name = 11886032
REMARK  4 active torsions:
REMARK  status: ('A' for Active; 'I' for Inactive)
REMARK    1  A    between atoms: S_1  and  C_15
REMARK    2  A    between atoms: S_1  and  C_20
REMARK    3  A    between atoms: O_4  and  C_12
REMARK    4  A    between atoms: N_5  and  C_11
REMARK                            x       y       z     vdW  Elec       q    Type
REMARK                         _______ _______ _______ _____ _____    ______ ____
ROOT
ATOM      5  N   UNL     1      -1.034   1.684  24.901  0.00  0.00    -0.212 N 
ATOM      6  N   UNL     1      -0.218   1.479  25.941  0.00  0.00    -0.043 NA
ATOM      7  N   UNL     1      -0.568   3.660  25.646  0.00  0.00    -0.101 NA
ATOM      8  N   UNL     1       0.065   2.694  26.393  0.00  0.00    -0.022 NA
ATOM     20  C   UNL     1      -1.244   3.011  24.725  0.00  0.00    +0.210 A 
ENDROOT
BRANCH   5  11
ATOM      2  O   UNL     1      -1.268  -1.586  25.183  0.00  0.00    -0.369 OA
ATOM      3  O   UNL     1      -3.673  -0.486  23.582  0.00  0.00    -0.369 OA
ATOM      9  C   UNL     1      -2.898   0.065  24.669  0.00  0.00    +0.176 C 
ATOM     10  C   UNL     1      -2.552  -1.087  25.589  0.00  0.00    +0.180 C 
ATOM     11  C   UNL     1      -1.559   0.545  24.143  0.00  0.00    +0.168 C 
ATOM     12  C   UNL     1      -3.653  -2.082  25.306  0.00  0.00    +0.171 C 
ATOM     13  C   UNL     1      -0.707  -0.719  24.188  0.00  0.00    +0.190 C 
ATOM     14  C   UNL     1      -3.884  -1.885  23.826  0.00  0.00    +0.194 C 
BRANCH  12   4
ATOM      4  O   UNL     1      -3.305  -3.412  25.616  0.00  0.00    -0.387 OA
ATOM     21  H   UNL     1      -3.559  -3.572  26.542  0.00  0.00    +0.210 HD
ENDBRANCH  12   4
ENDBRANCH   5  11
BRANCH  20   1
ATOM      1  S   UNL     1      -2.236   3.674  23.488  0.00  0.00    -0.081 S 
BRANCH   1  15
ATOM     15  C   UNL     1      -3.854   3.707  24.299  0.00  0.00    +0.054 C 
ATOM     16  C   UNL     1      -3.747   3.625  25.817  0.00  0.00    +0.014 C 
ATOM     17  C   UNL     1      -4.706   2.489  23.960  0.00  0.00    +0.014 C 
ATOM     18  C   UNL     1      -5.149   3.207  26.253  0.00  0.00    +0.001 C 
ATOM     19  C   UNL     1      -5.760   2.464  25.063  0.00  0.00    +0.001 C 
ENDBRANCH   1  15
ENDBRANCH  20   1
TORSDOF 4
ENDMDL
MODEL 7
REMARK VINA RESULT:      -5.4      2.154      4.330
REMARK  Name = 11886032
REMARK  4 active torsions:
REMARK  status: ('A' for Active; 'I' for Inactive)
REMARK    1  A    between atoms: S_1  and  C_15
REMARK    2  A    between atoms: S_1  and  C_20
REMARK    3  A    between atoms: O_4  and  C_12
REMARK    4  A    between atoms: N_5  and  C_11
REMARK                            x       y       z     vdW  Elec       q    Type
REMARK                         _______ _______ _______ _____ _____    ______ ____
ROOT
ATOM      5  N   UNL     1      -4.965   1.565  25.082  0.00  0.00    -0.212 N 
ATOM      6  N   UNL     1      -5.848   1.390  26.071  0.00  0.00    -0.043 NA
ATOM      7  N   UNL     1      -5.424   3.559  25.781  0.00  0.00    -0.101 NA
ATOM      8  N   UNL     1      -6.126   2.616  26.496  0.00  0.00    -0.022 NA
ATOM     20  C   UNL     1      -4.710   2.884  24.909  0.00  0.00    +0.210 A 
ENDROOT
BRANCH   5  11
ATOM      2  O   UNL     1      -2.050   0.392  24.103  0.00  0.00    -0.369 OA
ATOM      3  O   UNL     1      -3.980  -1.944  24.717  0.00  0.00    -0.369 OA
ATOM      9  C   UNL     1      -3.832  -0.630  25.298  0.00  0.00    +0.176 C 
ATOM     10  C   UNL     1      -2.349  -0.322  25.313  0.00  0.00    +0.180 C 
ATOM     11  C   UNL     1      -4.425   0.406  24.364  0.00  0.00    +0.168 C 
ATOM     12  C   UNL     1      -1.724  -1.697  25.320  0.00  0.00    +0.171 C 
ATOM     13  C   UNL     1      -3.270   0.705  23.415  0.00  0.00    +0.190 C 
ATOM     14  C   UNL     1      -2.677  -2.483  24.450  0.00  0.00    +0.194 C 
BRANCH  12   4
ATOM      4  O   UNL     1      -0.407  -1.720  24.817  0.00  0.00    -0.387 OA
ATOM     21  H   UNL     1      -0.383  -1.148  24.031  0.00  0.00    +0.210 HD
ENDBRANCH  12   4
ENDBRANCH   5  11
BRANCH  20   1
ATOM      1  S   UNL     1      -3.624   3.510  23.732  0.00  0.00    -0.081 S 
BRANCH   1  15
ATOM     15  C   UNL     1      -2.146   3.820  24.731  0.00  0.00    +0.054 C 
ATOM     16  C   UNL     1      -0.876   3.300  24.069  0.00  0.00    +0.014 C 
ATOM     17  C   UNL     1      -2.163   3.066  26.055  0.00  0.00    +0.014 C 
ATOM     18  C   UNL     1       0.126   3.234  25.219  0.00  0.00    +0.001 C 
ATOM     19  C   UNL     1      -0.702   3.070  26.495  0.00  0.00    +0.001 C 
ENDBRANCH   1  15
ENDBRANCH  20   1
TORSDOF 4
ENDMDL
MODEL 8
REMARK VINA RESULT:      -5.2      2.979      4.123
REMARK  Name = 11886032
REMARK  4 active torsions:
REMARK  status: ('A' for Active; 'I' for Inactive)
REMARK    1  A    between atoms: S_1  and  C_15
REMARK    2  A    between atoms: S_1  and  C_20
REMARK    3  A    between atoms: O_4  and  C_12
REMARK    4  A    between atoms: N_5  and  C_11
REMARK                            x       y       z     vdW  Elec       q    Type
REMARK                         _______ _______ _______ _____ _____    ______ ____
ROOT
ATOM      5  N   UNL     1      -0.488   0.988  23.972  0.00  0.00    -0.212 N 
ATOM      6  N   UNL     1       0.404   0.653  23.033  0.00  0.00    -0.043 NA
ATOM      7  N   UNL     1      -0.053  -1.100  24.332  0.00  0.00    -0.101 NA
ATOM      8  N   UNL     1       0.667  -0.628  23.259  0.00  0.00    -0.022 NA
ATOM     20  C   UNL     1      -0.763  -0.081  24.759  0.00  0.00    +0.210 A 
ENDROOT
BRANCH   5  11
ATOM      2  O   UNL     1      -3.377   2.541  23.712  0.00  0.00    -0.369 OA
ATOM      3  O   UNL     1      -1.523   4.072  25.655  0.00  0.00    -0.369 OA
ATOM      9  C   UNL     1      -1.672   2.665  25.362  0.00  0.00    +0.176 C 
ATOM     10  C   UNL     1      -3.148   2.421  25.124  0.00  0.00    +0.180 C 
ATOM     11  C   UNL     1      -1.017   2.353  24.031  0.00  0.00    +0.168 C 
ATOM     12  C   UNL     1      -3.800   3.546  25.894  0.00  0.00    +0.171 C 
ATOM     13  C   UNL     1      -2.122   2.670  23.029  0.00  0.00    +0.190 C 
ATOM     14  C   UNL     1      -2.823   4.680  25.685  0.00  0.00    +0.194 C 
BRANCH  12   4
ATOM      4  O   UNL     1      -5.093   3.868  25.434  0.00  0.00    -0.387 OA
ATOM     21  H   UNL     1      -5.459   4.539  26.036  0.00  0.00    +0.210 HD
ENDBRANCH  12   4
ENDBRANCH   5  11
BRANCH  20   1
ATOM      1  S   UNL     1      -1.862  -0.047  26.080  0.00  0.00    -0.081 S 
BRANCH   1  15
ATOM     15  C   UNL     1      -3.166  -1.159  25.496  0.00  0.00    +0.054 C 
ATOM     16  C   UNL     1      -2.647  -2.561  25.200  0.00  0.00    +0.014 C 
ATOM     17  C   UNL     1      -3.745  -0.730  24.153  0.00  0.00    +0.014 C 
ATOM     18  C   UNL     1      -3.735  -3.167  24.318  0.00  0.00    +0.001 C 
ATOM     19  C   UNL     1      -4.432  -1.990  23.634  0.00  0.00    +0.001 C 
ENDBRANCH   1  15
ENDBRANCH  20   1
TORSDOF 4
ENDMDL
MODEL 9
REMARK VINA RESULT:      -4.4      3.714      5.926
REMARK  Name = 11886032
REMARK  4 active torsions:
REMARK  status: ('A' for Active; 'I' for Inactive)
REMARK    1  A    between atoms: S_1  and  C_15
REMARK    2  A    between atoms: S_1  and  C_20
REMARK    3  A    between atoms: O_4  and  C_12
REMARK    4  A    between atoms: N_5  and  C_11
REMARK                            x       y       z     vdW  Elec       q    Type
REMARK                         _______ _______ _______ _____ _____    ______ ____
ROOT
ATOM      5  N   UNL     1      -0.106   0.244  24.540  0.00  0.00    -0.212 N 
ATOM      6  N   UNL     1       0.639  -0.203  23.523  0.00  0.00    -0.043 NA
ATOM      7  N   UNL     1       1.072   1.948  23.919  0.00  0.00    -0.101 NA
ATOM      8  N   UNL     1       1.359   0.846  23.146  0.00  0.00    -0.022 NA
ATOM     20  C   UNL     1       0.160   1.551  24.777  0.00  0.00    +0.210 A 
ENDROOT
BRANCH   5  11
ATOM      2  O   UNL     1      -3.353  -0.213  24.813  0.00  0.00    -0.369 OA
ATOM      3  O   UNL     1      -1.879  -2.920  25.050  0.00  0.00    -0.369 OA
ATOM      9  C   UNL     1      -1.594  -1.724  24.293  0.00  0.00    +0.176 C 
ATOM     10  C   UNL     1      -2.927  -1.170  23.831  0.00  0.00    +0.180 C 
ATOM     11  C   UNL     1      -1.041  -0.658  25.218  0.00  0.00    +0.168 C 
ATOM     12  C   UNL     1      -3.811  -2.395  23.822  0.00  0.00    +0.171 C 
ATOM     13  C   UNL     1      -2.303  -0.000  25.767  0.00  0.00    +0.190 C 
ATOM     14  C   UNL     1      -3.292  -3.169  25.011  0.00  0.00    +0.194 C 
BRANCH  12   4
ATOM      4  O   UNL     1      -5.184  -2.099  23.940  0.00  0.00    -0.387 OA
ATOM     21  H   UNL     1      -5.667  -2.944  23.938  0.00  0.00    +0.210 HD
ENDBRANCH  12   4
ENDBRANCH   5  11
BRANCH  20   1
ATOM      1  S   UNL     1      -0.600   2.481  26.006  0.00  0.00    -0.081 S 
BRANCH   1  15
ATOM     15  C   UNL     1      -1.855   3.379  25.059  0.00  0.00    +0.054 C 
ATOM     16  C   UNL     1      -3.146   3.577  25.843  0.00  0.00    +0.014 C 
ATOM     17  C   UNL     1      -2.326   2.608  23.832  0.00  0.00    +0.014 C 
ATOM     18  C   UNL     1      -4.174   3.907  24.764  0.00  0.00    +0.001 C 
ATOM     19  C   UNL     1      -3.653   3.272  23.473  0.00  0.00    +0.001 C 
ENDBRANCH   1  15
ENDBRANCH  20   1
TORSDOF 4
ENDMDL
MODEL 10
REMARK VINA RESULT:      -4.3     16.934     18.784
REMARK  Name = 11886032
REMARK  4 active torsions:
REMARK  status: ('A' for Active; 'I' for Inactive)
REMARK    1  A    between atoms: S_1  and  C_15
REMARK    2  A    between atoms: S_1  and  C_20
REMARK    3  A    between atoms: O_4  and  C_12
REMARK    4  A    between atoms: N_5  and  C_11
REMARK                            x       y       z     vdW  Elec       q    Type
REMARK                         _______ _______ _______ _____ _____    ______ ____
ROOT
ATOM      5  N   UNL     1      14.848   7.360  19.293  0.00  0.00    -0.212 N 
ATOM      6  N   UNL     1      15.497   6.625  18.383  0.00  0.00    -0.043 NA
ATOM      7  N   UNL     1      16.135   6.055  20.441  0.00  0.00    -0.101 NA
ATOM      8  N   UNL     1      16.285   5.827  19.092  0.00  0.00    -0.022 NA
ATOM     20  C   UNL     1      15.240   7.010  20.542  0.00  0.00    +0.210 A 
ENDROOT
BRANCH   5  11
ATOM      2  O   UNL     1      13.467   8.451  16.513  0.00  0.00    -0.369 OA
ATOM      3  O   UNL     1      11.488   8.753  18.868  0.00  0.00    -0.369 OA
ATOM      9  C   UNL     1      12.511   7.774  18.580  0.00  0.00    +0.176 C 
ATOM     10  C   UNL     1      12.498   7.556  17.081  0.00  0.00    +0.180 C 
ATOM     11  C   UNL     1      13.875   8.369  18.866  0.00  0.00    +0.168 C 
ATOM     12  C   UNL     1      11.089   7.943  16.700  0.00  0.00    +0.171 C 
ATOM     13  C   UNL     1      14.209   9.088  17.563  0.00  0.00    +0.190 C 
ATOM     14  C   UNL     1      10.806   9.084  17.650  0.00  0.00    +0.194 C 
BRANCH  12   4
ATOM      4  O   UNL     1      10.956   8.331  15.351  0.00  0.00    -0.387 OA
ATOM     21  H   UNL     1      11.599   7.816  14.833  0.00  0.00    +0.210 HD
ENDBRANCH  12   4
ENDBRANCH   5  11
BRANCH  20   1
ATOM      1  S   UNL     1      14.632   7.731  21.979  0.00  0.00    -0.081 S 
BRANCH   1  15
ATOM     15  C   UNL     1      12.880   7.934  21.570  0.00  0.00    +0.054 C 
ATOM     16  C   UNL     1      12.230   9.077  22.341  0.00  0.00    +0.014 C 
ATOM     17  C   UNL     1      12.037   6.734  21.984  0.00  0.00    +0.014 C 
ATOM     18  C   UNL     1      10.736   8.789  22.218  0.00  0.00    +0.001 C 
ATOM     19  C   UNL     1      10.611   7.279  22.003  0.00  0.00    +0.001 C 
ENDBRANCH   1  15
ENDBRANCH  20   1
TORSDOF 4
ENDMDL
