MODEL 1
REMARK VINA RESULT:      -3.3      0.000      0.000
REMARK  Name = 7675147
REMARK  4 active torsions:
REMARK  status: ('A' for Active; 'I' for Inactive)
REMARK    1  A    between atoms: N_5  and  C_13
REMARK    2  A    between atoms: C_13  and  C_15
REMARK    3  A    between atoms: C_13  and  C_16
REMARK    4  A    between atoms: C_14  and  C_17
REMARK                            x       y       z     vdW  Elec       q    Type
REMARK                         _______ _______ _______ _____ _____    ______ ____
ROOT
ATOM      1  O   UNL     1      12.944  -4.562  32.628  0.00  0.00    -0.273 OA
ATOM      2  O   UNL     1      15.882  -7.784  31.134  0.00  0.00    -0.252 OA
ATOM      3  O   UNL     1       9.437 -10.178  31.714  0.00  0.00    -0.276 OA
ATOM      4  N   UNL     1      13.544  -7.647  31.163  0.00  0.00    -0.271 N 
ATOM      5  N   UNL     1      14.716  -5.919  31.930  0.00  0.00    -0.217 N 
ATOM      6  N   UNL     1      11.135  -8.649  32.130  0.00  0.00    -0.298 N 
ATOM      7  C   UNL     1      12.526  -6.705  31.571  0.00  0.00    +0.181 C 
ATOM      8  C   UNL     1      11.603  -7.333  32.605  0.00  0.00    +0.139 C 
ATOM      9  C   UNL     1      13.142  -8.970  30.719  0.00  0.00    +0.129 C 
ATOM     10  C   UNL     1      12.205  -9.589  31.755  0.00  0.00    +0.127 C 
ATOM     11  C   UNL     1      13.390  -5.581  32.119  0.00  0.00    +0.246 C 
ATOM     12  C   UNL     1      14.843  -7.182  31.373  0.00  0.00    +0.312 C 
ATOM     14  C   UNL     1       9.803  -9.055  32.069  0.00  0.00    +0.213 C 
ATOM     17  C   UNL     1       8.768  -8.034  32.467  0.00  0.00    +0.109 C 
ENDROOT
BRANCH   5  13
ATOM     13  C   UNL     1      15.833  -5.084  32.324  0.00  0.00    +0.113 C 
ATOM     16  C   UNL     1      16.978  -5.938  32.865  0.00  0.00    +0.034 C 
BRANCH  13  15
ATOM     15  C   UNL     1      16.270  -4.182  31.190  0.00  0.00    -0.027 A 
ATOM     18  C   UNL     1      16.998  -4.718  30.141  0.00  0.00    +0.005 A 
ATOM     19  C   UNL     1      15.934  -2.840  31.226  0.00  0.00    +0.005 A 
ATOM     20  C   UNL     1      17.402  -3.887  29.097  0.00  0.00    +0.000 A 
ATOM     21  C   UNL     1      16.337  -2.008  30.181  0.00  0.00    +0.000 A 
ATOM     22  C   UNL     1      17.071  -2.532  29.116  0.00  0.00    +0.000 A 
ENDBRANCH  13  15
ENDBRANCH   5  13
TORSDOF 2
ENDMDL
MODEL 2
REMARK VINA RESULT:      -3.1      1.782      2.299
REMARK  Name = 7675147
REMARK  4 active torsions:
REMARK  status: ('A' for Active; 'I' for Inactive)
REMARK    1  A    between atoms: N_5  and  C_13
REMARK    2  A    between atoms: C_13  and  C_15
REMARK    3  A    between atoms: C_13  and  C_16
REMARK    4  A    between atoms: C_14  and  C_17
REMARK                            x       y       z     vdW  Elec       q    Type
REMARK                         _______ _______ _______ _____ _____    ______ ____
ROOT
ATOM      1  O   UNL     1      11.886  -5.295  31.422  0.00  0.00    -0.273 OA
ATOM      2  O   UNL     1      14.486  -9.097  31.602  0.00  0.00    -0.252 OA
ATOM      3  O   UNL     1       7.832 -10.407  32.873  0.00  0.00    -0.276 OA
ATOM      4  N   UNL     1      12.174  -8.750  31.465  0.00  0.00    -0.271 N 
ATOM      5  N   UNL     1      13.513  -6.975  31.460  0.00  0.00    -0.217 N 
ATOM      6  N   UNL     1       9.675  -9.010  32.662  0.00  0.00    -0.298 N 
ATOM      7  C   UNL     1      11.255  -7.637  31.379  0.00  0.00    +0.181 C 
ATOM      8  C   UNL     1      10.273  -7.667  32.540  0.00  0.00    +0.139 C 
ATOM      9  C   UNL     1      11.641 -10.092  31.620  0.00  0.00    +0.129 C 
ATOM     10  C   UNL     1      10.645 -10.111  32.779  0.00  0.00    +0.127 C 
ATOM     11  C   UNL     1      12.228  -6.470  31.424  0.00  0.00    +0.246 C 
ATOM     12  C   UNL     1      13.513  -8.360  31.510  0.00  0.00    +0.312 C 
ATOM     14  C   UNL     1       8.309  -9.280  32.724  0.00  0.00    +0.213 C 
ATOM     17  C   UNL     1       7.382  -8.098  32.593  0.00  0.00    +0.109 C 
ENDROOT
BRANCH   5  13
ATOM     13  C   UNL     1      14.708  -6.156  31.503  0.00  0.00    +0.113 C 
ATOM     16  C   UNL     1      15.625  -6.603  32.639  0.00  0.00    +0.034 C 
BRANCH  13  15
ATOM     15  C   UNL     1      15.412  -6.142  30.162  0.00  0.00    -0.027 A 
ATOM     18  C   UNL     1      14.794  -6.721  29.068  0.00  0.00    +0.005 A 
ATOM     19  C   UNL     1      16.659  -5.550  30.060  0.00  0.00    +0.005 A 
ATOM     20  C   UNL     1      15.442  -6.709  27.833  0.00  0.00    +0.000 A 
ATOM     21  C   UNL     1      17.307  -5.536  28.825  0.00  0.00    +0.000 A 
ATOM     22  C   UNL     1      16.699  -6.116  27.712  0.00  0.00    +0.000 A 
ENDBRANCH  13  15
ENDBRANCH   5  13
TORSDOF 2
ENDMDL
MODEL 3
REMARK VINA RESULT:      -2.7     15.804     17.631
REMARK  Name = 7675147
REMARK  4 active torsions:
REMARK  status: ('A' for Active; 'I' for Inactive)
REMARK    1  A    between atoms: N_5  and  C_13
REMARK    2  A    between atoms: C_13  and  C_15
REMARK    3  A    between atoms: C_13  and  C_16
REMARK    4  A    between atoms: C_14  and  C_17
REMARK                            x       y       z     vdW  Elec       q    Type
REMARK                         _______ _______ _______ _____ _____    ______ ____
ROOT
ATOM      1  O   UNL     1      -1.105  -1.598  23.771  0.00  0.00    -0.273 OA
ATOM      2  O   UNL     1       1.678   2.071  23.579  0.00  0.00    -0.252 OA
ATOM      3  O   UNL     1      -4.624   3.675  25.887  0.00  0.00    -0.276 OA
ATOM      4  N   UNL     1      -0.378   1.681  24.631  0.00  0.00    -0.271 N 
ATOM      5  N   UNL     1       0.570   0.013  23.506  0.00  0.00    -0.217 N 
ATOM      6  N   UNL     1      -3.084   2.300  24.822  0.00  0.00    -0.298 N 
ATOM      7  C   UNL     1      -1.319   0.594  24.786  0.00  0.00    +0.181 C 
ATOM      8  C   UNL     1      -2.688   0.996  24.257  0.00  0.00    +0.139 C 
ATOM      9  C   UNL     1      -0.731   2.995  25.139  0.00  0.00    +0.129 C 
ATOM     10  C   UNL     1      -2.112   3.386  24.615  0.00  0.00    +0.127 C 
ATOM     11  C   UNL     1      -0.634  -0.485  23.964  0.00  0.00    +0.246 C 
ATOM     12  C   UNL     1       0.744   1.338  23.875  0.00  0.00    +0.312 C 
ATOM     14  C   UNL     1      -4.293   2.565  25.465  0.00  0.00    +0.213 C 
ATOM     17  C   UNL     1      -5.232   1.398  25.640  0.00  0.00    +0.109 C 
ENDROOT
BRANCH   5  13
ATOM     13  C   UNL     1       1.504  -0.736  22.690  0.00  0.00    +0.113 C 
ATOM     16  C   UNL     1       1.230  -0.501  21.206  0.00  0.00    +0.034 C 
BRANCH  13  15
ATOM     15  C   UNL     1       2.936  -0.427  23.070  0.00  0.00    -0.027 A 
ATOM     18  C   UNL     1       3.508   0.759  22.641  0.00  0.00    +0.005 A 
ATOM     19  C   UNL     1       3.643  -1.336  23.837  0.00  0.00    +0.005 A 
ATOM     20  C   UNL     1       4.828   1.044  22.991  0.00  0.00    +0.000 A 
ATOM     21  C   UNL     1       4.963  -1.051  24.187  0.00  0.00    +0.000 A 
ATOM     22  C   UNL     1       5.555   0.139  23.764  0.00  0.00    +0.000 A 
ENDBRANCH  13  15
ENDBRANCH   5  13
TORSDOF 2
ENDMDL
MODEL 4
REMARK VINA RESULT:      -1.7     16.970     19.653
REMARK  Name = 7675147
REMARK  4 active torsions:
REMARK  status: ('A' for Active; 'I' for Inactive)
REMARK    1  A    between atoms: N_5  and  C_13
REMARK    2  A    between atoms: C_13  and  C_15
REMARK    3  A    between atoms: C_13  and  C_16
REMARK    4  A    between atoms: C_14  and  C_17
REMARK                            x       y       z     vdW  Elec       q    Type
REMARK                         _______ _______ _______ _____ _____    ______ ____
ROOT
ATOM      1  O   UNL     1      -0.205   3.972  23.862  0.00  0.00    -0.273 OA
ATOM      2  O   UNL     1      -2.918   0.247  23.912  0.00  0.00    -0.252 OA
ATOM      3  O   UNL     1       3.761  -1.380  23.320  0.00  0.00    -0.276 OA
ATOM      4  N   UNL     1      -0.612   0.545  24.189  0.00  0.00    -0.271 N 
ATOM      5  N   UNL     1      -1.883   2.344  23.888  0.00  0.00    -0.217 N 
ATOM      6  N   UNL     1       1.958   0.081  23.228  0.00  0.00    -0.298 N 
ATOM      7  C   UNL     1       0.337   1.635  24.220  0.00  0.00    +0.181 C 
ATOM      8  C   UNL     1       1.401   1.445  23.149  0.00  0.00    +0.139 C 
ATOM      9  C   UNL     1      -0.116  -0.820  24.229  0.00  0.00    +0.129 C 
ATOM     10  C   UNL     1       0.961  -1.000  23.161  0.00  0.00    +0.127 C 
ATOM     11  C   UNL     1      -0.587   2.815  23.966  0.00  0.00    +0.246 C 
ATOM     12  C   UNL     1      -1.929   0.963  23.995  0.00  0.00    +0.312 C 
ATOM     14  C   UNL     1       3.315  -0.231  23.304  0.00  0.00    +0.213 C 
ATOM     17  C   UNL     1       4.271   0.933  23.371  0.00  0.00    +0.109 C 
ENDROOT
BRANCH   5  13
ATOM     13  C   UNL     1      -3.042   3.184  23.659  0.00  0.00    +0.113 C 
ATOM     16  C   UNL     1      -3.476   3.114  22.197  0.00  0.00    +0.034 C 
BRANCH  13  15
ATOM     15  C   UNL     1      -4.166   2.840  24.614  0.00  0.00    -0.027 A 
ATOM     18  C   UNL     1      -5.134   1.933  24.219  0.00  0.00    +0.005 A 
ATOM     19  C   UNL     1      -4.202   3.441  25.860  0.00  0.00    +0.005 A 
ATOM     20  C   UNL     1      -6.170   1.617  25.097  0.00  0.00    +0.000 A 
ATOM     21  C   UNL     1      -5.237   3.124  26.739  0.00  0.00    +0.000 A 
ATOM     22  C   UNL     1      -6.222   2.212  26.358  0.00  0.00    +0.000 A 
ENDBRANCH  13  15
ENDBRANCH   5  13
TORSDOF 2
ENDMDL
MODEL 5
REMARK VINA RESULT:      -1.2     16.460     19.302
REMARK  Name = 7675147
REMARK  4 active torsions:
REMARK  status: ('A' for Active; 'I' for Inactive)
REMARK    1  A    between atoms: N_5  and  C_13
REMARK    2  A    between atoms: C_13  and  C_15
REMARK    3  A    between atoms: C_13  and  C_16
REMARK    4  A    between atoms: C_14  and  C_17
REMARK                            x       y       z     vdW  Elec       q    Type
REMARK                         _______ _______ _______ _____ _____    ______ ____
ROOT
ATOM      1  O   UNL     1      -1.584   2.017  22.751  0.00  0.00    -0.273 OA
ATOM      2  O   UNL     1      -2.474  -1.752  25.250  0.00  0.00    -0.252 OA
ATOM      3  O   UNL     1       4.221  -1.160  23.688  0.00  0.00    -0.276 OA
ATOM      4  N   UNL     1      -0.493  -0.620  24.720  0.00  0.00    -0.271 N 
ATOM      5  N   UNL     1      -2.419   0.212  23.980  0.00  0.00    -0.217 N 
ATOM      6  N   UNL     1       1.969  -0.656  23.424  0.00  0.00    -0.298 N 
ATOM      7  C   UNL     1      -0.090   0.558  23.985  0.00  0.00    +0.181 C 
ATOM      8  C   UNL     1       0.888   0.187  22.879  0.00  0.00    +0.139 C 
ATOM      9  C   UNL     1       0.531  -1.503  25.249  0.00  0.00    +0.129 C 
ATOM     10  C   UNL     1       1.516  -1.861  24.138  0.00  0.00    +0.127 C 
ATOM     11  C   UNL     1      -1.438   1.043  23.477  0.00  0.00    +0.246 C 
ATOM     12  C   UNL     1      -1.874  -0.825  24.721  0.00  0.00    +0.312 C 
ATOM     14  C   UNL     1       3.333  -0.416  23.264  0.00  0.00    +0.213 C 
ATOM     17  C   UNL     1       3.715   0.840  22.524  0.00  0.00    +0.109 C 
ENDROOT
BRANCH   5  13
ATOM     13  C   UNL     1      -3.834   0.368  23.714  0.00  0.00    +0.113 C 
ATOM     16  C   UNL     1      -4.582  -0.933  23.998  0.00  0.00    +0.034 C 
BRANCH  13  15
ATOM     15  C   UNL     1      -4.409   1.544  24.475  0.00  0.00    -0.027 A 
ATOM     18  C   UNL     1      -3.897   2.810  24.250  0.00  0.00    +0.005 A 
ATOM     19  C   UNL     1      -5.434   1.328  25.379  0.00  0.00    +0.005 A 
ATOM     20  C   UNL     1      -4.426   3.894  24.951  0.00  0.00    +0.000 A 
ATOM     21  C   UNL     1      -5.964   2.411  26.080  0.00  0.00    +0.000 A 
ATOM     22  C   UNL     1      -5.460   3.694  25.866  0.00  0.00    +0.000 A 
ENDBRANCH  13  15
ENDBRANCH   5  13
TORSDOF 2
ENDMDL
MODEL 6
REMARK VINA RESULT:      -1.1      1.472      2.167
REMARK  Name = 7675147
REMARK  4 active torsions:
REMARK  status: ('A' for Active; 'I' for Inactive)
REMARK    1  A    between atoms: N_5  and  C_13
REMARK    2  A    between atoms: C_13  and  C_15
REMARK    3  A    between atoms: C_13  and  C_16
REMARK    4  A    between atoms: C_14  and  C_17
REMARK                            x       y       z     vdW  Elec       q    Type
REMARK                         _______ _______ _______ _____ _____    ______ ____
ROOT
ATOM      1  O   UNL     1      13.730  -5.873  29.802  0.00  0.00    -0.273 OA
ATOM      2  O   UNL     1      16.687  -9.014  31.425  0.00  0.00    -0.252 OA
ATOM      3  O   UNL     1      10.127 -10.591  32.874  0.00  0.00    -0.276 OA
ATOM      4  N   UNL     1      14.367  -9.024  31.099  0.00  0.00    -0.271 N 
ATOM      5  N   UNL     1      15.514  -7.217  30.495  0.00  0.00    -0.217 N 
ATOM      6  N   UNL     1      11.828  -9.145  32.230  0.00  0.00    -0.298 N 
ATOM      7  C   UNL     1      13.348  -8.136  30.588  0.00  0.00    +0.181 C 
ATOM      8  C   UNL     1      12.292  -7.871  31.650  0.00  0.00    +0.139 C 
ATOM      9  C   UNL     1      13.965 -10.278  31.711  0.00  0.00    +0.129 C 
ATOM     10  C   UNL     1      12.894 -10.006  32.767  0.00  0.00    +0.127 C 
ATOM     11  C   UNL     1      14.190  -6.919  30.239  0.00  0.00    +0.246 C 
ATOM     12  C   UNL     1      15.652  -8.483  31.042  0.00  0.00    +0.312 C 
ATOM     14  C   UNL     1      10.496  -9.541  32.342  0.00  0.00    +0.213 C 
ATOM     17  C   UNL     1       9.464  -8.605  31.764  0.00  0.00    +0.109 C 
ENDROOT
BRANCH   5  13
ATOM     13  C   UNL     1      16.612  -6.297  30.277  0.00  0.00    +0.113 C 
ATOM     16  C   UNL     1      16.912  -6.161  28.786  0.00  0.00    +0.034 C 
BRANCH  13  15
ATOM     15  C   UNL     1      16.349  -4.962  30.939  0.00  0.00    -0.027 A 
ATOM     18  C   UNL     1      15.946  -4.931  32.263  0.00  0.00    +0.005 A 
ATOM     19  C   UNL     1      16.516  -3.800  30.206  0.00  0.00    +0.005 A 
ATOM     20  C   UNL     1      15.703  -3.700  32.873  0.00  0.00    +0.000 A 
ATOM     21  C   UNL     1      16.274  -2.569  30.816  0.00  0.00    +0.000 A 
ATOM     22  C   UNL     1      15.867  -2.519  32.149  0.00  0.00    +0.000 A 
ENDBRANCH  13  15
ENDBRANCH   5  13
TORSDOF 2
ENDMDL
