MODEL 1
REMARK VINA RESULT:      -4.3      0.000      0.000
REMARK  Name = 75536684
REMARK  10 active torsions:
REMARK  status: ('A' for Active; 'I' for Inactive)
REMARK    1  A    between atoms: S_1  and  N_8
REMARK    2  A    between atoms: S_1  and  C_16
REMARK    3  A    between atoms: O_3  and  C_10
REMARK    4  A    between atoms: O_6  and  C_23
REMARK    5  A    between atoms: O_6  and  C_27
REMARK    6  A    between atoms: N_7  and  C_9
REMARK    7  A    between atoms: N_7  and  C_14
REMARK    8  A    between atoms: N_8  and  C_13
REMARK    9  A    between atoms: C_11  and  C_13
REMARK   10  A    between atoms: C_14  and  C_15
REMARK                            x       y       z     vdW  Elec       q    Type
REMARK                         _______ _______ _______ _____ _____    ______ ____
ROOT
ATOM      2  O   UNL     1      -0.408   3.239  25.646  0.00  0.00    -0.371 OA
ATOM      9  C   UNL     1       0.016   1.578  24.002  0.00  0.00    +0.111 C 
ATOM     10  C   UNL     1      -1.440   1.998  23.917  0.00  0.00    +0.164 C 
ATOM     11  C   UNL     1      -1.394   3.355  24.606  0.00  0.00    +0.164 C 
ATOM     12  C   UNL     1       0.390   2.070  25.390  0.00  0.00    +0.181 C 
ENDROOT
BRANCH  10   3
ATOM      3  O   UNL     1      -1.901   2.100  22.583  0.00  0.00    -0.388 OA
ATOM     29  H   UNL     1      -2.397   2.931  22.493  0.00  0.00    +0.210 HD
ENDBRANCH  10   3
BRANCH   9   7
ATOM      7  N   UNL     1       0.221   0.148  23.833  0.00  0.00    -0.305 NA
ATOM     28  H   UNL     1      -0.685  -0.308  23.725  0.00  0.00    +0.123 HD
BRANCH   7  14
ATOM     14  C   UNL     1       1.033  -0.131  22.654  0.00  0.00    +0.116 C 
BRANCH  14  15
ATOM     15  C   UNL     1       2.503  -0.151  22.978  0.00  0.00    -0.033 A 
ATOM     17  C   UNL     1       3.288   0.973  22.724  0.00  0.00    +0.008 A 
ATOM     18  C   UNL     1       3.080  -1.295  23.530  0.00  0.00    +0.008 A 
ATOM     21  C   UNL     1       4.650   0.954  23.023  0.00  0.00    +0.046 A 
ATOM     22  C   UNL     1       4.442  -1.314  23.829  0.00  0.00    +0.046 A 
ATOM     23  C   UNL     1       5.227  -0.190  23.576  0.00  0.00    +0.120 A 
BRANCH  23   6
ATOM      6  O   UNL     1       6.557  -0.208  23.867  0.00  0.00    -0.495 OA
ATOM     27  C   UNL     1       7.446  -0.586  22.817  0.00  0.00    +0.277 C 
ENDBRANCH  23   6
ENDBRANCH  14  15
ENDBRANCH   7  14
ENDBRANCH   9   7
BRANCH  11  13
ATOM     13  C   UNL     1      -2.726   3.769  25.206  0.00  0.00    +0.140 C 
BRANCH  13   8
ATOM      8  N   UNL     1      -3.384   2.594  25.810  0.00  0.00    -0.187 NA
ATOM     30  H   UNL     1      -2.796   2.025  26.433  0.00  0.00    +0.148 HD
BRANCH   8   1
ATOM      1  S   UNL     1      -4.683   1.840  25.011  0.00  0.00    +0.058 S 
ATOM      4  O   UNL     1      -4.777   2.352  23.657  0.00  0.00    -0.153 OA
ATOM      5  O   UNL     1      -5.845   1.856  25.880  0.00  0.00    -0.153 OA
BRANCH   1  16
ATOM     16  C   UNL     1      -4.128   0.163  24.921  0.00  0.00    +0.105 A 
ATOM     19  C   UNL     1      -4.646  -0.690  23.946  0.00  0.00    +0.028 A 
ATOM     20  C   UNL     1      -3.175  -0.304  25.825  0.00  0.00    +0.028 A 
ATOM     24  C   UNL     1      -4.208  -2.014  23.876  0.00  0.00    +0.002 A 
ATOM     25  C   UNL     1      -2.737  -1.628  25.754  0.00  0.00    +0.002 A 
ATOM     26  C   UNL     1      -3.254  -2.481  24.779  0.00  0.00    +0.000 A 
ENDBRANCH   1  16
ENDBRANCH   8   1
ENDBRANCH  13   8
ENDBRANCH  11  13
TORSDOF 9
ENDMDL
MODEL 2
REMARK VINA RESULT:      -3.7      2.522      6.402
REMARK  Name = 75536684
REMARK  10 active torsions:
REMARK  status: ('A' for Active; 'I' for Inactive)
REMARK    1  A    between atoms: S_1  and  N_8
REMARK    2  A    between atoms: S_1  and  C_16
REMARK    3  A    between atoms: O_3  and  C_10
REMARK    4  A    between atoms: O_6  and  C_23
REMARK    5  A    between atoms: O_6  and  C_27
REMARK    6  A    between atoms: N_7  and  C_9
REMARK    7  A    between atoms: N_7  and  C_14
REMARK    8  A    between atoms: N_8  and  C_13
REMARK    9  A    between atoms: C_11  and  C_13
REMARK   10  A    between atoms: C_14  and  C_15
REMARK                            x       y       z     vdW  Elec       q    Type
REMARK                         _______ _______ _______ _____ _____    ______ ____
ROOT
ATOM      2  O   UNL     1      -2.974   3.970  23.805  0.00  0.00    -0.371 OA
ATOM      9  C   UNL     1      -4.651   3.554  25.435  0.00  0.00    +0.111 C 
ATOM     10  C   UNL     1      -3.298   3.608  26.120  0.00  0.00    +0.164 C 
ATOM     11  C   UNL     1      -2.479   4.377  25.092  0.00  0.00    +0.164 C 
ATOM     12  C   UNL     1      -4.247   3.326  23.988  0.00  0.00    +0.181 C 
ENDROOT
BRANCH  10   3
ATOM      3  O   UNL     1      -3.343   4.277  27.366  0.00  0.00    -0.388 OA
ATOM     29  H   UNL     1      -2.774   5.063  27.312  0.00  0.00    +0.210 HD
ENDBRANCH  10   3
BRANCH   9   7
ATOM      7  N   UNL     1      -5.525   2.513  25.950  0.00  0.00    -0.305 NA
ATOM     28  H   UNL     1      -6.383   2.940  26.299  0.00  0.00    +0.123 HD
BRANCH   7  14
ATOM     14  C   UNL     1      -5.867   1.551  24.909  0.00  0.00    +0.116 C 
BRANCH  14  15
ATOM     15  C   UNL     1      -4.932   0.371  24.907  0.00  0.00    -0.033 A 
ATOM     17  C   UNL     1      -4.123   0.120  26.014  0.00  0.00    +0.008 A 
ATOM     18  C   UNL     1      -4.876  -0.472  23.797  0.00  0.00    +0.008 A 
ATOM     21  C   UNL     1      -3.256  -0.973  26.012  0.00  0.00    +0.046 A 
ATOM     22  C   UNL     1      -4.010  -1.565  23.794  0.00  0.00    +0.046 A 
ATOM     23  C   UNL     1      -3.201  -1.816  24.901  0.00  0.00    +0.120 A 
BRANCH  23   6
ATOM      6  O   UNL     1      -2.354  -2.883  24.899  0.00  0.00    -0.495 OA
ATOM     27  C   UNL     1      -0.956  -2.601  24.884  0.00  0.00    +0.277 C 
ENDBRANCH  23   6
ENDBRANCH  14  15
ENDBRANCH   7  14
ENDBRANCH   9   7
BRANCH  11  13
ATOM     13  C   UNL     1      -0.989   4.098  25.180  0.00  0.00    +0.140 C 
BRANCH  13   8
ATOM      8  N   UNL     1      -0.588   3.196  24.084  0.00  0.00    -0.187 NA
ATOM     30  H   UNL     1      -0.663   3.585  23.135  0.00  0.00    +0.148 HD
BRANCH   8   1
ATOM      1  S   UNL     1      -0.714   1.510  24.277  0.00  0.00    +0.058 S 
ATOM      4  O   UNL     1      -1.877   1.029  23.557  0.00  0.00    -0.153 OA
ATOM      5  O   UNL     1      -0.536   1.182  25.680  0.00  0.00    -0.153 OA
BRANCH   1  16
ATOM     16  C   UNL     1       0.728   0.940  23.427  0.00  0.00    +0.105 A 
ATOM     19  C   UNL     1       1.961   1.548  23.662  0.00  0.00    +0.028 A 
ATOM     20  C   UNL     1       0.631  -0.118  22.524  0.00  0.00    +0.028 A 
ATOM     24  C   UNL     1       3.099   1.097  22.990  0.00  0.00    +0.002 A 
ATOM     25  C   UNL     1       1.769  -0.568  21.853  0.00  0.00    +0.002 A 
ATOM     26  C   UNL     1       3.002   0.040  22.087  0.00  0.00    +0.000 A 
ENDBRANCH   1  16
ENDBRANCH   8   1
ENDBRANCH  13   8
ENDBRANCH  11  13
TORSDOF 9
ENDMDL
MODEL 3
REMARK VINA RESULT:      -3.6      2.420      7.075
REMARK  Name = 75536684
REMARK  10 active torsions:
REMARK  status: ('A' for Active; 'I' for Inactive)
REMARK    1  A    between atoms: S_1  and  N_8
REMARK    2  A    between atoms: S_1  and  C_16
REMARK    3  A    between atoms: O_3  and  C_10
REMARK    4  A    between atoms: O_6  and  C_23
REMARK    5  A    between atoms: O_6  and  C_27
REMARK    6  A    between atoms: N_7  and  C_9
REMARK    7  A    between atoms: N_7  and  C_14
REMARK    8  A    between atoms: N_8  and  C_13
REMARK    9  A    between atoms: C_11  and  C_13
REMARK   10  A    between atoms: C_14  and  C_15
REMARK                            x       y       z     vdW  Elec       q    Type
REMARK                         _______ _______ _______ _____ _____    ______ ____
ROOT
ATOM      2  O   UNL     1      -0.425   4.695  24.274  0.00  0.00    -0.371 OA
ATOM      9  C   UNL     1      -2.018   4.183  25.959  0.00  0.00    +0.111 C 
ATOM     10  C   UNL     1      -1.316   2.905  25.536  0.00  0.00    +0.164 C 
ATOM     11  C   UNL     1      -0.046   3.462  24.909  0.00  0.00    +0.164 C 
ATOM     12  C   UNL     1      -1.706   5.098  24.786  0.00  0.00    +0.181 C 
ENDROOT
BRANCH  10   3
ATOM      3  O   UNL     1      -1.033   2.051  26.629  0.00  0.00    -0.388 OA
ATOM     29  H   UNL     1      -1.492   1.206  26.484  0.00  0.00    +0.210 HD
ENDBRANCH  10   3
BRANCH   9   7
ATOM      7  N   UNL     1      -3.445   4.016  26.185  0.00  0.00    -0.305 NA
ATOM     28  H   UNL     1      -3.825   4.881  26.569  0.00  0.00    +0.123 HD
BRANCH   7  14
ATOM     14  C   UNL     1      -4.141   3.709  24.941  0.00  0.00    +0.116 C 
BRANCH  14  15
ATOM     15  C   UNL     1      -4.100   2.237  24.624  0.00  0.00    -0.033 A 
ATOM     17  C   UNL     1      -4.847   1.339  25.387  0.00  0.00    +0.008 A 
ATOM     18  C   UNL     1      -3.315   1.773  23.569  0.00  0.00    +0.008 A 
ATOM     21  C   UNL     1      -4.808  -0.024  25.094  0.00  0.00    +0.046 A 
ATOM     22  C   UNL     1      -3.277   0.410  23.275  0.00  0.00    +0.046 A 
ATOM     23  C   UNL     1      -4.024  -0.488  24.038  0.00  0.00    +0.120 A 
BRANCH  23   6
ATOM      6  O   UNL     1      -3.986  -1.819  23.753  0.00  0.00    -0.495 OA
ATOM     27  C   UNL     1      -3.414  -2.678  24.738  0.00  0.00    +0.277 C 
ENDBRANCH  23   6
ENDBRANCH  14  15
ENDBRANCH   7  14
ENDBRANCH   9   7
BRANCH  11  13
ATOM     13  C   UNL     1       0.578   2.529  23.886  0.00  0.00    +0.140 C 
BRANCH  13   8
ATOM      8  N   UNL     1       0.566   1.147  24.404  0.00  0.00    -0.187 NA
ATOM     30  H   UNL     1       0.791   1.043  25.402  0.00  0.00    +0.148 HD
BRANCH   8   1
ATOM      1  S   UNL     1       0.890  -0.157  23.362  0.00  0.00    +0.058 S 
ATOM      4  O   UNL     1       0.443   0.175  22.023  0.00  0.00    -0.153 OA
ATOM      5  O   UNL     1       0.450  -1.387  23.994  0.00  0.00    -0.153 OA
BRANCH   1  16
ATOM     16  C   UNL     1       2.658  -0.185  23.354  0.00  0.00    +0.105 A 
ATOM     19  C   UNL     1       3.370   0.921  22.889  0.00  0.00    +0.028 A 
ATOM     20  C   UNL     1       3.339  -1.311  23.814  0.00  0.00    +0.028 A 
ATOM     24  C   UNL     1       4.766   0.899  22.883  0.00  0.00    +0.002 A 
ATOM     25  C   UNL     1       4.735  -1.333  23.809  0.00  0.00    +0.002 A 
ATOM     26  C   UNL     1       5.447  -0.227  23.343  0.00  0.00    +0.000 A 
ENDBRANCH   1  16
ENDBRANCH   8   1
ENDBRANCH  13   8
ENDBRANCH  11  13
TORSDOF 9
ENDMDL
MODEL 4
REMARK VINA RESULT:      -3.5      2.630      7.281
REMARK  Name = 75536684
REMARK  10 active torsions:
REMARK  status: ('A' for Active; 'I' for Inactive)
REMARK    1  A    between atoms: S_1  and  N_8
REMARK    2  A    between atoms: S_1  and  C_16
REMARK    3  A    between atoms: O_3  and  C_10
REMARK    4  A    between atoms: O_6  and  C_23
REMARK    5  A    between atoms: O_6  and  C_27
REMARK    6  A    between atoms: N_7  and  C_9
REMARK    7  A    between atoms: N_7  and  C_14
REMARK    8  A    between atoms: N_8  and  C_13
REMARK    9  A    between atoms: C_11  and  C_13
REMARK   10  A    between atoms: C_14  and  C_15
REMARK                            x       y       z     vdW  Elec       q    Type
REMARK                         _______ _______ _______ _____ _____    ______ ____
ROOT
ATOM      2  O   UNL     1      -1.108  -1.272  25.823  0.00  0.00    -0.371 OA
ATOM      9  C   UNL     1      -3.481  -1.243  25.736  0.00  0.00    +0.111 C 
ATOM     10  C   UNL     1      -2.940  -1.628  24.371  0.00  0.00    +0.164 C 
ATOM     11  C   UNL     1      -1.540  -2.103  24.734  0.00  0.00    +0.164 C 
ATOM     12  C   UNL     1      -2.258  -0.608  26.376  0.00  0.00    +0.181 C 
ENDROOT
BRANCH  10   3
ATOM      3  O   UNL     1      -3.699  -2.648  23.750  0.00  0.00    -0.388 OA
ATOM     29  H   UNL     1      -3.422  -3.503  24.119  0.00  0.00    +0.210 HD
ENDBRANCH  10   3
BRANCH   9   7
ATOM      7  N   UNL     1      -4.622  -0.344  25.678  0.00  0.00    -0.305 NA
ATOM     28  H   UNL     1      -4.613   0.260  26.500  0.00  0.00    +0.123 HD
BRANCH   7  14
ATOM     14  C   UNL     1      -4.576   0.488  24.481  0.00  0.00    +0.116 C 
BRANCH  14  15
ATOM     15  C   UNL     1      -3.837   1.777  24.723  0.00  0.00    -0.033 A 
ATOM     17  C   UNL     1      -4.402   2.764  25.529  0.00  0.00    +0.008 A 
ATOM     18  C   UNL     1      -2.587   1.984  24.139  0.00  0.00    +0.008 A 
ATOM     21  C   UNL     1      -3.718   3.959  25.753  0.00  0.00    +0.046 A 
ATOM     22  C   UNL     1      -1.902   3.177  24.363  0.00  0.00    +0.046 A 
ATOM     23  C   UNL     1      -2.467   4.165  25.169  0.00  0.00    +0.120 A 
BRANCH  23   6
ATOM      6  O   UNL     1      -1.799   5.332  25.387  0.00  0.00    -0.495 OA
ATOM     27  C   UNL     1      -0.582   5.526  24.669  0.00  0.00    +0.277 C 
ENDBRANCH  23   6
ENDBRANCH  14  15
ENDBRANCH   7  14
ENDBRANCH   9   7
BRANCH  11  13
ATOM     13  C   UNL     1      -0.553  -1.998  23.584  0.00  0.00    +0.140 C 
BRANCH  13   8
ATOM      8  N   UNL     1       0.594  -1.164  23.992  0.00  0.00    -0.187 NA
ATOM     30  H   UNL     1       0.696  -1.008  25.003  0.00  0.00    +0.148 HD
BRANCH   8   1
ATOM      1  S   UNL     1       1.218   0.006  22.926  0.00  0.00    +0.058 S 
ATOM      4  O   UNL     1       0.794   1.324  23.358  0.00  0.00    -0.153 OA
ATOM      5  O   UNL     1       0.984  -0.426  21.561  0.00  0.00    -0.153 OA
BRANCH   1  16
ATOM     16  C   UNL     1       2.957  -0.129  23.219  0.00  0.00    +0.105 A 
ATOM     19  C   UNL     1       3.791   0.964  22.980  0.00  0.00    +0.028 A 
ATOM     20  C   UNL     1       3.493  -1.328  23.688  0.00  0.00    +0.028 A 
ATOM     24  C   UNL     1       5.163   0.856  23.210  0.00  0.00    +0.002 A 
ATOM     25  C   UNL     1       4.865  -1.434  23.919  0.00  0.00    +0.002 A 
ATOM     26  C   UNL     1       5.699  -0.341  23.680  0.00  0.00    +0.000 A 
ENDBRANCH   1  16
ENDBRANCH   8   1
ENDBRANCH  13   8
ENDBRANCH  11  13
TORSDOF 9
ENDMDL
MODEL 5
REMARK VINA RESULT:      -3.5      3.267      7.370
REMARK  Name = 75536684
REMARK  10 active torsions:
REMARK  status: ('A' for Active; 'I' for Inactive)
REMARK    1  A    between atoms: S_1  and  N_8
REMARK    2  A    between atoms: S_1  and  C_16
REMARK    3  A    between atoms: O_3  and  C_10
REMARK    4  A    between atoms: O_6  and  C_23
REMARK    5  A    between atoms: O_6  and  C_27
REMARK    6  A    between atoms: N_7  and  C_9
REMARK    7  A    between atoms: N_7  and  C_14
REMARK    8  A    between atoms: N_8  and  C_13
REMARK    9  A    between atoms: C_11  and  C_13
REMARK   10  A    between atoms: C_14  and  C_15
REMARK                            x       y       z     vdW  Elec       q    Type
REMARK                         _______ _______ _______ _____ _____    ______ ____
ROOT
ATOM      2  O   UNL     1      -1.376  -1.132  26.387  0.00  0.00    -0.371 OA
ATOM      9  C   UNL     1      -3.208  -2.183  25.301  0.00  0.00    +0.111 C 
ATOM     10  C   UNL     1      -2.014  -2.180  24.365  0.00  0.00    +0.164 C 
ATOM     11  C   UNL     1      -0.869  -1.989  25.350  0.00  0.00    +0.164 C 
ATOM     12  C   UNL     1      -2.811  -1.107  26.298  0.00  0.00    +0.181 C 
ENDROOT
BRANCH  10   3
ATOM      3  O   UNL     1      -1.887  -3.387  23.637  0.00  0.00    -0.388 OA
ATOM     29  H   UNL     1      -2.726  -3.554  23.174  0.00  0.00    +0.210 HD
ENDBRANCH  10   3
BRANCH   9   7
ATOM      7  N   UNL     1      -4.471  -1.902  24.637  0.00  0.00    -0.305 NA
ATOM     28  H   UNL     1      -5.123  -1.506  25.314  0.00  0.00    +0.123 HD
BRANCH   7  14
ATOM     14  C   UNL     1      -4.290  -0.953  23.546  0.00  0.00    +0.116 C 
BRANCH  14  15
ATOM     15  C   UNL     1      -4.452   0.471  24.008  0.00  0.00    -0.033 A 
ATOM     17  C   UNL     1      -5.308   0.766  25.069  0.00  0.00    +0.008 A 
ATOM     18  C   UNL     1      -3.747   1.494  23.375  0.00  0.00    +0.008 A 
ATOM     21  C   UNL     1      -5.459   2.085  25.497  0.00  0.00    +0.046 A 
ATOM     22  C   UNL     1      -3.897   2.813  23.803  0.00  0.00    +0.046 A 
ATOM     23  C   UNL     1      -4.753   3.108  24.864  0.00  0.00    +0.120 A 
BRANCH  23   6
ATOM      6  O   UNL     1      -4.901   4.396  25.282  0.00  0.00    -0.495 OA
ATOM     27  C   UNL     1      -6.220   4.820  25.621  0.00  0.00    +0.277 C 
ENDBRANCH  23   6
ENDBRANCH  14  15
ENDBRANCH   7  14
ENDBRANCH   9   7
BRANCH  11  13
ATOM     13  C   UNL     1       0.365  -1.363  24.724  0.00  0.00    +0.140 C 
BRANCH  13   8
ATOM      8  N   UNL     1       0.402   0.078  25.037  0.00  0.00    -0.187 NA
ATOM     30  H   UNL     1      -0.039   0.354  25.924  0.00  0.00    +0.148 HD
BRANCH   8   1
ATOM      1  S   UNL     1       0.473   1.222  23.779  0.00  0.00    +0.058 S 
ATOM      4  O   UNL     1      -0.351   0.772  22.673  0.00  0.00    -0.153 OA
ATOM      5  O   UNL     1       1.858   1.592  23.555  0.00  0.00    -0.153 OA
BRANCH   1  16
ATOM     16  C   UNL     1      -0.321   2.620  24.516  0.00  0.00    +0.105 A 
ATOM     19  C   UNL     1      -0.239   3.871  23.903  0.00  0.00    +0.028 A 
ATOM     20  C   UNL     1      -1.028   2.471  25.708  0.00  0.00    +0.028 A 
ATOM     24  C   UNL     1      -0.866   4.974  24.485  0.00  0.00    +0.002 A 
ATOM     25  C   UNL     1      -1.655   3.574  26.289  0.00  0.00    +0.002 A 
ATOM     26  C   UNL     1      -1.574   4.825  25.677  0.00  0.00    +0.000 A 
ENDBRANCH   1  16
ENDBRANCH   8   1
ENDBRANCH  13   8
ENDBRANCH  11  13
TORSDOF 9
ENDMDL
MODEL 6
REMARK VINA RESULT:      -3.3      2.263      6.967
REMARK  Name = 75536684
REMARK  10 active torsions:
REMARK  status: ('A' for Active; 'I' for Inactive)
REMARK    1  A    between atoms: S_1  and  N_8
REMARK    2  A    between atoms: S_1  and  C_16
REMARK    3  A    between atoms: O_3  and  C_10
REMARK    4  A    between atoms: O_6  and  C_23
REMARK    5  A    between atoms: O_6  and  C_27
REMARK    6  A    between atoms: N_7  and  C_9
REMARK    7  A    between atoms: N_7  and  C_14
REMARK    8  A    between atoms: N_8  and  C_13
REMARK    9  A    between atoms: C_11  and  C_13
REMARK   10  A    between atoms: C_14  and  C_15
REMARK                            x       y       z     vdW  Elec       q    Type
REMARK                         _______ _______ _______ _____ _____    ______ ____
ROOT
ATOM      2  O   UNL     1      -1.570   2.136  22.770  0.00  0.00    -0.371 OA
ATOM      9  C   UNL     1      -3.450   3.069  23.883  0.00  0.00    +0.111 C 
ATOM     10  C   UNL     1      -2.348   2.818  24.896  0.00  0.00    +0.164 C 
ATOM     11  C   UNL     1      -1.126   2.751  23.991  0.00  0.00    +0.164 C 
ATOM     12  C   UNL     1      -3.007   2.180  22.733  0.00  0.00    +0.181 C 
ENDROOT
BRANCH  10   3
ATOM      3  O   UNL     1      -2.240   3.857  25.852  0.00  0.00    -0.388 OA
ATOM     29  H   UNL     1      -2.666   4.652  25.490  0.00  0.00    +0.210 HD
ENDBRANCH  10   3
BRANCH   9   7
ATOM      7  N   UNL     1      -4.779   2.742  24.373  0.00  0.00    -0.305 NA
ATOM     28  H   UNL     1      -5.299   2.266  23.636  0.00  0.00    +0.123 HD
BRANCH   7  14
ATOM     14  C   UNL     1      -4.708   1.868  25.539  0.00  0.00    +0.116 C 
BRANCH  14  15
ATOM     15  C   UNL     1      -4.213   0.492  25.179  0.00  0.00    -0.033 A 
ATOM     17  C   UNL     1      -4.899  -0.271  24.234  0.00  0.00    +0.008 A 
ATOM     18  C   UNL     1      -3.069  -0.019  25.792  0.00  0.00    +0.008 A 
ATOM     21  C   UNL     1      -4.440  -1.545  23.902  0.00  0.00    +0.046 A 
ATOM     22  C   UNL     1      -2.610  -1.293  25.460  0.00  0.00    +0.046 A 
ATOM     23  C   UNL     1      -3.296  -2.056  24.515  0.00  0.00    +0.120 A 
BRANCH  23   6
ATOM      6  O   UNL     1      -2.849  -3.301  24.190  0.00  0.00    -0.495 OA
ATOM     27  C   UNL     1      -1.497  -3.410  23.749  0.00  0.00    +0.277 C 
ENDBRANCH  23   6
ENDBRANCH  14  15
ENDBRANCH   7  14
ENDBRANCH   9   7
BRANCH  11  13
ATOM     13  C   UNL     1       0.018   1.947  24.584  0.00  0.00    +0.140 C 
BRANCH  13   8
ATOM      8  N   UNL     1       0.994   1.622  23.528  0.00  0.00    -0.187 NA
ATOM     30  H   UNL     1       1.153   2.355  22.825  0.00  0.00    +0.148 HD
BRANCH   8   1
ATOM      1  S   UNL     1       1.257   0.002  23.079  0.00  0.00    +0.058 S 
ATOM      4  O   UNL     1       0.970  -0.158  21.666  0.00  0.00    -0.153 OA
ATOM      5  O   UNL     1       0.625  -0.867  24.055  0.00  0.00    -0.153 OA
BRANCH   1  16
ATOM     16  C   UNL     1       3.004  -0.157  23.301  0.00  0.00    +0.105 A 
ATOM     19  C   UNL     1       3.543  -1.364  23.747  0.00  0.00    +0.028 A 
ATOM     20  C   UNL     1       3.842   0.924  23.030  0.00  0.00    +0.028 A 
ATOM     24  C   UNL     1       4.922  -1.489  23.922  0.00  0.00    +0.002 A 
ATOM     25  C   UNL     1       5.220   0.799  23.205  0.00  0.00    +0.002 A 
ATOM     26  C   UNL     1       5.760  -0.409  23.651  0.00  0.00    +0.000 A 
ENDBRANCH   1  16
ENDBRANCH   8   1
ENDBRANCH  13   8
ENDBRANCH  11  13
TORSDOF 9
ENDMDL
MODEL 7
REMARK VINA RESULT:      -3.2      2.547      4.189
REMARK  Name = 75536684
REMARK  10 active torsions:
REMARK  status: ('A' for Active; 'I' for Inactive)
REMARK    1  A    between atoms: S_1  and  N_8
REMARK    2  A    between atoms: S_1  and  C_16
REMARK    3  A    between atoms: O_3  and  C_10
REMARK    4  A    between atoms: O_6  and  C_23
REMARK    5  A    between atoms: O_6  and  C_27
REMARK    6  A    between atoms: N_7  and  C_9
REMARK    7  A    between atoms: N_7  and  C_14
REMARK    8  A    between atoms: N_8  and  C_13
REMARK    9  A    between atoms: C_11  and  C_13
REMARK   10  A    between atoms: C_14  and  C_15
REMARK                            x       y       z     vdW  Elec       q    Type
REMARK                         _______ _______ _______ _____ _____    ______ ____
ROOT
ATOM      2  O   UNL     1      -5.388   3.112  26.393  0.00  0.00    -0.371 OA
ATOM      9  C   UNL     1      -3.793   4.254  25.053  0.00  0.00    +0.111 C 
ATOM     10  C   UNL     1      -4.214   2.979  24.344  0.00  0.00    +0.164 C 
ATOM     11  C   UNL     1      -5.542   2.688  25.028  0.00  0.00    +0.164 C 
ATOM     12  C   UNL     1      -4.232   3.963  26.479  0.00  0.00    +0.181 C 
ENDROOT
BRANCH  10   3
ATOM      3  O   UNL     1      -4.367   3.157  22.948  0.00  0.00    -0.388 OA
ATOM     29  H   UNL     1      -4.984   3.893  22.799  0.00  0.00    +0.210 HD
ENDBRANCH  10   3
BRANCH   9   7
ATOM      7  N   UNL     1      -2.372   4.540  24.944  0.00  0.00    -0.305 NA
ATOM     28  H   UNL     1      -2.197   5.490  25.272  0.00  0.00    +0.123 HD
BRANCH   7  14
ATOM     14  C   UNL     1      -1.586   3.612  25.749  0.00  0.00    +0.116 C 
BRANCH  14  15
ATOM     15  C   UNL     1      -0.835   2.626  24.896  0.00  0.00    -0.033 A 
ATOM     17  C   UNL     1      -1.427   2.108  23.744  0.00  0.00    +0.008 A 
ATOM     18  C   UNL     1       0.453   2.230  25.257  0.00  0.00    +0.008 A 
ATOM     21  C   UNL     1      -0.731   1.194  22.953  0.00  0.00    +0.046 A 
ATOM     22  C   UNL     1       1.149   1.317  24.466  0.00  0.00    +0.046 A 
ATOM     23  C   UNL     1       0.558   0.799  23.314  0.00  0.00    +0.120 A 
BRANCH  23   6
ATOM      6  O   UNL     1       1.237  -0.094  22.542  0.00  0.00    -0.495 OA
ATOM     27  C   UNL     1       2.651   0.071  22.451  0.00  0.00    +0.277 C 
ENDBRANCH  23   6
ENDBRANCH  14  15
ENDBRANCH   7  14
ENDBRANCH   9   7
BRANCH  11  13
ATOM     13  C   UNL     1      -5.929   1.220  24.987  0.00  0.00    +0.140 C 
BRANCH  13   8
ATOM      8  N   UNL     1      -4.743   0.387  25.262  0.00  0.00    -0.187 NA
ATOM     30  H   UNL     1      -4.080   0.768  25.949  0.00  0.00    +0.148 HD
BRANCH   8   1
ATOM      1  S   UNL     1      -4.152  -0.675  24.071  0.00  0.00    +0.058 S 
ATOM      4  O   UNL     1      -3.886   0.068  22.854  0.00  0.00    -0.153 OA
ATOM      5  O   UNL     1      -4.992  -1.858  24.036  0.00  0.00    -0.153 OA
BRANCH   1  16
ATOM     16  C   UNL     1      -2.599  -1.165  24.761  0.00  0.00    +0.105 A 
ATOM     19  C   UNL     1      -2.114  -0.530  25.904  0.00  0.00    +0.028 A 
ATOM     20  C   UNL     1      -1.862  -2.185  24.161  0.00  0.00    +0.028 A 
ATOM     24  C   UNL     1      -0.888  -0.917  26.448  0.00  0.00    +0.002 A 
ATOM     25  C   UNL     1      -0.636  -2.572  24.705  0.00  0.00    +0.002 A 
ATOM     26  C   UNL     1      -0.150  -1.937  25.849  0.00  0.00    +0.000 A 
ENDBRANCH   1  16
ENDBRANCH   8   1
ENDBRANCH  13   8
ENDBRANCH  11  13
TORSDOF 9
ENDMDL
MODEL 8
REMARK VINA RESULT:      -2.7      3.311      6.775
REMARK  Name = 75536684
REMARK  10 active torsions:
REMARK  status: ('A' for Active; 'I' for Inactive)
REMARK    1  A    between atoms: S_1  and  N_8
REMARK    2  A    between atoms: S_1  and  C_16
REMARK    3  A    between atoms: O_3  and  C_10
REMARK    4  A    between atoms: O_6  and  C_23
REMARK    5  A    between atoms: O_6  and  C_27
REMARK    6  A    between atoms: N_7  and  C_9
REMARK    7  A    between atoms: N_7  and  C_14
REMARK    8  A    between atoms: N_8  and  C_13
REMARK    9  A    between atoms: C_11  and  C_13
REMARK   10  A    between atoms: C_14  and  C_15
REMARK                            x       y       z     vdW  Elec       q    Type
REMARK                         _______ _______ _______ _____ _____    ______ ____
ROOT
ATOM      2  O   UNL     1       0.398   2.799  23.134  0.00  0.00    -0.371 OA
ATOM      9  C   UNL     1      -0.165   4.049  25.074  0.00  0.00    +0.111 C 
ATOM     10  C   UNL     1      -0.657   2.623  25.243  0.00  0.00    +0.164 C 
ATOM     11  C   UNL     1       0.214   1.891  24.233  0.00  0.00    +0.164 C 
ATOM     12  C   UNL     1       0.033   4.121  23.569  0.00  0.00    +0.181 C 
ENDROOT
BRANCH  10   3
ATOM      3  O   UNL     1      -0.466   2.133  26.557  0.00  0.00    -0.388 OA
ATOM     29  H   UNL     1      -0.579   2.872  27.179  0.00  0.00    +0.210 HD
ENDBRANCH  10   3
BRANCH   9   7
ATOM      7  N   UNL     1      -1.096   5.050  25.571  0.00  0.00    -0.305 NA
ATOM     28  H   UNL     1      -0.600   5.931  25.701  0.00  0.00    +0.123 HD
BRANCH   7  14
ATOM     14  C   UNL     1      -2.192   5.260  24.632  0.00  0.00    +0.116 C 
BRANCH  14  15
ATOM     15  C   UNL     1      -3.315   4.283  24.852  0.00  0.00    -0.033 A 
ATOM     17  C   UNL     1      -3.745   3.468  23.805  0.00  0.00    +0.008 A 
ATOM     18  C   UNL     1      -3.926   4.192  26.102  0.00  0.00    +0.008 A 
ATOM     21  C   UNL     1      -4.786   2.562  24.008  0.00  0.00    +0.046 A 
ATOM     22  C   UNL     1      -4.966   3.287  26.307  0.00  0.00    +0.046 A 
ATOM     23  C   UNL     1      -5.397   2.472  25.260  0.00  0.00    +0.120 A 
BRANCH  23   6
ATOM      6  O   UNL     1      -6.413   1.588  25.458  0.00  0.00    -0.495 OA
ATOM     27  C   UNL     1      -6.765   1.296  26.810  0.00  0.00    +0.277 C 
ENDBRANCH  23   6
ENDBRANCH  14  15
ENDBRANCH   7  14
ENDBRANCH   9   7
BRANCH  11  13
ATOM     13  C   UNL     1      -0.406   0.598  23.731  0.00  0.00    +0.140 C 
BRANCH  13   8
ATOM      8  N   UNL     1       0.256  -0.552  24.378  0.00  0.00    -0.187 NA
ATOM     30  H   UNL     1       0.949  -1.049  23.805  0.00  0.00    +0.148 HD
BRANCH   8   1
ATOM      1  S   UNL     1      -0.544  -1.414  25.608  0.00  0.00    +0.058 S 
ATOM      4  O   UNL     1      -0.724  -0.551  26.760  0.00  0.00    -0.153 OA
ATOM      5  O   UNL     1       0.085  -2.713  25.759  0.00  0.00    -0.153 OA
BRANCH   1  16
ATOM     16  C   UNL     1      -2.132  -1.691  24.881  0.00  0.00    +0.105 A 
ATOM     19  C   UNL     1      -3.042  -0.639  24.773  0.00  0.00    +0.028 A 
ATOM     20  C   UNL     1      -2.474  -2.960  24.417  0.00  0.00    +0.028 A 
ATOM     24  C   UNL     1      -4.296  -0.858  24.201  0.00  0.00    +0.002 A 
ATOM     25  C   UNL     1      -3.727  -3.179  23.843  0.00  0.00    +0.002 A 
ATOM     26  C   UNL     1      -4.637  -2.127  23.735  0.00  0.00    +0.000 A 
ENDBRANCH   1  16
ENDBRANCH   8   1
ENDBRANCH  13   8
ENDBRANCH  11  13
TORSDOF 9
ENDMDL
MODEL 9
REMARK VINA RESULT:      -2.6      2.997      5.815
REMARK  Name = 75536684
REMARK  10 active torsions:
REMARK  status: ('A' for Active; 'I' for Inactive)
REMARK    1  A    between atoms: S_1  and  N_8
REMARK    2  A    between atoms: S_1  and  C_16
REMARK    3  A    between atoms: O_3  and  C_10
REMARK    4  A    between atoms: O_6  and  C_23
REMARK    5  A    between atoms: O_6  and  C_27
REMARK    6  A    between atoms: N_7  and  C_9
REMARK    7  A    between atoms: N_7  and  C_14
REMARK    8  A    between atoms: N_8  and  C_13
REMARK    9  A    between atoms: C_11  and  C_13
REMARK   10  A    between atoms: C_14  and  C_15
REMARK                            x       y       z     vdW  Elec       q    Type
REMARK                         _______ _______ _______ _____ _____    ______ ____
ROOT
ATOM      2  O   UNL     1      -3.573   4.091  24.056  0.00  0.00    -0.371 OA
ATOM      9  C   UNL     1      -5.413   2.631  24.405  0.00  0.00    +0.111 C 
ATOM     10  C   UNL     1      -4.740   2.904  25.737  0.00  0.00    +0.164 C 
ATOM     11  C   UNL     1      -3.992   4.193  25.428  0.00  0.00    +0.164 C 
ATOM     12  C   UNL     1      -4.323   3.037  23.428  0.00  0.00    +0.181 C 
ENDROOT
BRANCH  10   3
ATOM      3  O   UNL     1      -5.667   3.073  26.793  0.00  0.00    -0.388 OA
ATOM     29  H   UNL     1      -6.434   3.563  26.451  0.00  0.00    +0.210 HD
ENDBRANCH  10   3
BRANCH   9   7
ATOM      7  N   UNL     1      -5.838   1.250  24.238  0.00  0.00    -0.305 NA
ATOM     28  H   UNL     1      -5.358   0.848  23.433  0.00  0.00    +0.123 HD
BRANCH   7  14
ATOM     14  C   UNL     1      -5.519   0.457  25.420  0.00  0.00    +0.116 C 
BRANCH  14  15
ATOM     15  C   UNL     1      -4.312  -0.416  25.201  0.00  0.00    -0.033 A 
ATOM     17  C   UNL     1      -3.165  -0.224  25.971  0.00  0.00    +0.008 A 
ATOM     18  C   UNL     1      -4.342  -1.416  24.229  0.00  0.00    +0.008 A 
ATOM     21  C   UNL     1      -2.047  -1.033  25.768  0.00  0.00    +0.046 A 
ATOM     22  C   UNL     1      -3.224  -2.224  24.026  0.00  0.00    +0.046 A 
ATOM     23  C   UNL     1      -2.076  -2.033  24.796  0.00  0.00    +0.120 A 
BRANCH  23   6
ATOM      6  O   UNL     1      -0.984  -2.822  24.598  0.00  0.00    -0.495 OA
ATOM     27  C   UNL     1       0.175  -2.533  25.378  0.00  0.00    +0.277 C 
ENDBRANCH  23   6
ENDBRANCH  14  15
ENDBRANCH   7  14
ENDBRANCH   9   7
BRANCH  11  13
ATOM     13  C   UNL     1      -2.782   4.414  26.319  0.00  0.00    +0.140 C 
BRANCH  13   8
ATOM      8  N   UNL     1      -1.915   3.221  26.281  0.00  0.00    -0.187 NA
ATOM     30  H   UNL     1      -2.100   2.511  27.001  0.00  0.00    +0.148 HD
BRANCH   8   1
ATOM      1  S   UNL     1      -0.343   3.330  25.639  0.00  0.00    +0.058 S 
ATOM      4  O   UNL     1       0.620   2.962  26.659  0.00  0.00    -0.153 OA
ATOM      5  O   UNL     1      -0.209   4.588  24.928  0.00  0.00    -0.153 OA
BRANCH   1  16
ATOM     16  C   UNL     1      -0.361   2.049  24.419  0.00  0.00    +0.105 A 
ATOM     19  C   UNL     1       0.759   1.235  24.247  0.00  0.00    +0.028 A 
ATOM     20  C   UNL     1      -1.494   1.853  23.631  0.00  0.00    +0.028 A 
ATOM     24  C   UNL     1       0.745   0.225  23.285  0.00  0.00    +0.002 A 
ATOM     25  C   UNL     1      -1.508   0.843  22.669  0.00  0.00    +0.002 A 
ATOM     26  C   UNL     1      -0.388   0.029  22.497  0.00  0.00    +0.000 A 
ENDBRANCH   1  16
ENDBRANCH   8   1
ENDBRANCH  13   8
ENDBRANCH  11  13
TORSDOF 9
ENDMDL
MODEL 10
REMARK VINA RESULT:      -2.1      3.129      6.335
REMARK  Name = 75536684
REMARK  10 active torsions:
REMARK  status: ('A' for Active; 'I' for Inactive)
REMARK    1  A    between atoms: S_1  and  N_8
REMARK    2  A    between atoms: S_1  and  C_16
REMARK    3  A    between atoms: O_3  and  C_10
REMARK    4  A    between atoms: O_6  and  C_23
REMARK    5  A    between atoms: O_6  and  C_27
REMARK    6  A    between atoms: N_7  and  C_9
REMARK    7  A    between atoms: N_7  and  C_14
REMARK    8  A    between atoms: N_8  and  C_13
REMARK    9  A    between atoms: C_11  and  C_13
REMARK   10  A    between atoms: C_14  and  C_15
REMARK                            x       y       z     vdW  Elec       q    Type
REMARK                         _______ _______ _______ _____ _____    ______ ____
ROOT
ATOM      2  O   UNL     1       0.675  -1.328  23.389  0.00  0.00    -0.371 OA
ATOM      9  C   UNL     1       0.656   0.921  24.150  0.00  0.00    +0.111 C 
ATOM     10  C   UNL     1      -0.424   0.143  24.879  0.00  0.00    +0.164 C 
ATOM     11  C   UNL     1       0.066  -1.286  24.691  0.00  0.00    +0.164 C 
ATOM     12  C   UNL     1       0.921   0.021  22.956  0.00  0.00    +0.181 C 
ENDROOT
BRANCH  10   3
ATOM      3  O   UNL     1      -0.519   0.492  26.247  0.00  0.00    -0.388 OA
ATOM     29  H   UNL     1       0.312   0.920  26.513  0.00  0.00    +0.210 HD
ENDBRANCH  10   3
BRANCH   9   7
ATOM      7  N   UNL     1       0.250   2.264  23.769  0.00  0.00    -0.305 NA
ATOM     28  H   UNL     1      -0.726   2.247  23.474  0.00  0.00    +0.123 HD
BRANCH   7  14
ATOM     14  C   UNL     1       0.388   3.192  24.886  0.00  0.00    +0.116 C 
BRANCH  14  15
ATOM     15  C   UNL     1      -0.940   3.765  25.306  0.00  0.00    -0.033 A 
ATOM     17  C   UNL     1      -1.335   5.020  24.843  0.00  0.00    +0.008 A 
ATOM     18  C   UNL     1      -1.773   3.041  26.159  0.00  0.00    +0.008 A 
ATOM     21  C   UNL     1      -2.564   5.551  25.233  0.00  0.00    +0.046 A 
ATOM     22  C   UNL     1      -3.003   3.572  26.548  0.00  0.00    +0.046 A 
ATOM     23  C   UNL     1      -3.398   4.827  26.085  0.00  0.00    +0.120 A 
BRANCH  23   6
ATOM      6  O   UNL     1      -4.598   5.346  26.466  0.00  0.00    -0.495 OA
ATOM     27  C   UNL     1      -5.757   4.866  25.787  0.00  0.00    +0.277 C 
ENDBRANCH  23   6
ENDBRANCH  14  15
ENDBRANCH   7  14
ENDBRANCH   9   7
BRANCH  11  13
ATOM     13  C   UNL     1      -1.045  -2.318  24.772  0.00  0.00    +0.140 C 
BRANCH  13   8
ATOM      8  N   UNL     1      -2.158  -1.917  23.890  0.00  0.00    -0.187 NA
ATOM     30  H   UNL     1      -1.888  -1.468  23.006  0.00  0.00    +0.148 HD
BRANCH   8   1
ATOM      1  S   UNL     1      -3.679  -1.546  24.555  0.00  0.00    +0.058 S 
ATOM      4  O   UNL     1      -3.601  -1.610  26.002  0.00  0.00    -0.153 OA
ATOM      5  O   UNL     1      -4.700  -2.294  23.845  0.00  0.00    -0.153 OA
BRANCH   1  16
ATOM     16  C   UNL     1      -3.871   0.151  24.095  0.00  0.00    +0.105 A 
ATOM     19  C   UNL     1      -3.006   0.722  23.161  0.00  0.00    +0.028 A 
ATOM     20  C   UNL     1      -4.886   0.917  24.666  0.00  0.00    +0.028 A 
ATOM     24  C   UNL     1      -3.157   2.061  22.799  0.00  0.00    +0.002 A 
ATOM     25  C   UNL     1      -5.037   2.256  24.304  0.00  0.00    +0.002 A 
ATOM     26  C   UNL     1      -4.172   2.827  23.369  0.00  0.00    +0.000 A 
ENDBRANCH   1  16
ENDBRANCH   8   1
ENDBRANCH  13   8
ENDBRANCH  11  13
TORSDOF 9
ENDMDL
