MODEL 1
REMARK VINA RESULT:       3.6      0.000      0.000
REMARK  Name = 11884624
REMARK  9 active torsions:
REMARK  status: ('A' for Active; 'I' for Inactive)
REMARK    1  A    between atoms: O_3  and  C_11
REMARK    2  A    between atoms: O_3  and  C_16
REMARK    3  A    between atoms: O_5  and  C_30
REMARK    4  A    between atoms: O_5  and  C_34
REMARK    5  A    between atoms: N_6  and  C_10
REMARK    6  A    between atoms: N_6  and  C_14
REMARK    7  A    between atoms: N_7  and  C_22
REMARK    8  A    between atoms: C_14  and  C_15
REMARK    9  A    between atoms: C_21  and  C_23
REMARK                            x       y       z     vdW  Elec       q    Type
REMARK                         _______ _______ _______ _____ _____    ______ ____
ROOT
ATOM      1  O   UNL     1      -2.632   0.848  23.530  0.00  0.00    -0.369 OA
ATOM      2  O   UNL     1      -5.415  -0.166  24.279  0.00  0.00    -0.369 OA
ATOM      8  C   UNL     1      -4.653   0.962  24.760  0.00  0.00    +0.170 C 
ATOM      9  C   UNL     1      -3.204   0.521  24.809  0.00  0.00    +0.191 C 
ATOM     10  C   UNL     1      -4.666   2.073  23.732  0.00  0.00    +0.111 C 
ATOM     11  C   UNL     1      -3.325  -0.972  25.000  0.00  0.00    +0.235 C 
ATOM     12  C   UNL     1      -3.576   1.618  22.771  0.00  0.00    +0.181 C 
ATOM     13  C   UNL     1      -4.546  -1.302  24.172  0.00  0.00    +0.207 C 
ENDROOT
BRANCH  10   6
ATOM      6  N   UNL     1      -4.303   3.358  24.325  0.00  0.00    -0.305 NA
ATOM     35  H   UNL     1      -4.318   3.278  25.342  0.00  0.00    +0.123 HD
BRANCH   6  14
ATOM     14  C   UNL     1      -2.964   3.756  23.916  0.00  0.00    +0.116 C 
BRANCH  14  15
ATOM     15  C   UNL     1      -1.946   3.492  24.992  0.00  0.00    -0.034 A 
ATOM     17  C   UNL     1      -2.318   3.554  26.334  0.00  0.00    +0.005 A 
ATOM     18  C   UNL     1      -0.630   3.183  24.647  0.00  0.00    +0.005 A 
ATOM     19  C   UNL     1      -1.376   3.310  27.333  0.00  0.00    +0.009 A 
ATOM     20  C   UNL     1       0.314   2.938  25.645  0.00  0.00    +0.009 A 
ATOM     21  C   UNL     1      -0.060   3.001  26.988  0.00  0.00    -0.018 A 
BRANCH  21  23
ATOM     23  C   UNL     1       0.919   2.747  28.022  0.00  0.00    -0.018 A 
ATOM     26  C   UNL     1       0.515   2.233  29.254  0.00  0.00    +0.008 A 
ATOM     27  C   UNL     1       2.267   3.016  27.788  0.00  0.00    +0.008 A 
ATOM     31  C   UNL     1       1.459   1.988  30.252  0.00  0.00    +0.001 A 
ATOM     32  C   UNL     1       3.212   2.772  28.786  0.00  0.00    +0.001 A 
ATOM     33  C   UNL     1       2.807   2.257  30.018  0.00  0.00    +0.000 A 
ENDBRANCH  21  23
ENDBRANCH  14  15
ENDBRANCH   6  14
ENDBRANCH  10   6
BRANCH  11   3
ATOM      3  O   UNL     1      -2.186  -1.687  24.576  0.00  0.00    -0.442 OA
BRANCH   3  16
ATOM      4  O   UNL     1      -0.629  -0.711  25.937  0.00  0.00    -0.226 OA
ATOM      7  N   UNL     1      -0.215  -1.079  23.663  0.00  0.00    -0.251 N 
ATOM     16  C   UNL     1      -0.957  -1.112  24.827  0.00  0.00    +0.405 C 
ATOM     36  H   UNL     1      -0.662  -1.464  22.833  0.00  0.00    +0.158 HD
BRANCH   7  22
ATOM     22  C   UNL     1       1.093  -0.576  23.478  0.00  0.00    +0.037 A 
ATOM     24  C   UNL     1       2.193  -1.419  23.633  0.00  0.00    +0.027 A 
ATOM     25  C   UNL     1       1.283   0.765  23.142  0.00  0.00    +0.027 A 
ATOM     28  C   UNL     1       3.483  -0.922  23.451  0.00  0.00    +0.047 A 
ATOM     29  C   UNL     1       2.573   1.261  22.960  0.00  0.00    +0.047 A 
ATOM     30  C   UNL     1       3.674   0.417  23.115  0.00  0.00    +0.120 A 
BRANCH  30   5
ATOM      5  O   UNL     1       4.933   0.903  22.938  0.00  0.00    -0.495 OA
ATOM     34  C   UNL     1       6.008   0.127  23.465  0.00  0.00    +0.277 C 
ENDBRANCH  30   5
ENDBRANCH   7  22
ENDBRANCH   3  16
ENDBRANCH  11   3
TORSDOF 8
ENDMDL
MODEL 2
REMARK VINA RESULT:       5.6      1.900      5.366
REMARK  Name = 11884624
REMARK  9 active torsions:
REMARK  status: ('A' for Active; 'I' for Inactive)
REMARK    1  A    between atoms: O_3  and  C_11
REMARK    2  A    between atoms: O_3  and  C_16
REMARK    3  A    between atoms: O_5  and  C_30
REMARK    4  A    between atoms: O_5  and  C_34
REMARK    5  A    between atoms: N_6  and  C_10
REMARK    6  A    between atoms: N_6  and  C_14
REMARK    7  A    between atoms: N_7  and  C_22
REMARK    8  A    between atoms: C_14  and  C_15
REMARK    9  A    between atoms: C_21  and  C_23
REMARK                            x       y       z     vdW  Elec       q    Type
REMARK                         _______ _______ _______ _____ _____    ______ ____
ROOT
ATOM      1  O   UNL     1      -2.958   1.307  24.708  0.00  0.00    -0.369 OA
ATOM      2  O   UNL     1      -5.852   1.301  25.687  0.00  0.00    -0.369 OA
ATOM      8  C   UNL     1      -5.204   0.561  24.631  0.00  0.00    +0.170 C 
ATOM      9  C   UNL     1      -4.194   1.496  23.997  0.00  0.00    +0.191 C 
ATOM     10  C   UNL     1      -4.361  -0.550  25.219  0.00  0.00    +0.111 C 
ATOM     11  C   UNL     1      -4.792   2.855  24.271  0.00  0.00    +0.235 C 
ATOM     12  C   UNL     1      -3.093   0.197  25.609  0.00  0.00    +0.181 C 
ATOM     13  C   UNL     1      -5.404   2.664  25.640  0.00  0.00    +0.207 C 
ENDROOT
BRANCH  10   6
ATOM      6  N   UNL     1      -4.049  -1.573  24.223  0.00  0.00    -0.305 NA
ATOM     35  H   UNL     1      -3.718  -1.124  23.369  0.00  0.00    +0.123 HD
BRANCH   6  14
ATOM     14  C   UNL     1      -3.006  -2.465  24.707  0.00  0.00    +0.116 C 
BRANCH  14  15
ATOM     15  C   UNL     1      -1.630  -1.939  24.400  0.00  0.00    -0.034 A 
ATOM     17  C   UNL     1      -0.551  -2.293  25.210  0.00  0.00    +0.005 A 
ATOM     18  C   UNL     1      -1.433  -1.098  23.305  0.00  0.00    +0.005 A 
ATOM     19  C   UNL     1       0.724  -1.806  24.926  0.00  0.00    +0.009 A 
ATOM     20  C   UNL     1      -0.157  -0.610  23.021  0.00  0.00    +0.009 A 
ATOM     21  C   UNL     1       0.921  -0.965  23.831  0.00  0.00    -0.018 A 
BRANCH  21  23
ATOM     23  C   UNL     1       2.244  -0.458  23.536  0.00  0.00    -0.018 A 
ATOM     26  C   UNL     1       3.364  -1.253  23.776  0.00  0.00    +0.008 A 
ATOM     27  C   UNL     1       2.399   0.825  23.012  0.00  0.00    +0.008 A 
ATOM     31  C   UNL     1       4.641  -0.766  23.491  0.00  0.00    +0.001 A 
ATOM     32  C   UNL     1       3.675   1.313  22.728  0.00  0.00    +0.001 A 
ATOM     33  C   UNL     1       4.795   0.517  22.967  0.00  0.00    +0.000 A 
ENDBRANCH  21  23
ENDBRANCH  14  15
ENDBRANCH   6  14
ENDBRANCH  10   6
BRANCH  11   3
ATOM      3  O   UNL     1      -3.846   3.900  24.252  0.00  0.00    -0.442 OA
BRANCH   3  16
ATOM      4  O   UNL     1      -3.281   4.762  26.294  0.00  0.00    -0.226 OA
ATOM      7  N   UNL     1      -1.928   3.192  25.205  0.00  0.00    -0.251 N 
ATOM     16  C   UNL     1      -3.024   4.019  25.354  0.00  0.00    +0.405 C 
ATOM     36  H   UNL     1      -1.891   2.645  24.347  0.00  0.00    +0.158 HD
BRANCH   7  22
ATOM     22  C   UNL     1      -0.848   3.009  26.098  0.00  0.00    +0.037 A 
ATOM     24  C   UNL     1      -1.080   2.960  27.473  0.00  0.00    +0.027 A 
ATOM     25  C   UNL     1       0.451   2.880  25.605  0.00  0.00    +0.027 A 
ATOM     28  C   UNL     1      -0.014   2.780  28.353  0.00  0.00    +0.047 A 
ATOM     29  C   UNL     1       1.516   2.700  26.486  0.00  0.00    +0.047 A 
ATOM     30  C   UNL     1       1.284   2.651  27.861  0.00  0.00    +0.120 A 
BRANCH  30   5
ATOM      5  O   UNL     1       2.325   2.476  28.720  0.00  0.00    -0.495 OA
ATOM     34  C   UNL     1       2.009   2.049  30.045  0.00  0.00    +0.277 C 
ENDBRANCH  30   5
ENDBRANCH   7  22
ENDBRANCH   3  16
ENDBRANCH  11   3
TORSDOF 8
ENDMDL
MODEL 3
REMARK VINA RESULT:       6.0      2.465      4.540
REMARK  Name = 11884624
REMARK  9 active torsions:
REMARK  status: ('A' for Active; 'I' for Inactive)
REMARK    1  A    between atoms: O_3  and  C_11
REMARK    2  A    between atoms: O_3  and  C_16
REMARK    3  A    between atoms: O_5  and  C_30
REMARK    4  A    between atoms: O_5  and  C_34
REMARK    5  A    between atoms: N_6  and  C_10
REMARK    6  A    between atoms: N_6  and  C_14
REMARK    7  A    between atoms: N_7  and  C_22
REMARK    8  A    between atoms: C_14  and  C_15
REMARK    9  A    between atoms: C_21  and  C_23
REMARK                            x       y       z     vdW  Elec       q    Type
REMARK                         _______ _______ _______ _____ _____    ______ ____
ROOT
ATOM      1  O   UNL     1      -4.350   2.665  23.997  0.00  0.00    -0.369 OA
ATOM      2  O   UNL     1      -6.457   3.618  25.993  0.00  0.00    -0.369 OA
ATOM      8  C   UNL     1      -5.018   3.562  26.084  0.00  0.00    +0.170 C 
ATOM      9  C   UNL     1      -4.583   2.299  25.369  0.00  0.00    +0.191 C 
ATOM     10  C   UNL     1      -4.403   4.679  25.268  0.00  0.00    +0.111 C 
ATOM     11  C   UNL     1      -5.795   1.411  25.511  0.00  0.00    +0.235 C 
ATOM     12  C   UNL     1      -4.437   4.092  23.864  0.00  0.00    +0.181 C 
ATOM     13  C   UNL     1      -6.932   2.402  25.398  0.00  0.00    +0.207 C 
ENDROOT
BRANCH  10   6
ATOM      6  N   UNL     1      -3.021   4.938  25.666  0.00  0.00    -0.305 NA
ATOM     35  H   UNL     1      -2.993   5.749  26.286  0.00  0.00    +0.123 HD
BRANCH   6  14
ATOM     14  C   UNL     1      -2.466   3.798  26.379  0.00  0.00    +0.116 C 
BRANCH  14  15
ATOM     15  C   UNL     1      -1.411   3.091  25.572  0.00  0.00    -0.034 A 
ATOM     17  C   UNL     1      -0.153   2.852  26.124  0.00  0.00    +0.005 A 
ATOM     18  C   UNL     1      -1.691   2.673  24.271  0.00  0.00    +0.005 A 
ATOM     19  C   UNL     1       0.826   2.197  25.377  0.00  0.00    +0.009 A 
ATOM     20  C   UNL     1      -0.713   2.018  23.522  0.00  0.00    +0.009 A 
ATOM     21  C   UNL     1       0.545   1.779  24.076  0.00  0.00    -0.018 A 
BRANCH  21  23
ATOM     23  C   UNL     1       1.559   1.100  23.299  0.00  0.00    -0.018 A 
ATOM     26  C   UNL     1       1.195   0.086  22.414  0.00  0.00    +0.008 A 
ATOM     27  C   UNL     1       2.900   1.458  23.437  0.00  0.00    +0.008 A 
ATOM     31  C   UNL     1       2.173  -0.571  21.664  0.00  0.00    +0.001 A 
ATOM     32  C   UNL     1       3.878   0.801  22.688  0.00  0.00    +0.001 A 
ATOM     33  C   UNL     1       3.514  -0.213  21.802  0.00  0.00    +0.000 A 
ENDBRANCH  21  23
ENDBRANCH  14  15
ENDBRANCH   6  14
ENDBRANCH  10   6
BRANCH  11   3
ATOM      3  O   UNL     1      -5.871   0.401  24.530  0.00  0.00    -0.442 OA
BRANCH   3  16
ATOM      4  O   UNL     1      -4.390  -0.371  22.968  0.00  0.00    -0.226 OA
ATOM      7  N   UNL     1      -3.937  -0.500  25.261  0.00  0.00    -0.251 N 
ATOM     16  C   UNL     1      -4.684  -0.185  24.143  0.00  0.00    +0.405 C 
ATOM     36  H   UNL     1      -4.353  -0.266  26.161  0.00  0.00    +0.158 HD
BRANCH   7  22
ATOM     22  C   UNL     1      -2.663  -1.111  25.314  0.00  0.00    +0.037 A 
ATOM     24  C   UNL     1      -2.429  -2.295  24.615  0.00  0.00    +0.027 A 
ATOM     25  C   UNL     1      -1.642  -0.531  26.067  0.00  0.00    +0.027 A 
ATOM     28  C   UNL     1      -1.172  -2.898  24.668  0.00  0.00    +0.047 A 
ATOM     29  C   UNL     1      -0.386  -1.133  26.118  0.00  0.00    +0.047 A 
ATOM     30  C   UNL     1      -0.151  -2.317  25.419  0.00  0.00    +0.120 A 
BRANCH  30   5
ATOM      5  O   UNL     1       1.075  -2.906  25.471  0.00  0.00    -0.495 OA
ATOM     34  C   UNL     1       2.136  -2.261  24.766  0.00  0.00    +0.277 C 
ENDBRANCH  30   5
ENDBRANCH   7  22
ENDBRANCH   3  16
ENDBRANCH  11   3
TORSDOF 8
ENDMDL
MODEL 4
REMARK VINA RESULT:       6.2      2.773      4.746
REMARK  Name = 11884624
REMARK  9 active torsions:
REMARK  status: ('A' for Active; 'I' for Inactive)
REMARK    1  A    between atoms: O_3  and  C_11
REMARK    2  A    between atoms: O_3  and  C_16
REMARK    3  A    between atoms: O_5  and  C_30
REMARK    4  A    between atoms: O_5  and  C_34
REMARK    5  A    between atoms: N_6  and  C_10
REMARK    6  A    between atoms: N_6  and  C_14
REMARK    7  A    between atoms: N_7  and  C_22
REMARK    8  A    between atoms: C_14  and  C_15
REMARK    9  A    between atoms: C_21  and  C_23
REMARK                            x       y       z     vdW  Elec       q    Type
REMARK                         _______ _______ _______ _____ _____    ______ ____
ROOT
ATOM      1  O   UNL     1      -3.527   4.240  26.561  0.00  0.00    -0.369 OA
ATOM      2  O   UNL     1      -3.992   4.980  23.634  0.00  0.00    -0.369 OA
ATOM      8  C   UNL     1      -4.471   3.868  24.421  0.00  0.00    +0.170 C 
ATOM      9  C   UNL     1      -3.344   3.476  25.355  0.00  0.00    +0.191 C 
ATOM     10  C   UNL     1      -5.576   4.328  25.348  0.00  0.00    +0.111 C 
ATOM     11  C   UNL     1      -2.120   3.924  24.594  0.00  0.00    +0.235 C 
ATOM     12  C   UNL     1      -4.784   4.932  26.499  0.00  0.00    +0.181 C 
ATOM     13  C   UNL     1      -2.604   5.192  23.928  0.00  0.00    +0.207 C 
ENDROOT
BRANCH  10   6
ATOM      6  N   UNL     1      -6.376   3.204  25.830  0.00  0.00    -0.305 NA
ATOM     35  H   UNL     1      -7.317   3.530  26.053  0.00  0.00    +0.123 HD
BRANCH   6  14
ATOM     14  C   UNL     1      -6.478   2.169  24.813  0.00  0.00    +0.116 C 
BRANCH  14  15
ATOM     15  C   UNL     1      -5.318   1.213  24.867  0.00  0.00    -0.034 A 
ATOM     17  C   UNL     1      -4.482   1.067  23.760  0.00  0.00    +0.005 A 
ATOM     18  C   UNL     1      -5.076   0.472  26.024  0.00  0.00    +0.005 A 
ATOM     19  C   UNL     1      -3.406   0.181  23.808  0.00  0.00    +0.009 A 
ATOM     20  C   UNL     1      -4.001  -0.415  26.073  0.00  0.00    +0.009 A 
ATOM     21  C   UNL     1      -3.165  -0.560  24.965  0.00  0.00    -0.018 A 
BRANCH  21  23
ATOM     23  C   UNL     1      -2.049  -1.479  25.018  0.00  0.00    -0.018 A 
ATOM     26  C   UNL     1      -1.006  -1.259  25.917  0.00  0.00    +0.008 A 
ATOM     27  C   UNL     1      -2.016  -2.585  24.169  0.00  0.00    +0.008 A 
ATOM     31  C   UNL     1       0.071  -2.145  25.967  0.00  0.00    +0.001 A 
ATOM     32  C   UNL     1      -0.939  -3.471  24.219  0.00  0.00    +0.001 A 
ATOM     33  C   UNL     1       0.104  -3.251  25.118  0.00  0.00    +0.000 A 
ENDBRANCH  21  23
ENDBRANCH  14  15
ENDBRANCH   6  14
ENDBRANCH  10   6
BRANCH  11   3
ATOM      3  O   UNL     1      -0.997   4.151  25.416  0.00  0.00    -0.442 OA
BRANCH   3  16
ATOM      4  O   UNL     1       0.498   2.789  26.484  0.00  0.00    -0.226 OA
ATOM      7  N   UNL     1       0.199   2.706  24.164  0.00  0.00    -0.251 N 
ATOM     16  C   UNL     1      -0.034   3.163  25.446  0.00  0.00    +0.405 C 
ATOM     36  H   UNL     1      -0.346   3.144  23.424  0.00  0.00    +0.158 HD
BRANCH   7  22
ATOM     22  C   UNL     1       1.105   1.703  23.749  0.00  0.00    +0.037 A 
ATOM     24  C   UNL     1       2.443   2.024  23.517  0.00  0.00    +0.027 A 
ATOM     25  C   UNL     1       0.661   0.393  23.571  0.00  0.00    +0.027 A 
ATOM     28  C   UNL     1       3.336   1.035  23.107  0.00  0.00    +0.047 A 
ATOM     29  C   UNL     1       1.554  -0.596  23.161  0.00  0.00    +0.047 A 
ATOM     30  C   UNL     1       2.892  -0.275  22.929  0.00  0.00    +0.120 A 
BRANCH  30   5
ATOM      5  O   UNL     1       3.764  -1.241  22.528  0.00  0.00    -0.495 OA
ATOM     34  C   UNL     1       4.712  -1.700  23.491  0.00  0.00    +0.277 C 
ENDBRANCH  30   5
ENDBRANCH   7  22
ENDBRANCH   3  16
ENDBRANCH  11   3
TORSDOF 8
ENDMDL
MODEL 5
REMARK VINA RESULT:       6.9      1.275      2.199
REMARK  Name = 11884624
REMARK  9 active torsions:
REMARK  status: ('A' for Active; 'I' for Inactive)
REMARK    1  A    between atoms: O_3  and  C_11
REMARK    2  A    between atoms: O_3  and  C_16
REMARK    3  A    between atoms: O_5  and  C_30
REMARK    4  A    between atoms: O_5  and  C_34
REMARK    5  A    between atoms: N_6  and  C_10
REMARK    6  A    between atoms: N_6  and  C_14
REMARK    7  A    between atoms: N_7  and  C_22
REMARK    8  A    between atoms: C_14  and  C_15
REMARK    9  A    between atoms: C_21  and  C_23
REMARK                            x       y       z     vdW  Elec       q    Type
REMARK                         _______ _______ _______ _____ _____    ______ ____
ROOT
ATOM      1  O   UNL     1      -4.016   1.701  23.361  0.00  0.00    -0.369 OA
ATOM      2  O   UNL     1      -6.219   2.631  25.262  0.00  0.00    -0.369 OA
ATOM      8  C   UNL     1      -4.832   3.017  25.153  0.00  0.00    +0.170 C 
ATOM      9  C   UNL     1      -4.056   1.765  24.798  0.00  0.00    +0.191 C 
ATOM     10  C   UNL     1      -4.640   3.923  23.955  0.00  0.00    +0.111 C 
ATOM     11  C   UNL     1      -4.919   0.672  25.380  0.00  0.00    +0.235 C 
ATOM     12  C   UNL     1      -4.553   2.916  22.816  0.00  0.00    +0.181 C 
ATOM     13  C   UNL     1      -6.314   1.204  25.141  0.00  0.00    +0.207 C 
ENDROOT
BRANCH  10   6
ATOM      6  N   UNL     1      -3.393   4.678  24.047  0.00  0.00    -0.305 NA
ATOM     35  H   UNL     1      -3.256   4.989  25.009  0.00  0.00    +0.123 HD
BRANCH   6  14
ATOM     14  C   UNL     1      -2.258   3.851  23.666  0.00  0.00    +0.116 C 
BRANCH  14  15
ATOM     15  C   UNL     1      -1.376   3.531  24.843  0.00  0.00    -0.034 A 
ATOM     17  C   UNL     1      -0.102   3.003  24.637  0.00  0.00    +0.005 A 
ATOM     18  C   UNL     1      -1.833   3.763  26.141  0.00  0.00    +0.005 A 
ATOM     19  C   UNL     1       0.715   2.705  25.726  0.00  0.00    +0.009 A 
ATOM     20  C   UNL     1      -1.016   3.465  27.231  0.00  0.00    +0.009 A 
ATOM     21  C   UNL     1       0.259   2.937  27.024  0.00  0.00    -0.018 A 
BRANCH  21  23
ATOM     23  C   UNL     1       1.105   2.629  28.156  0.00  0.00    -0.018 A 
ATOM     26  C   UNL     1       0.536   2.220  29.361  0.00  0.00    +0.008 A 
ATOM     27  C   UNL     1       2.491   2.742  28.042  0.00  0.00    +0.008 A 
ATOM     31  C   UNL     1       1.352   1.923  30.454  0.00  0.00    +0.001 A 
ATOM     32  C   UNL     1       3.307   2.446  29.134  0.00  0.00    +0.001 A 
ATOM     33  C   UNL     1       2.737   2.036  30.340  0.00  0.00    +0.000 A 
ENDBRANCH  21  23
ENDBRANCH  14  15
ENDBRANCH   6  14
ENDBRANCH  10   6
BRANCH  11   3
ATOM      3  O   UNL     1      -4.719  -0.586  24.774  0.00  0.00    -0.442 OA
BRANCH   3  16
ATOM      4  O   UNL     1      -3.137  -2.157  25.281  0.00  0.00    -0.226 OA
ATOM      7  N   UNL     1      -2.594  -0.193  24.129  0.00  0.00    -0.251 N 
ATOM     16  C   UNL     1      -3.432  -1.082  24.773  0.00  0.00    +0.405 C 
ATOM     36  H   UNL     1      -3.028   0.655  23.769  0.00  0.00    +0.158 HD
BRANCH   7  22
ATOM     22  C   UNL     1      -1.203  -0.313  23.907  0.00  0.00    +0.037 A 
ATOM     24  C   UNL     1      -0.605   0.370  22.847  0.00  0.00    +0.027 A 
ATOM     25  C   UNL     1      -0.429  -1.114  24.746  0.00  0.00    +0.027 A 
ATOM     28  C   UNL     1       0.767   0.251  22.627  0.00  0.00    +0.047 A 
ATOM     29  C   UNL     1       0.943  -1.232  24.527  0.00  0.00    +0.047 A 
ATOM     30  C   UNL     1       1.541  -0.550  23.467  0.00  0.00    +0.120 A 
BRANCH  30   5
ATOM      5  O   UNL     1       2.880  -0.666  23.252  0.00  0.00    -0.495 OA
ATOM     34  C   UNL     1       3.544   0.455  22.670  0.00  0.00    +0.277 C 
ENDBRANCH  30   5
ENDBRANCH   7  22
ENDBRANCH   3  16
ENDBRANCH  11   3
TORSDOF 8
ENDMDL
MODEL 6
REMARK VINA RESULT:       7.0     14.925     17.521
REMARK  Name = 11884624
REMARK  9 active torsions:
REMARK  status: ('A' for Active; 'I' for Inactive)
REMARK    1  A    between atoms: O_3  and  C_11
REMARK    2  A    between atoms: O_3  and  C_16
REMARK    3  A    between atoms: O_5  and  C_30
REMARK    4  A    between atoms: O_5  and  C_34
REMARK    5  A    between atoms: N_6  and  C_10
REMARK    6  A    between atoms: N_6  and  C_14
REMARK    7  A    between atoms: N_7  and  C_22
REMARK    8  A    between atoms: C_14  and  C_15
REMARK    9  A    between atoms: C_21  and  C_23
REMARK                            x       y       z     vdW  Elec       q    Type
REMARK                         _______ _______ _______ _____ _____    ______ ____
ROOT
ATOM      1  O   UNL     1      -4.534  -9.076  11.434  0.00  0.00    -0.369 OA
ATOM      2  O   UNL     1      -3.835 -10.541  14.022  0.00  0.00    -0.369 OA
ATOM      8  C   UNL     1      -3.396 -10.751  12.663  0.00  0.00    +0.170 C 
ATOM      9  C   UNL     1      -4.590 -10.474  11.771  0.00  0.00    +0.191 C 
ATOM     10  C   UNL     1      -2.390  -9.690  12.274  0.00  0.00    +0.111 C 
ATOM     11  C   UNL     1      -5.754 -10.781  12.681  0.00  0.00    +0.235 C 
ATOM     12  C   UNL     1      -3.296  -8.523  11.907  0.00  0.00    +0.181 C 
ATOM     13  C   UNL     1      -5.249 -10.297  14.021  0.00  0.00    +0.207 C 
ENDROOT
BRANCH  10   6
ATOM      6  N   UNL     1      -1.604 -10.095  11.110  0.00  0.00    -0.305 NA
ATOM     35  H   UNL     1      -2.182 -10.669  10.495  0.00  0.00    +0.123 HD
BRANCH   6  14
ATOM     14  C   UNL     1      -1.153  -8.932  10.360  0.00  0.00    +0.116 C 
BRANCH  14  15
ATOM     15  C   UNL     1       0.153  -8.399  10.884  0.00  0.00    -0.034 A 
ATOM     17  C   UNL     1       0.160  -7.422  11.879  0.00  0.00    +0.005 A 
ATOM     18  C   UNL     1       1.359  -8.882  10.375  0.00  0.00    +0.005 A 
ATOM     19  C   UNL     1       1.369  -6.927  12.365  0.00  0.00    +0.009 A 
ATOM     20  C   UNL     1       2.570  -8.388  10.860  0.00  0.00    +0.009 A 
ATOM     21  C   UNL     1       2.575  -7.411  11.855  0.00  0.00    -0.018 A 
BRANCH  21  23
ATOM     23  C   UNL     1       3.831  -6.899  12.358  0.00  0.00    -0.018 A 
ATOM     26  C   UNL     1       3.940  -5.558  12.727  0.00  0.00    +0.008 A 
ATOM     27  C   UNL     1       4.933  -7.745  12.473  0.00  0.00    +0.008 A 
ATOM     31  C   UNL     1       5.152  -5.063  13.211  0.00  0.00    +0.001 A 
ATOM     32  C   UNL     1       6.145  -7.251  12.957  0.00  0.00    +0.001 A 
ATOM     33  C   UNL     1       6.254  -5.910  13.326  0.00  0.00    +0.000 A 
ENDBRANCH  21  23
ENDBRANCH  14  15
ENDBRANCH   6  14
ENDBRANCH  10   6
BRANCH  11   3
ATOM      3  O   UNL     1      -6.950 -10.138  12.300  0.00  0.00    -0.442 OA
BRANCH   3  16
ATOM      4  O   UNL     1      -9.169 -10.492  12.727  0.00  0.00    -0.226 OA
ATOM      7  N   UNL     1      -7.622 -10.167  14.453  0.00  0.00    -0.251 N 
ATOM     16  C   UNL     1      -8.034 -10.286  13.141  0.00  0.00    +0.405 C 
ATOM     36  H   UNL     1      -6.629  -9.995  14.599  0.00  0.00    +0.158 HD
BRANCH   7  22
ATOM     22  C   UNL     1      -8.409 -10.253  15.624  0.00  0.00    +0.037 A 
ATOM     24  C   UNL     1      -7.794 -10.320  16.874  0.00  0.00    +0.027 A 
ATOM     25  C   UNL     1      -9.801 -10.272  15.530  0.00  0.00    +0.027 A 
ATOM     28  C   UNL     1      -8.570 -10.406  18.030  0.00  0.00    +0.047 A 
ATOM     29  C   UNL     1     -10.577 -10.356  16.685  0.00  0.00    +0.047 A 
ATOM     30  C   UNL     1      -9.961 -10.424  17.935  0.00  0.00    +0.120 A 
BRANCH  30   5
ATOM      5  O   UNL     1     -10.719 -10.508  19.063  0.00  0.00    -0.495 OA
ATOM     34  C   UNL     1     -10.041 -10.380  20.312  0.00  0.00    +0.277 C 
ENDBRANCH  30   5
ENDBRANCH   7  22
ENDBRANCH   3  16
ENDBRANCH  11   3
TORSDOF 8
ENDMDL
