MODEL 1
REMARK VINA RESULT:      -6.2      0.000      0.000
REMARK  Name = 56775701
REMARK  6 active torsions:
REMARK  status: ('A' for Active; 'I' for Inactive)
REMARK    1  A    between atoms: N_4  and  C_7
REMARK    2  A    between atoms: N_4  and  C_11
REMARK    3  A    between atoms: C_7  and  C_10
REMARK    4  A    between atoms: C_10  and  C_12
REMARK    5  A    between atoms: C_11  and  C_13
REMARK    6  A    between atoms: C_15  and  C_18
REMARK                            x       y       z     vdW  Elec       q    Type
REMARK                         _______ _______ _______ _____ _____    ______ ____
ROOT
ATOM      2  O   UNL     1      -5.830   3.841  25.212  0.00  0.00    -0.376 OA
ATOM      7  C   UNL     1      -3.779   3.249  25.248  0.00  0.00    +0.072 C 
ATOM      8  C   UNL     1      -5.003   3.110  26.147  0.00  0.00    +0.184 C 
ATOM      9  C   UNL     1      -4.689   4.090  24.359  0.00  0.00    +0.184 C 
ENDROOT
BRANCH   7   4
ATOM      4  N   UNL     1      -3.532   1.965  24.588  0.00  0.00    -0.302 NA
ATOM     26  H   UNL     1      -2.555   1.770  24.373  0.00  0.00    +0.123 HD
BRANCH   4  11
ATOM     11  C   UNL     1      -4.081   0.888  25.413  0.00  0.00    +0.120 C 
BRANCH  11  13
ATOM      1  F   UNL     1      -1.571  -0.178  26.154  0.00  0.00    -0.205 F 
ATOM     13  C   UNL     1      -3.612  -0.459  24.975  0.00  0.00    +0.002 A 
ATOM     16  C   UNL     1      -2.361  -0.929  25.374  0.00  0.00    +0.128 A 
ATOM     17  C   UNL     1      -4.427  -1.248  24.164  0.00  0.00    +0.008 A 
ATOM     19  C   UNL     1      -1.926  -2.189  24.963  0.00  0.00    +0.038 A 
ATOM     20  C   UNL     1      -3.992  -2.508  23.752  0.00  0.00    +0.000 A 
ATOM     21  C   UNL     1      -2.742  -2.978  24.152  0.00  0.00    +0.003 A 
ENDBRANCH  11  13
ENDBRANCH   4  11
ENDBRANCH   7   4
BRANCH   7  10
ATOM     10  C   UNL     1      -2.535   3.868  25.806  0.00  0.00    +0.085 C 
BRANCH  10  12
ATOM      3  O   UNL     1       0.558   2.003  25.678  0.00  0.00    -0.353 OA
ATOM      5  N   UNL     1      -0.413   2.729  26.357  0.00  0.00    -0.083 NA
ATOM     12  C   UNL     1      -1.313   3.058  25.425  0.00  0.00    +0.086 A 
ATOM     14  C   UNL     1      -0.965   2.572  24.152  0.00  0.00    +0.077 A 
ATOM     15  C   UNL     1       0.218   1.917  24.366  0.00  0.00    +0.186 A 
BRANCH  15  18
ATOM      6  N   UNL     1       2.408   1.633  23.574  0.00  0.00    -0.252 NA
ATOM     18  C   UNL     1       1.131   1.190  23.533  0.00  0.00    +0.109 A 
ATOM     22  C   UNL     1       0.706   0.121  22.760  0.00  0.00    +0.031 A 
ATOM     23  C   UNL     1       1.653  -0.534  21.980  0.00  0.00    +0.004 A 
ATOM     24  C   UNL     1       3.299   0.973  22.802  0.00  0.00    +0.111 A 
ATOM     25  C   UNL     1       2.975  -0.107  21.996  0.00  0.00    +0.020 A 
ENDBRANCH  15  18
ENDBRANCH  10  12
ENDBRANCH   7  10
TORSDOF 6
ENDMDL
MODEL 2
REMARK VINA RESULT:      -5.0      1.788      2.416
REMARK  Name = 56775701
REMARK  6 active torsions:
REMARK  status: ('A' for Active; 'I' for Inactive)
REMARK    1  A    between atoms: N_4  and  C_7
REMARK    2  A    between atoms: N_4  and  C_11
REMARK    3  A    between atoms: C_7  and  C_10
REMARK    4  A    between atoms: C_10  and  C_12
REMARK    5  A    between atoms: C_11  and  C_13
REMARK    6  A    between atoms: C_15  and  C_18
REMARK                            x       y       z     vdW  Elec       q    Type
REMARK                         _______ _______ _______ _____ _____    ______ ____
ROOT
ATOM      2  O   UNL     1      -2.029   4.699  25.222  0.00  0.00    -0.376 OA
ATOM      7  C   UNL     1      -2.045   2.671  24.556  0.00  0.00    +0.072 C 
ATOM      8  C   UNL     1      -1.027   3.661  25.110  0.00  0.00    +0.184 C 
ATOM      9  C   UNL     1      -3.021   3.841  24.613  0.00  0.00    +0.184 C 
ENDROOT
BRANCH   7   4
ATOM      4  N   UNL     1      -2.393   1.714  25.609  0.00  0.00    -0.302 NA
ATOM     26  H   UNL     1      -2.361   2.084  26.558  0.00  0.00    +0.123 HD
BRANCH   4  11
ATOM     11  C   UNL     1      -3.723   1.165  25.337  0.00  0.00    +0.120 C 
BRANCH  11  13
ATOM      1  F   UNL     1      -2.132  -0.694  26.751  0.00  0.00    -0.205 F 
ATOM     13  C   UNL     1      -3.679  -0.287  24.997  0.00  0.00    +0.002 A 
ATOM     16  C   UNL     1      -2.872  -1.154  25.733  0.00  0.00    +0.128 A 
ATOM     17  C   UNL     1      -4.446  -0.776  23.940  0.00  0.00    +0.008 A 
ATOM     19  C   UNL     1      -2.835  -2.512  25.413  0.00  0.00    +0.038 A 
ATOM     20  C   UNL     1      -4.408  -2.132  23.619  0.00  0.00    +0.000 A 
ATOM     21  C   UNL     1      -3.602  -3.000  24.356  0.00  0.00    +0.003 A 
ENDBRANCH  11  13
ENDBRANCH   4  11
ENDBRANCH   7   4
BRANCH   7  10
ATOM     10  C   UNL     1      -1.774   2.014  23.237  0.00  0.00    +0.085 C 
BRANCH  10  12
ATOM      3  O   UNL     1       0.676  -0.634  23.443  0.00  0.00    -0.353 OA
ATOM      5  N   UNL     1      -0.633  -0.171  23.399  0.00  0.00    -0.083 NA
ATOM     12  C   UNL     1      -0.526   1.159  23.307  0.00  0.00    +0.086 A 
ATOM     14  C   UNL     1       0.813   1.586  23.290  0.00  0.00    +0.077 A 
ATOM     15  C   UNL     1       1.528   0.421  23.377  0.00  0.00    +0.186 A 
BRANCH  15  18
ATOM      6  N   UNL     1       3.751   1.133  23.144  0.00  0.00    -0.252 NA
ATOM     18  C   UNL     1       2.924   0.097  23.410  0.00  0.00    +0.109 A 
ATOM     22  C   UNL     1       3.359  -1.188  23.697  0.00  0.00    +0.031 A 
ATOM     23  C   UNL     1       4.730  -1.421  23.712  0.00  0.00    +0.004 A 
ATOM     24  C   UNL     1       5.075   0.868  23.167  0.00  0.00    +0.111 A 
ATOM     25  C   UNL     1       5.611  -0.381  23.443  0.00  0.00    +0.020 A 
ENDBRANCH  15  18
ENDBRANCH  10  12
ENDBRANCH   7  10
TORSDOF 6
ENDMDL
MODEL 3
REMARK VINA RESULT:      -4.6      1.839      5.671
REMARK  Name = 56775701
REMARK  6 active torsions:
REMARK  status: ('A' for Active; 'I' for Inactive)
REMARK    1  A    between atoms: N_4  and  C_7
REMARK    2  A    between atoms: N_4  and  C_11
REMARK    3  A    between atoms: C_7  and  C_10
REMARK    4  A    between atoms: C_10  and  C_12
REMARK    5  A    between atoms: C_11  and  C_13
REMARK    6  A    between atoms: C_15  and  C_18
REMARK                            x       y       z     vdW  Elec       q    Type
REMARK                         _______ _______ _______ _____ _____    ______ ____
ROOT
ATOM      2  O   UNL     1       2.496  -0.492  21.943  0.00  0.00    -0.376 OA
ATOM      7  C   UNL     1       1.422   0.651  23.391  0.00  0.00    +0.072 C 
ATOM      8  C   UNL     1       1.130  -0.031  22.059  0.00  0.00    +0.184 C 
ATOM      9  C   UNL     1       2.863   0.212  23.152  0.00  0.00    +0.184 C 
ENDROOT
BRANCH   7   4
ATOM      4  N   UNL     1       0.856  -0.161  24.470  0.00  0.00    -0.302 NA
ATOM     26  H   UNL     1       0.268   0.347  25.131  0.00  0.00    +0.123 HD
BRANCH   4  11
ATOM     11  C   UNL     1       0.101  -1.272  23.890  0.00  0.00    +0.120 C 
BRANCH  11  13
ATOM      1  F   UNL     1      -1.680  -3.343  23.166  0.00  0.00    -0.205 F 
ATOM     13  C   UNL     1      -1.192  -1.511  24.595  0.00  0.00    +0.002 A 
ATOM     16  C   UNL     1      -2.028  -2.551  24.190  0.00  0.00    +0.128 A 
ATOM     17  C   UNL     1      -1.562  -0.693  25.662  0.00  0.00    +0.008 A 
ATOM     19  C   UNL     1      -3.236  -2.772  24.853  0.00  0.00    +0.038 A 
ATOM     20  C   UNL     1      -2.770  -0.914  26.324  0.00  0.00    +0.000 A 
ATOM     21  C   UNL     1      -3.606  -1.954  25.919  0.00  0.00    +0.003 A 
ENDBRANCH  11  13
ENDBRANCH   4  11
ENDBRANCH   7   4
BRANCH   7  10
ATOM     10  C   UNL     1       1.123   2.111  23.539  0.00  0.00    +0.085 C 
BRANCH  10  12
ATOM      3  O   UNL     1      -1.515   2.760  25.923  0.00  0.00    -0.353 OA
ATOM      5  N   UNL     1      -0.175   2.647  25.571  0.00  0.00    -0.083 NA
ATOM     12  C   UNL     1      -0.185   2.320  24.275  0.00  0.00    +0.086 A 
ATOM     14  C   UNL     1      -1.488   2.214  23.761  0.00  0.00    +0.077 A 
ATOM     15  C   UNL     1      -2.287   2.500  24.836  0.00  0.00    +0.186 A 
BRANCH  15  18
ATOM      6  N   UNL     1      -4.133   3.758  25.552  0.00  0.00    -0.252 NA
ATOM     18  C   UNL     1      -3.703   2.581  25.046  0.00  0.00    +0.109 A 
ATOM     22  C   UNL     1      -4.538   1.517  24.741  0.00  0.00    +0.031 A 
ATOM     23  C   UNL     1      -5.900   1.674  24.971  0.00  0.00    +0.004 A 
ATOM     24  C   UNL     1      -5.462   3.873  25.763  0.00  0.00    +0.111 A 
ATOM     25  C   UNL     1      -6.380   2.870  25.491  0.00  0.00    +0.020 A 
ENDBRANCH  15  18
ENDBRANCH  10  12
ENDBRANCH   7  10
TORSDOF 6
ENDMDL
MODEL 4
REMARK VINA RESULT:      -4.5      1.936      5.772
REMARK  Name = 56775701
REMARK  6 active torsions:
REMARK  status: ('A' for Active; 'I' for Inactive)
REMARK    1  A    between atoms: N_4  and  C_7
REMARK    2  A    between atoms: N_4  and  C_11
REMARK    3  A    between atoms: C_7  and  C_10
REMARK    4  A    between atoms: C_10  and  C_12
REMARK    5  A    between atoms: C_11  and  C_13
REMARK    6  A    between atoms: C_15  and  C_18
REMARK                            x       y       z     vdW  Elec       q    Type
REMARK                         _______ _______ _______ _____ _____    ______ ____
ROOT
ATOM      2  O   UNL     1       3.381  -0.598  22.520  0.00  0.00    -0.376 OA
ATOM      7  C   UNL     1       1.544   0.226  23.229  0.00  0.00    +0.072 C 
ATOM      8  C   UNL     1       2.306   0.153  21.911  0.00  0.00    +0.184 C 
ATOM      9  C   UNL     1       2.757  -0.484  23.820  0.00  0.00    +0.184 C 
ENDROOT
BRANCH   7   4
ATOM      4  N   UNL     1       0.424  -0.718  23.179  0.00  0.00    -0.302 NA
ATOM     26  H   UNL     1       0.510  -1.455  22.480  0.00  0.00    +0.123 HD
BRANCH   4  11
ATOM     11  C   UNL     1       0.236  -1.311  24.503  0.00  0.00    +0.120 C 
BRANCH  11  13
ATOM      1  F   UNL     1      -1.118  -0.220  26.731  0.00  0.00    -0.205 F 
ATOM     13  C   UNL     1      -1.197  -1.598  24.799  0.00  0.00    +0.002 A 
ATOM     16  C   UNL     1      -1.809  -1.029  25.916  0.00  0.00    +0.128 A 
ATOM     17  C   UNL     1      -1.925  -2.438  23.957  0.00  0.00    +0.008 A 
ATOM     19  C   UNL     1      -3.150  -1.299  26.189  0.00  0.00    +0.038 A 
ATOM     20  C   UNL     1      -3.266  -2.709  24.231  0.00  0.00    +0.000 A 
ATOM     21  C   UNL     1      -3.878  -2.139  25.347  0.00  0.00    +0.003 A 
ENDBRANCH  11  13
ENDBRANCH   4  11
ENDBRANCH   7   4
BRANCH   7  10
ATOM     10  C   UNL     1       1.153   1.567  23.768  0.00  0.00    +0.085 C 
BRANCH  10  12
ATOM      3  O   UNL     1      -2.369   1.738  22.975  0.00  0.00    -0.353 OA
ATOM      5  N   UNL     1      -1.043   1.492  22.639  0.00  0.00    -0.083 NA
ATOM     12  C   UNL     1      -0.353   1.735  23.758  0.00  0.00    +0.086 A 
ATOM     14  C   UNL     1      -1.182   2.132  24.821  0.00  0.00    +0.077 A 
ATOM     15  C   UNL     1      -2.439   2.118  24.276  0.00  0.00    +0.186 A 
BRANCH  15  18
ATOM      6  N   UNL     1      -3.922   3.670  25.220  0.00  0.00    -0.252 NA
ATOM     18  C   UNL     1      -3.753   2.407  24.771  0.00  0.00    +0.109 A 
ATOM     22  C   UNL     1      -4.750   1.443  24.772  0.00  0.00    +0.031 A 
ATOM     23  C   UNL     1      -5.999   1.801  25.266  0.00  0.00    +0.004 A 
ATOM     24  C   UNL     1      -5.149   3.981  25.694  0.00  0.00    +0.111 A 
ATOM     25  C   UNL     1      -6.211   3.091  25.738  0.00  0.00    +0.020 A 
ENDBRANCH  15  18
ENDBRANCH  10  12
ENDBRANCH   7  10
TORSDOF 6
ENDMDL
MODEL 5
REMARK VINA RESULT:      -3.9      2.678      5.048
REMARK  Name = 56775701
REMARK  6 active torsions:
REMARK  status: ('A' for Active; 'I' for Inactive)
REMARK    1  A    between atoms: N_4  and  C_7
REMARK    2  A    between atoms: N_4  and  C_11
REMARK    3  A    between atoms: C_7  and  C_10
REMARK    4  A    between atoms: C_10  and  C_12
REMARK    5  A    between atoms: C_11  and  C_13
REMARK    6  A    between atoms: C_15  and  C_18
REMARK                            x       y       z     vdW  Elec       q    Type
REMARK                         _______ _______ _______ _____ _____    ______ ____
ROOT
ATOM      2  O   UNL     1      -3.853  -3.808  24.155  0.00  0.00    -0.376 OA
ATOM      7  C   UNL     1      -2.761  -2.199  25.036  0.00  0.00    +0.072 C 
ATOM      8  C   UNL     1      -3.249  -2.596  23.647  0.00  0.00    +0.184 C 
ATOM      9  C   UNL     1      -3.340  -3.538  25.480  0.00  0.00    +0.184 C 
ENDROOT
BRANCH   7   4
ATOM      4  N   UNL     1      -3.617  -1.124  25.546  0.00  0.00    -0.302 NA
ATOM     26  H   UNL     1      -3.131  -0.396  26.068  0.00  0.00    +0.123 HD
BRANCH   4  11
ATOM     11  C   UNL     1      -4.354  -0.528  24.432  0.00  0.00    +0.120 C 
BRANCH  11  13
ATOM      1  F   UNL     1      -3.364   1.517  22.752  0.00  0.00    -0.205 F 
ATOM     13  C   UNL     1      -4.650   0.917  24.655  0.00  0.00    +0.002 A 
ATOM     16  C   UNL     1      -4.130   1.880  23.790  0.00  0.00    +0.128 A 
ATOM     17  C   UNL     1      -5.447   1.304  25.732  0.00  0.00    +0.008 A 
ATOM     19  C   UNL     1      -4.410   3.230  24.002  0.00  0.00    +0.038 A 
ATOM     20  C   UNL     1      -5.725   2.654  25.944  0.00  0.00    +0.000 A 
ATOM     21  C   UNL     1      -5.207   3.617  25.079  0.00  0.00    +0.003 A 
ENDBRANCH  11  13
ENDBRANCH   4  11
ENDBRANCH   7   4
BRANCH   7  10
ATOM     10  C   UNL     1      -1.302  -1.932  25.244  0.00  0.00    +0.085 C 
BRANCH  10  12
ATOM      3  O   UNL     1       0.002   1.085  23.743  0.00  0.00    -0.353 OA
ATOM      5  N   UNL     1      -0.091  -0.298  23.844  0.00  0.00    -0.083 NA
ATOM     12  C   UNL     1      -0.951  -0.514  24.843  0.00  0.00    +0.086 A 
ATOM     14  C   UNL     1      -1.429   0.682  25.405  0.00  0.00    +0.077 A 
ATOM     15  C   UNL     1      -0.799   1.657  24.679  0.00  0.00    +0.186 A 
BRANCH  15  18
ATOM      6  N   UNL     1       0.043   3.672  23.822  0.00  0.00    -0.252 NA
ATOM     18  C   UNL     1      -0.810   3.091  24.696  0.00  0.00    +0.109 A 
ATOM     22  C   UNL     1      -1.642   3.795  25.553  0.00  0.00    +0.031 A 
ATOM     23  C   UNL     1      -1.594   5.184  25.508  0.00  0.00    +0.004 A 
ATOM     24  C   UNL     1       0.061   5.023  23.808  0.00  0.00    +0.111 A 
ATOM     25  C   UNL     1      -0.730   5.818  24.623  0.00  0.00    +0.020 A 
ENDBRANCH  15  18
ENDBRANCH  10  12
ENDBRANCH   7  10
TORSDOF 6
ENDMDL
MODEL 6
REMARK VINA RESULT:      -3.8      2.232      4.359
REMARK  Name = 56775701
REMARK  6 active torsions:
REMARK  status: ('A' for Active; 'I' for Inactive)
REMARK    1  A    between atoms: N_4  and  C_7
REMARK    2  A    between atoms: N_4  and  C_11
REMARK    3  A    between atoms: C_7  and  C_10
REMARK    4  A    between atoms: C_10  and  C_12
REMARK    5  A    between atoms: C_11  and  C_13
REMARK    6  A    between atoms: C_15  and  C_18
REMARK                            x       y       z     vdW  Elec       q    Type
REMARK                         _______ _______ _______ _____ _____    ______ ____
ROOT
ATOM      2  O   UNL     1      -3.485  -2.732  24.800  0.00  0.00    -0.376 OA
ATOM      7  C   UNL     1      -3.261  -0.653  24.371  0.00  0.00    +0.072 C 
ATOM      8  C   UNL     1      -4.254  -1.765  24.049  0.00  0.00    +0.184 C 
ATOM      9  C   UNL     1      -2.458  -1.749  25.064  0.00  0.00    +0.184 C 
ENDROOT
BRANCH   7   4
ATOM      4  N   UNL     1      -3.846   0.219  25.393  0.00  0.00    -0.302 NA
ATOM     26  H   UNL     1      -3.192   0.566  26.092  0.00  0.00    +0.123 HD
BRANCH   4  11
ATOM     11  C   UNL     1      -4.512   1.345  24.737  0.00  0.00    +0.120 C 
BRANCH  11  13
ATOM      1  F   UNL     1      -3.981   3.122  22.605  0.00  0.00    -0.205 F 
ATOM     13  C   UNL     1      -3.770   2.627  24.917  0.00  0.00    +0.002 A 
ATOM     16  C   UNL     1      -3.539   3.461  23.824  0.00  0.00    +0.128 A 
ATOM     17  C   UNL     1      -3.307   2.989  26.182  0.00  0.00    +0.008 A 
ATOM     19  C   UNL     1      -2.845   4.659  23.996  0.00  0.00    +0.038 A 
ATOM     20  C   UNL     1      -2.612   4.186  26.353  0.00  0.00    +0.000 A 
ATOM     21  C   UNL     1      -2.382   5.022  25.261  0.00  0.00    +0.003 A 
ENDBRANCH  11  13
ENDBRANCH   4  11
ENDBRANCH   7   4
BRANCH   7  10
ATOM     10  C   UNL     1      -2.632   0.107  23.245  0.00  0.00    +0.085 C 
BRANCH  10  12
ATOM      3  O   UNL     1       0.606   1.204  24.417  0.00  0.00    -0.353 OA
ATOM      5  N   UNL     1      -0.784   1.239  24.429  0.00  0.00    -0.083 NA
ATOM     12  C   UNL     1      -1.160   0.344  23.510  0.00  0.00    +0.086 A 
ATOM     14  C   UNL     1      -0.063  -0.280  22.892  0.00  0.00    +0.077 A 
ATOM     15  C   UNL     1       1.023   0.296  23.497  0.00  0.00    +0.186 A 
BRANCH  15  18
ATOM      6  N   UNL     1       3.088   1.247  22.923  0.00  0.00    -0.252 NA
ATOM     18  C   UNL     1       2.443   0.147  23.370  0.00  0.00    +0.109 A 
ATOM     22  C   UNL     1       3.074  -1.045  23.691  0.00  0.00    +0.031 A 
ATOM     23  C   UNL     1       4.455  -1.110  23.542  0.00  0.00    +0.004 A 
ATOM     24  C   UNL     1       4.429   1.146  22.791  0.00  0.00    +0.111 A 
ATOM     25  C   UNL     1       5.153   0.001  23.085  0.00  0.00    +0.020 A 
ENDBRANCH  15  18
ENDBRANCH  10  12
ENDBRANCH   7  10
TORSDOF 6
ENDMDL
MODEL 7
REMARK VINA RESULT:      -3.5      2.653      4.720
REMARK  Name = 56775701
REMARK  6 active torsions:
REMARK  status: ('A' for Active; 'I' for Inactive)
REMARK    1  A    between atoms: N_4  and  C_7
REMARK    2  A    between atoms: N_4  and  C_11
REMARK    3  A    between atoms: C_7  and  C_10
REMARK    4  A    between atoms: C_10  and  C_12
REMARK    5  A    between atoms: C_11  and  C_13
REMARK    6  A    between atoms: C_15  and  C_18
REMARK                            x       y       z     vdW  Elec       q    Type
REMARK                         _______ _______ _______ _____ _____    ______ ____
ROOT
ATOM      2  O   UNL     1      -6.517   4.166  26.089  0.00  0.00    -0.376 OA
ATOM      7  C   UNL     1      -4.557   4.257  25.249  0.00  0.00    +0.072 C 
ATOM      8  C   UNL     1      -5.728   5.208  25.470  0.00  0.00    +0.184 C 
ATOM      9  C   UNL     1      -5.482   3.190  25.825  0.00  0.00    +0.184 C 
ENDROOT
BRANCH   7   4
ATOM      4  N   UNL     1      -3.514   4.557  26.233  0.00  0.00    -0.302 NA
ATOM     26  H   UNL     1      -3.294   3.798  26.877  0.00  0.00    +0.123 HD
BRANCH   4  11
ATOM     11  C   UNL     1      -2.300   4.978  25.533  0.00  0.00    +0.120 C 
BRANCH  11  13
ATOM      1  F   UNL     1      -0.307   4.990  23.530  0.00  0.00    -0.205 F 
ATOM     13  C   UNL     1      -1.334   3.856  25.345  0.00  0.00    +0.002 A 
ATOM     16  C   UNL     1      -0.373   3.922  24.336  0.00  0.00    +0.128 A 
ATOM     17  C   UNL     1      -1.395   2.741  26.180  0.00  0.00    +0.008 A 
ATOM     19  C   UNL     1       0.529   2.872  24.164  0.00  0.00    +0.038 A 
ATOM     20  C   UNL     1      -0.493   1.691  26.007  0.00  0.00    +0.000 A 
ATOM     21  C   UNL     1       0.468   1.756  24.999  0.00  0.00    +0.003 A 
ENDBRANCH  11  13
ENDBRANCH   4  11
ENDBRANCH   7   4
BRANCH   7  10
ATOM     10  C   UNL     1      -4.017   4.079  23.863  0.00  0.00    +0.085 C 
BRANCH  10  12
ATOM      3  O   UNL     1      -2.674   0.954  22.642  0.00  0.00    -0.353 OA
ATOM      5  N   UNL     1      -2.874   2.327  22.551  0.00  0.00    -0.083 NA
ATOM     12  C   UNL     1      -3.602   2.642  23.626  0.00  0.00    +0.086 A 
ATOM     14  C   UNL     1      -3.888   1.521  24.424  0.00  0.00    +0.077 A 
ATOM     15  C   UNL     1      -3.283   0.486  23.762  0.00  0.00    +0.186 A 
BRANCH  15  18
ATOM      6  N   UNL     1      -1.924  -1.331  24.353  0.00  0.00    -0.252 NA
ATOM     18  C   UNL     1      -3.161  -0.924  23.993  0.00  0.00    +0.109 A 
ATOM     22  C   UNL     1      -4.247  -1.773  23.850  0.00  0.00    +0.031 A 
ATOM     23  C   UNL     1      -4.048  -3.128  24.094  0.00  0.00    +0.004 A 
ATOM     24  C   UNL     1      -1.769  -2.654  24.581  0.00  0.00    +0.111 A 
ATOM     25  C   UNL     1      -2.790  -3.585  24.466  0.00  0.00    +0.020 A 
ENDBRANCH  15  18
ENDBRANCH  10  12
ENDBRANCH   7  10
TORSDOF 6
ENDMDL
MODEL 8
REMARK VINA RESULT:      -3.3      2.171      6.483
REMARK  Name = 56775701
REMARK  6 active torsions:
REMARK  status: ('A' for Active; 'I' for Inactive)
REMARK    1  A    between atoms: N_4  and  C_7
REMARK    2  A    between atoms: N_4  and  C_11
REMARK    3  A    between atoms: C_7  and  C_10
REMARK    4  A    between atoms: C_10  and  C_12
REMARK    5  A    between atoms: C_11  and  C_13
REMARK    6  A    between atoms: C_15  and  C_18
REMARK                            x       y       z     vdW  Elec       q    Type
REMARK                         _______ _______ _______ _____ _____    ______ ____
ROOT
ATOM      2  O   UNL     1       2.905   0.045  21.670  0.00  0.00    -0.376 OA
ATOM      7  C   UNL     1       1.197  -0.056  22.945  0.00  0.00    +0.072 C 
ATOM      8  C   UNL     1       2.691   0.209  23.091  0.00  0.00    +0.184 C 
ATOM      9  C   UNL     1       1.516  -0.307  21.475  0.00  0.00    +0.184 C 
ENDROOT
BRANCH   7   4
ATOM      4  N   UNL     1       0.479   1.216  23.060  0.00  0.00    -0.302 NA
ATOM     26  H   UNL     1      -0.537   1.141  23.069  0.00  0.00    +0.123 HD
BRANCH   4  11
ATOM     11  C   UNL     1       0.933   1.916  24.263  0.00  0.00    +0.120 C 
BRANCH  11  13
ATOM      1  F   UNL     1      -0.410   1.646  26.735  0.00  0.00    -0.205 F 
ATOM     13  C   UNL     1      -0.066   2.909  24.754  0.00  0.00    +0.002 A 
ATOM     16  C   UNL     1      -0.696   2.718  25.984  0.00  0.00    +0.128 A 
ATOM     17  C   UNL     1      -0.370   4.029  23.980  0.00  0.00    +0.008 A 
ATOM     19  C   UNL     1      -1.629   3.650  26.440  0.00  0.00    +0.038 A 
ATOM     20  C   UNL     1      -1.304   4.959  24.436  0.00  0.00    +0.000 A 
ATOM     21  C   UNL     1      -1.933   4.769  25.666  0.00  0.00    +0.003 A 
ENDBRANCH  11  13
ENDBRANCH   4  11
ENDBRANCH   7   4
BRANCH   7  10
ATOM     10  C   UNL     1       0.572  -1.153  23.751  0.00  0.00    +0.085 C 
BRANCH  10  12
ATOM      3  O   UNL     1      -2.354  -0.568  25.789  0.00  0.00    -0.353 OA
ATOM      5  N   UNL     1      -1.134  -1.183  25.537  0.00  0.00    -0.083 NA
ATOM     12  C   UNL     1      -0.740  -0.698  24.355  0.00  0.00    +0.086 A 
ATOM     14  C   UNL     1      -1.662   0.218  23.820  0.00  0.00    +0.077 A 
ATOM     15  C   UNL     1      -2.658   0.264  24.760  0.00  0.00    +0.186 A 
BRANCH  15  18
ATOM      6  N   UNL     1      -3.902   2.200  24.306  0.00  0.00    -0.252 NA
ATOM     18  C   UNL     1      -3.897   0.976  24.879  0.00  0.00    +0.109 A 
ATOM     22  C   UNL     1      -4.984   0.423  25.537  0.00  0.00    +0.031 A 
ATOM     23  C   UNL     1      -6.151   1.176  25.609  0.00  0.00    +0.004 A 
ATOM     24  C   UNL     1      -5.053   2.902  24.397  0.00  0.00    +0.111 A 
ATOM     25  C   UNL     1      -6.195   2.439  25.032  0.00  0.00    +0.020 A 
ENDBRANCH  15  18
ENDBRANCH  10  12
ENDBRANCH   7  10
TORSDOF 6
ENDMDL
MODEL 9
REMARK VINA RESULT:      -3.1      1.698      2.187
REMARK  Name = 56775701
REMARK  6 active torsions:
REMARK  status: ('A' for Active; 'I' for Inactive)
REMARK    1  A    between atoms: N_4  and  C_7
REMARK    2  A    between atoms: N_4  and  C_11
REMARK    3  A    between atoms: C_7  and  C_10
REMARK    4  A    between atoms: C_10  and  C_12
REMARK    5  A    between atoms: C_11  and  C_13
REMARK    6  A    between atoms: C_15  and  C_18
REMARK                            x       y       z     vdW  Elec       q    Type
REMARK                         _______ _______ _______ _____ _____    ______ ____
ROOT
ATOM      2  O   UNL     1      -6.424   2.639  25.168  0.00  0.00    -0.376 OA
ATOM      7  C   UNL     1      -4.291   2.559  25.200  0.00  0.00    +0.072 C 
ATOM      8  C   UNL     1      -5.402   3.203  26.022  0.00  0.00    +0.184 C 
ATOM      9  C   UNL     1      -5.419   2.079  24.292  0.00  0.00    +0.184 C 
ENDROOT
BRANCH   7   4
ATOM      4  N   UNL     1      -3.762   1.410  25.940  0.00  0.00    -0.302 NA
ATOM     26  H   UNL     1      -3.970   1.405  26.937  0.00  0.00    +0.123 HD
BRANCH   4  11
ATOM     11  C   UNL     1      -4.253   0.176  25.326  0.00  0.00    +0.120 C 
BRANCH  11  13
ATOM      1  F   UNL     1      -4.589  -2.130  23.728  0.00  0.00    -0.205 F 
ATOM     13  C   UNL     1      -3.166  -0.821  25.106  0.00  0.00    +0.002 A 
ATOM     16  C   UNL     1      -3.394  -1.941  24.306  0.00  0.00    +0.128 A 
ATOM     17  C   UNL     1      -1.920  -0.632  25.702  0.00  0.00    +0.008 A 
ATOM     19  C   UNL     1      -2.375  -2.871  24.101  0.00  0.00    +0.038 A 
ATOM     20  C   UNL     1      -0.901  -1.563  25.499  0.00  0.00    +0.000 A 
ATOM     21  C   UNL     1      -1.129  -2.682  24.698  0.00  0.00    +0.003 A 
ENDBRANCH  11  13
ENDBRANCH   4  11
ENDBRANCH   7   4
BRANCH   7  10
ATOM     10  C   UNL     1      -3.216   3.429  24.625  0.00  0.00    +0.085 C 
BRANCH  10  12
ATOM      3  O   UNL     1      -1.225   1.208  22.584  0.00  0.00    -0.353 OA
ATOM      5  N   UNL     1      -2.422   1.830  22.918  0.00  0.00    -0.083 NA
ATOM     12  C   UNL     1      -2.133   2.591  23.978  0.00  0.00    +0.086 A 
ATOM     14  C   UNL     1      -0.782   2.490  24.354  0.00  0.00    +0.077 A 
ATOM     15  C   UNL     1      -0.256   1.610  23.447  0.00  0.00    +0.186 A 
BRANCH  15  18
ATOM      6  N   UNL     1       1.051  -0.278  22.967  0.00  0.00    -0.252 NA
ATOM     18  C   UNL     1       1.045   1.049  23.226  0.00  0.00    +0.109 A 
ATOM     22  C   UNL     1       2.186   1.834  23.278  0.00  0.00    +0.031 A 
ATOM     23  C   UNL     1       3.411   1.215  23.051  0.00  0.00    +0.004 A 
ATOM     24  C   UNL     1       2.259  -0.844  22.752  0.00  0.00    +0.111 A 
ATOM     25  C   UNL     1       3.457  -0.147  22.782  0.00  0.00    +0.020 A 
ENDBRANCH  15  18
ENDBRANCH  10  12
ENDBRANCH   7  10
TORSDOF 6
ENDMDL
MODEL 10
REMARK VINA RESULT:      -3.0      2.255      4.620
REMARK  Name = 56775701
REMARK  6 active torsions:
REMARK  status: ('A' for Active; 'I' for Inactive)
REMARK    1  A    between atoms: N_4  and  C_7
REMARK    2  A    between atoms: N_4  and  C_11
REMARK    3  A    between atoms: C_7  and  C_10
REMARK    4  A    between atoms: C_10  and  C_12
REMARK    5  A    between atoms: C_11  and  C_13
REMARK    6  A    between atoms: C_15  and  C_18
REMARK                            x       y       z     vdW  Elec       q    Type
REMARK                         _______ _______ _______ _____ _____    ______ ____
ROOT
ATOM      2  O   UNL     1      -5.018  -0.792  24.649  0.00  0.00    -0.376 OA
ATOM      7  C   UNL     1      -2.893  -0.717  24.455  0.00  0.00    +0.072 C 
ATOM      8  C   UNL     1      -4.094  -0.972  23.551  0.00  0.00    +0.184 C 
ATOM      9  C   UNL     1      -3.922  -0.634  25.578  0.00  0.00    +0.184 C 
ENDROOT
BRANCH   7   4
ATOM      4  N   UNL     1      -2.380   0.629  24.187  0.00  0.00    -0.302 NA
ATOM     26  H   UNL     1      -2.960   1.199  23.573  0.00  0.00    +0.123 HD
BRANCH   4  11
ATOM     11  C   UNL     1      -2.170   1.325  25.457  0.00  0.00    +0.120 C 
BRANCH  11  13
ATOM      1  F   UNL     1       0.186   2.179  24.152  0.00  0.00    -0.205 F 
ATOM     13  C   UNL     1      -1.827   2.764  25.267  0.00  0.00    +0.002 A 
ATOM     16  C   UNL     1      -0.647   3.122  24.614  0.00  0.00    +0.128 A 
ATOM     17  C   UNL     1      -2.688   3.752  25.744  0.00  0.00    +0.008 A 
ATOM     19  C   UNL     1      -0.330   4.468  24.437  0.00  0.00    +0.038 A 
ATOM     20  C   UNL     1      -2.369   5.099  25.568  0.00  0.00    +0.000 A 
ATOM     21  C   UNL     1      -1.190   5.457  24.914  0.00  0.00    +0.003 A 
ENDBRANCH  11  13
ENDBRANCH   4  11
ENDBRANCH   7   4
BRANCH   7  10
ATOM     10  C   UNL     1      -1.812  -1.749  24.534  0.00  0.00    +0.085 C 
BRANCH  10  12
ATOM      3  O   UNL     1       0.776  -0.311  22.462  0.00  0.00    -0.353 OA
ATOM      5  N   UNL     1      -0.544  -0.666  22.712  0.00  0.00    -0.083 NA
ATOM     12  C   UNL     1      -0.526  -1.231  23.923  0.00  0.00    +0.086 A 
ATOM     14  C   UNL     1       0.764  -1.261  24.479  0.00  0.00    +0.077 A 
ATOM     15  C   UNL     1       1.545  -0.671  23.522  0.00  0.00    +0.186 A 
BRANCH  15  18
ATOM      6  N   UNL     1       3.770  -1.338  23.851  0.00  0.00    -0.252 NA
ATOM     18  C   UNL     1       2.942  -0.365  23.409  0.00  0.00    +0.109 A 
ATOM     22  C   UNL     1       3.375   0.842  22.882  0.00  0.00    +0.031 A 
ATOM     23  C   UNL     1       4.746   1.062  22.805  0.00  0.00    +0.004 A 
ATOM     24  C   UNL     1       5.094  -1.088  23.760  0.00  0.00    +0.111 A 
ATOM     25  C   UNL     1       5.628   0.085  23.250  0.00  0.00    +0.020 A 
ENDBRANCH  15  18
ENDBRANCH  10  12
ENDBRANCH   7  10
TORSDOF 6
ENDMDL
