MODEL 1
REMARK VINA RESULT:      -3.5      0.000      0.000
REMARK  Name = 7142731
REMARK  5 active torsions:
REMARK  status: ('A' for Active; 'I' for Inactive)
REMARK    1  A    between atoms: O_3  and  C_22
REMARK    2  A    between atoms: O_3  and  C_24
REMARK    3  A    between atoms: N_7  and  C_20
REMARK    4  A    between atoms: C_19  and  C_22
REMARK    5  A    between atoms: C_23  and  C_25
REMARK                            x       y       z     vdW  Elec       q    Type
REMARK                         _______ _______ _______ _____ _____    ______ ____
ROOT
ATOM      1  O   UNL     1      12.170  -5.693  30.978  0.00  0.00    -0.266 OA
ATOM      2  O   UNL     1      15.704  -7.783  27.540  0.00  0.00    -0.272 OA
ATOM      5  N   UNL     1      16.602  -7.673  29.681  0.00  0.00    -0.298 N 
ATOM      6  N   UNL     1      14.266  -6.552  31.554  0.00  0.00    -0.310 N 
ATOM     10  C   UNL     1      16.461  -5.456  30.821  0.00  0.00    +0.027 C 
ATOM     11  C   UNL     1      16.513  -7.516  32.162  0.00  0.00    +0.054 C 
ATOM     12  C   UNL     1      17.033  -6.083  32.087  0.00  0.00    +0.018 C 
ATOM     13  C   UNL     1      16.907  -6.246  29.579  0.00  0.00    +0.113 C 
ATOM     14  C   UNL     1      14.933  -5.393  30.946  0.00  0.00    +0.130 C 
ATOM     15  C   UNL     1      17.011  -8.312  30.940  0.00  0.00    +0.117 C 
ATOM     16  C   UNL     1      14.996  -7.545  32.213  0.00  0.00    +0.027 A 
ATOM     17  C   UNL     1      14.359  -8.535  32.861  0.00  0.00    +0.024 A 
ATOM     18  C   UNL     1      12.857  -6.554  31.529  0.00  0.00    +0.273 A 
ATOM     19  C   UNL     1      16.041  -8.338  28.589  0.00  0.00    +0.253 C 
ATOM     20  C   UNL     1      12.186  -7.687  32.242  0.00  0.00    +0.099 A 
ATOM     21  C   UNL     1      12.926  -8.606  32.873  0.00  0.00    +0.030 A 
ENDROOT
BRANCH  20   7
ATOM      4  O   UNL     1      10.583 -10.005  31.792  0.00  0.00    -0.268 OA
ATOM      7  N   UNL     1      10.823  -7.734  32.230  0.00  0.00    -0.276 N 
ATOM     23  C   UNL     1      10.099  -8.897  32.005  0.00  0.00    +0.268 C 
ATOM     34  H   UNL     1      10.328  -6.845  32.202  0.00  0.00    +0.155 HD
BRANCH  23  25
ATOM      8  N   UNL     1       8.171  -7.741  32.789  0.00  0.00    -0.247 NA
ATOM      9  N   UNL     1       6.487  -9.509  31.410  0.00  0.00    -0.259 NA
ATOM     25  C   UNL     1       8.620  -8.755  32.052  0.00  0.00    +0.144 A 
ATOM     28  C   UNL     1       7.829  -9.627  31.374  0.00  0.00    +0.143 A 
ATOM     32  C   UNL     1       6.828  -7.622  32.826  0.00  0.00    +0.131 A 
ATOM     33  C   UNL     1       6.001  -8.491  32.148  0.00  0.00    +0.130 A 
ENDBRANCH  23  25
ENDBRANCH  20   7
BRANCH  19  22
ATOM     22  C   UNL     1      15.841  -9.825  28.733  0.00  0.00    +0.324 C 
BRANCH  22   3
ATOM      3  O   UNL     1      16.327 -10.413  27.551  0.00  0.00    -0.483 OA
BRANCH   3  24
ATOM     24  C   UNL     1      15.448 -10.535  26.497  0.00  0.00    +0.121 A 
ATOM     26  C   UNL     1      14.090 -10.654  26.753  0.00  0.00    +0.045 A 
ATOM     27  C   UNL     1      15.937 -10.538  25.200  0.00  0.00    +0.045 A 
ATOM     29  C   UNL     1      13.200 -10.777  25.686  0.00  0.00    +0.004 A 
ATOM     30  C   UNL     1      15.047 -10.661  24.132  0.00  0.00    +0.004 A 
ATOM     31  C   UNL     1      13.678 -10.781  24.376  0.00  0.00    +0.000 A 
ENDBRANCH   3  24
ENDBRANCH  22   3
ENDBRANCH  19  22
TORSDOF 5
ENDMDL
MODEL 2
REMARK VINA RESULT:      -1.3     14.933     19.359
REMARK  Name = 7142731
REMARK  5 active torsions:
REMARK  status: ('A' for Active; 'I' for Inactive)
REMARK    1  A    between atoms: O_3  and  C_22
REMARK    2  A    between atoms: O_3  and  C_24
REMARK    3  A    between atoms: N_7  and  C_20
REMARK    4  A    between atoms: C_19  and  C_22
REMARK    5  A    between atoms: C_23  and  C_25
REMARK                            x       y       z     vdW  Elec       q    Type
REMARK                         _______ _______ _______ _____ _____    ______ ____
ROOT
ATOM      1  O   UNL     1      -0.025   2.403  26.111  0.00  0.00    -0.266 OA
ATOM      2  O   UNL     1      -4.775  -0.016  26.635  0.00  0.00    -0.272 OA
ATOM      5  N   UNL     1      -4.907   1.744  25.123  0.00  0.00    -0.298 N 
ATOM      6  N   UNL     1      -1.940   2.909  24.870  0.00  0.00    -0.310 N 
ATOM     10  C   UNL     1      -4.033   3.946  25.917  0.00  0.00    +0.027 C 
ATOM     11  C   UNL     1      -4.003   3.415  23.516  0.00  0.00    +0.054 C 
ATOM     12  C   UNL     1      -4.268   4.527  24.528  0.00  0.00    +0.018 C 
ATOM     13  C   UNL     1      -4.982   2.761  26.173  0.00  0.00    +0.113 C 
ATOM     14  C   UNL     1      -2.559   3.542  26.042  0.00  0.00    +0.130 C 
ATOM     15  C   UNL     1      -4.993   2.257  23.748  0.00  0.00    +0.117 C 
ATOM     16  C   UNL     1      -2.578   2.904  23.627  0.00  0.00    +0.027 A 
ATOM     17  C   UNL     1      -1.945   2.423  22.544  0.00  0.00    +0.024 A 
ATOM     18  C   UNL     1      -0.635   2.404  25.041  0.00  0.00    +0.273 A 
ATOM     19  C   UNL     1      -4.847   0.395  25.474  0.00  0.00    +0.253 C 
ATOM     20  C   UNL     1       0.027   1.855  23.815  0.00  0.00    +0.099 A 
ATOM     21  C   UNL     1      -0.617   1.887  22.642  0.00  0.00    +0.030 A 
ENDROOT
BRANCH  20   7
ATOM      4  O   UNL     1       1.246  -0.063  22.089  0.00  0.00    -0.268 OA
ATOM      7  N   UNL     1       1.285   1.344  23.939  0.00  0.00    -0.276 N 
ATOM     23  C   UNL     1       1.822   0.411  23.064  0.00  0.00    +0.268 C 
ATOM     34  H   UNL     1       1.772   1.521  24.816  0.00  0.00    +0.155 HD
BRANCH  23  25
ATOM      8  N   UNL     1       4.135   0.949  23.244  0.00  0.00    -0.247 NA
ATOM      9  N   UNL     1       4.748  -1.695  23.952  0.00  0.00    -0.259 NA
ATOM     25  C   UNL     1       3.219  -0.011  23.350  0.00  0.00    +0.144 A 
ATOM     28  C   UNL     1       3.486  -1.300  23.690  0.00  0.00    +0.143 A 
ATOM     32  C   UNL     1       5.398   0.554  23.505  0.00  0.00    +0.131 A 
ATOM     33  C   UNL     1       5.699  -0.745  23.853  0.00  0.00    +0.130 A 
ENDBRANCH  23  25
ENDBRANCH  20   7
BRANCH  19  22
ATOM     22  C   UNL     1      -4.867  -0.600  24.341  0.00  0.00    +0.324 C 
BRANCH  22   3
ATOM      3  O   UNL     1      -4.271  -1.777  24.828  0.00  0.00    -0.483 OA
BRANCH   3  24
ATOM     24  C   UNL     1      -2.896  -1.799  24.919  0.00  0.00    +0.121 A 
ATOM     26  C   UNL     1      -2.256  -0.916  25.777  0.00  0.00    +0.045 A 
ATOM     27  C   UNL     1      -2.177  -2.702  24.151  0.00  0.00    +0.045 A 
ATOM     29  C   UNL     1      -0.865  -0.939  25.868  0.00  0.00    +0.004 A 
ATOM     30  C   UNL     1      -0.785  -2.724  24.243  0.00  0.00    +0.004 A 
ATOM     31  C   UNL     1      -0.129  -1.842  25.102  0.00  0.00    +0.000 A 
ENDBRANCH   3  24
ENDBRANCH  22   3
ENDBRANCH  19  22
TORSDOF 5
ENDMDL
