MODEL 1
REMARK VINA RESULT:       1.6      0.000      0.000
REMARK  Name = 45360422
REMARK  9 active torsions:
REMARK  status: ('A' for Active; 'I' for Inactive)
REMARK    1  A    between atoms: O_1  and  C_22
REMARK    2  A    between atoms: O_1  and  C_25
REMARK    3  A    between atoms: O_2  and  C_24
REMARK    4  A    between atoms: O_2  and  C_26
REMARK    5  A    between atoms: N_4  and  C_18
REMARK    6  A    between atoms: N_5  and  C_15
REMARK    7  A    between atoms: C_8  and  C_14
REMARK    8  A    between atoms: C_9  and  C_15
REMARK    9  A    between atoms: C_17  and  C_19
REMARK                            x       y       z     vdW  Elec       q    Type
REMARK                         _______ _______ _______ _____ _____    ______ ____
ROOT
ATOM      4  N   UNL     1      -2.448  -0.922  24.619  0.00  0.00    -0.270 N 
ATOM      6  N   UNL     1      -1.165  -1.155  24.293  0.00  0.00    -0.171 NA
ATOM     14  C   UNL     1      -2.785   0.400  24.618  0.00  0.00    +0.044 A 
ATOM     16  C   UNL     1      -1.644   1.079  24.268  0.00  0.00    +0.053 A 
ATOM     17  C   UNL     1      -0.679   0.071  24.079  0.00  0.00    +0.093 A 
ATOM     18  C   UNL     1      -3.310  -2.038  24.929  0.00  0.00    +0.172 C 
ENDROOT
BRANCH  14   8
ATOM      3  N   UNL     1      -5.204   2.718  26.377  0.00  0.00    -0.298 NA
ATOM      7  C   UNL     1      -4.891   1.841  23.944  0.00  0.00    +0.002 C 
ATOM      8  C   UNL     1      -4.182   0.900  24.958  0.00  0.00    +0.055 C 
ATOM      9  C   UNL     1      -4.727   3.817  25.498  0.00  0.00    +0.070 C 
ATOM     10  C   UNL     1      -4.339   3.273  24.106  0.00  0.00    +0.024 C 
ATOM     11  C   UNL     1      -6.382   1.882  24.343  0.00  0.00    +0.019 C 
ATOM     12  C   UNL     1      -4.239   1.590  26.351  0.00  0.00    +0.094 C 
ATOM     13  C   UNL     1      -6.497   2.233  25.837  0.00  0.00    +0.085 C 
BRANCH   9  15
ATOM     15  C   UNL     1      -3.590   4.620  26.134  0.00  0.00    +0.096 C 
BRANCH  15   5
ATOM      5  N   UNL     1      -2.345   4.411  25.414  0.00  0.00    -0.329 NA
ATOM     27  H   UNL     1      -2.163   5.212  24.811  0.00  0.00    +0.118 HD
ATOM     28  H   UNL     1      -1.562   4.365  26.064  0.00  0.00    +0.118 HD
ENDBRANCH  15   5
ENDBRANCH   9  15
ENDBRANCH  14   8
BRANCH  17  19
ATOM     19  C   UNL     1       0.698   0.257  23.700  0.00  0.00    +0.006 A 
ATOM     20  C   UNL     1       1.534  -0.848  23.547  0.00  0.00    +0.059 A 
ATOM     21  C   UNL     1       1.195   1.543  23.488  0.00  0.00    +0.014 A 
ATOM     22  C   UNL     1       2.868  -0.668  23.180  0.00  0.00    +0.162 A 
ATOM     23  C   UNL     1       2.529   1.723  23.121  0.00  0.00    +0.050 A 
ATOM     24  C   UNL     1       3.365   0.617  22.967  0.00  0.00    +0.162 A 
BRANCH  22   1
ATOM      1  O   UNL     1       3.675  -1.755  23.033  0.00  0.00    -0.491 OA
ATOM     25  C   UNL     1       4.651  -1.979  24.048  0.00  0.00    +0.277 C 
ENDBRANCH  22   1
BRANCH  24   2
ATOM      2  O   UNL     1       4.666   0.807  22.609  0.00  0.00    -0.491 OA
ATOM     26  C   UNL     1       5.632   0.822  23.657  0.00  0.00    +0.277 C 
ENDBRANCH  24   2
ENDBRANCH  17  19
TORSDOF 6
ENDMDL
MODEL 2
REMARK VINA RESULT:       2.6      1.057      1.728
REMARK  Name = 45360422
REMARK  9 active torsions:
REMARK  status: ('A' for Active; 'I' for Inactive)
REMARK    1  A    between atoms: O_1  and  C_22
REMARK    2  A    between atoms: O_1  and  C_25
REMARK    3  A    between atoms: O_2  and  C_24
REMARK    4  A    between atoms: O_2  and  C_26
REMARK    5  A    between atoms: N_4  and  C_18
REMARK    6  A    between atoms: N_5  and  C_15
REMARK    7  A    between atoms: C_8  and  C_14
REMARK    8  A    between atoms: C_9  and  C_15
REMARK    9  A    between atoms: C_17  and  C_19
REMARK                            x       y       z     vdW  Elec       q    Type
REMARK                         _______ _______ _______ _____ _____    ______ ____
ROOT
ATOM      4  N   UNL     1      -2.782  -1.076  24.354  0.00  0.00    -0.270 N 
ATOM      6  N   UNL     1      -1.595  -1.630  24.055  0.00  0.00    -0.171 NA
ATOM     14  C   UNL     1      -2.704   0.245  24.685  0.00  0.00    +0.044 A 
ATOM     16  C   UNL     1      -1.375   0.578  24.597  0.00  0.00    +0.053 A 
ATOM     17  C   UNL     1      -0.739  -0.615  24.204  0.00  0.00    +0.093 A 
ATOM     18  C   UNL     1      -3.973  -1.890  24.304  0.00  0.00    +0.172 C 
ENDROOT
BRANCH  14   8
ATOM      3  N   UNL     1      -4.372   3.365  26.029  0.00  0.00    -0.298 NA
ATOM      7  C   UNL     1      -4.664   1.845  23.934  0.00  0.00    +0.002 C 
ATOM      8  C   UNL     1      -3.921   1.079  25.063  0.00  0.00    +0.055 C 
ATOM      9  C   UNL     1      -3.915   4.084  24.811  0.00  0.00    +0.070 C 
ATOM     10  C   UNL     1      -3.886   3.134  23.595  0.00  0.00    +0.024 C 
ATOM     11  C   UNL     1      -6.028   2.277  24.513  0.00  0.00    +0.019 C 
ATOM     12  C   UNL     1      -3.608   2.103  26.191  0.00  0.00    +0.094 C 
ATOM     13  C   UNL     1      -5.802   3.019  25.842  0.00  0.00    +0.085 C 
BRANCH   9  15
ATOM     15  C   UNL     1      -2.571   4.787  25.019  0.00  0.00    +0.096 C 
BRANCH  15   5
ATOM      5  N   UNL     1      -1.473   3.936  24.592  0.00  0.00    -0.329 NA
ATOM     27  H   UNL     1      -0.754   3.924  25.313  0.00  0.00    +0.118 HD
ATOM     28  H   UNL     1      -1.789   2.972  24.494  0.00  0.00    +0.118 HD
ENDBRANCH  15   5
ENDBRANCH   9  15
ENDBRANCH  14   8
BRANCH  17  19
ATOM     19  C   UNL     1       0.669  -0.804  23.971  0.00  0.00    +0.006 A 
ATOM     20  C   UNL     1       1.342   0.016  23.066  0.00  0.00    +0.059 A 
ATOM     21  C   UNL     1       1.360  -1.810  24.649  0.00  0.00    +0.014 A 
ATOM     22  C   UNL     1       2.707  -0.168  22.839  0.00  0.00    +0.162 A 
ATOM     23  C   UNL     1       2.724  -1.993  24.422  0.00  0.00    +0.050 A 
ATOM     24  C   UNL     1       3.397  -1.171  23.518  0.00  0.00    +0.162 A 
BRANCH  22   1
ATOM      1  O   UNL     1       3.354   0.640  21.954  0.00  0.00    -0.491 OA
ATOM     25  C   UNL     1       4.090   1.735  22.496  0.00  0.00    +0.277 C 
ENDBRANCH  22   1
BRANCH  24   2
ATOM      2  O   UNL     1       4.730  -1.361  23.306  0.00  0.00    -0.491 OA
ATOM     26  C   UNL     1       5.624  -0.813  24.272  0.00  0.00    +0.277 C 
ENDBRANCH  24   2
ENDBRANCH  17  19
TORSDOF 6
ENDMDL
MODEL 3
REMARK VINA RESULT:       3.7      1.688      3.385
REMARK  Name = 45360422
REMARK  9 active torsions:
REMARK  status: ('A' for Active; 'I' for Inactive)
REMARK    1  A    between atoms: O_1  and  C_22
REMARK    2  A    between atoms: O_1  and  C_25
REMARK    3  A    between atoms: O_2  and  C_24
REMARK    4  A    between atoms: O_2  and  C_26
REMARK    5  A    between atoms: N_4  and  C_18
REMARK    6  A    between atoms: N_5  and  C_15
REMARK    7  A    between atoms: C_8  and  C_14
REMARK    8  A    between atoms: C_9  and  C_15
REMARK    9  A    between atoms: C_17  and  C_19
REMARK                            x       y       z     vdW  Elec       q    Type
REMARK                         _______ _______ _______ _____ _____    ______ ____
ROOT
ATOM      4  N   UNL     1      -0.912   2.678  24.383  0.00  0.00    -0.270 N 
ATOM      6  N   UNL     1       0.417   2.678  24.184  0.00  0.00    -0.171 NA
ATOM     14  C   UNL     1      -1.512   1.489  24.089  0.00  0.00    +0.044 A 
ATOM     16  C   UNL     1      -0.507   0.654  23.667  0.00  0.00    +0.053 A 
ATOM     17  C   UNL     1       0.658   1.439  23.748  0.00  0.00    +0.093 A 
ATOM     18  C   UNL     1      -1.553   3.879  24.865  0.00  0.00    +0.172 C 
ENDROOT
BRANCH  14   8
ATOM      3  N   UNL     1      -4.644  -0.618  23.815  0.00  0.00    -0.298 NA
ATOM      7  C   UNL     1      -3.561   0.890  25.642  0.00  0.00    +0.002 C 
ATOM      8  C   UNL     1      -3.010   1.257  24.236  0.00  0.00    +0.055 C 
ATOM      9  C   UNL     1      -4.127  -1.458  24.927  0.00  0.00    +0.070 C 
ATOM     10  C   UNL     1      -3.301  -0.607  25.916  0.00  0.00    +0.024 C 
ATOM     11  C   UNL     1      -5.091   1.082  25.584  0.00  0.00    +0.019 C 
ATOM     12  C   UNL     1      -3.543   0.192  23.235  0.00  0.00    +0.094 C 
ATOM     13  C   UNL     1      -5.654   0.310  24.379  0.00  0.00    +0.085 C 
BRANCH   9  15
ATOM     15  C   UNL     1      -3.340  -2.670  24.423  0.00  0.00    +0.096 C 
BRANCH  15   5
ATOM      5  N   UNL     1      -1.928  -2.540  24.746  0.00  0.00    -0.329 NA
ATOM     27  H   UNL     1      -1.373  -2.691  23.906  0.00  0.00    +0.118 HD
ATOM     28  H   UNL     1      -1.722  -1.591  25.052  0.00  0.00    +0.118 HD
ENDBRANCH  15   5
ENDBRANCH   9  15
ENDBRANCH  14   8
BRANCH  17  19
ATOM     19  C   UNL     1       1.998   1.028  23.413  0.00  0.00    +0.006 A 
ATOM     20  C   UNL     1       2.373  -0.307  23.552  0.00  0.00    +0.059 A 
ATOM     21  C   UNL     1       2.921   1.968  22.952  0.00  0.00    +0.014 A 
ATOM     22  C   UNL     1       3.670  -0.705  23.229  0.00  0.00    +0.162 A 
ATOM     23  C   UNL     1       4.218   1.570  22.628  0.00  0.00    +0.050 A 
ATOM     24  C   UNL     1       4.592   0.233  22.767  0.00  0.00    +0.162 A 
BRANCH  22   1
ATOM      1  O   UNL     1       4.025  -2.013  23.368  0.00  0.00    -0.491 OA
ATOM     25  C   UNL     1       4.972  -2.322  24.388  0.00  0.00    +0.277 C 
ENDBRANCH  22   1
BRANCH  24   2
ATOM      2  O   UNL     1       5.862  -0.143  22.447  0.00  0.00    -0.491 OA
ATOM     26  C   UNL     1       6.857   0.010  23.457  0.00  0.00    +0.277 C 
ENDBRANCH  24   2
ENDBRANCH  17  19
TORSDOF 6
ENDMDL
MODEL 4
REMARK VINA RESULT:       4.0      1.359      3.324
REMARK  Name = 45360422
REMARK  9 active torsions:
REMARK  status: ('A' for Active; 'I' for Inactive)
REMARK    1  A    between atoms: O_1  and  C_22
REMARK    2  A    between atoms: O_1  and  C_25
REMARK    3  A    between atoms: O_2  and  C_24
REMARK    4  A    between atoms: O_2  and  C_26
REMARK    5  A    between atoms: N_4  and  C_18
REMARK    6  A    between atoms: N_5  and  C_15
REMARK    7  A    between atoms: C_8  and  C_14
REMARK    8  A    between atoms: C_9  and  C_15
REMARK    9  A    between atoms: C_17  and  C_19
REMARK                            x       y       z     vdW  Elec       q    Type
REMARK                         _______ _______ _______ _____ _____    ______ ____
ROOT
ATOM      4  N   UNL     1      -0.935   3.974  24.559  0.00  0.00    -0.270 N 
ATOM      6  N   UNL     1       0.265   3.416  24.325  0.00  0.00    -0.171 NA
ATOM     14  C   UNL     1      -1.980   3.107  24.430  0.00  0.00    +0.044 A 
ATOM     16  C   UNL     1      -1.426   1.899  24.086  0.00  0.00    +0.053 A 
ATOM     17  C   UNL     1      -0.042   2.148  24.037  0.00  0.00    +0.093 A 
ATOM     18  C   UNL     1      -1.006   5.374  24.907  0.00  0.00    +0.172 C 
ENDROOT
BRANCH  14   8
ATOM      3  N   UNL     1      -5.715   2.526  24.246  0.00  0.00    -0.298 NA
ATOM      7  C   UNL     1      -4.039   3.342  26.065  0.00  0.00    +0.002 C 
ATOM      8  C   UNL     1      -3.430   3.517  24.646  0.00  0.00    +0.055 C 
ATOM      9  C   UNL     1      -5.564   1.489  25.300  0.00  0.00    +0.070 C 
ATOM     10  C   UNL     1      -4.426   1.862  26.274  0.00  0.00    +0.024 C 
ATOM     11  C   UNL     1      -5.346   4.161  26.093  0.00  0.00    +0.019 C 
ATOM     12  C   UNL     1      -4.395   2.829  23.638  0.00  0.00    +0.094 C 
ATOM     13  C   UNL     1      -6.222   3.761  24.892  0.00  0.00    +0.085 C 
BRANCH   9  15
ATOM     15  C   UNL     1      -5.379   0.087  24.716  0.00  0.00    +0.096 C 
BRANCH  15   5
ATOM      5  N   UNL     1      -4.092  -0.468  25.104  0.00  0.00    -0.329 NA
ATOM     27  H   UNL     1      -3.436  -0.375  24.331  0.00  0.00    +0.118 HD
ATOM     28  H   UNL     1      -3.695   0.066  25.876  0.00  0.00    +0.118 HD
ENDBRANCH  15   5
ENDBRANCH   9  15
ENDBRANCH  14   8
BRANCH  17  19
ATOM     19  C   UNL     1       0.993   1.199  23.718  0.00  0.00    +0.006 A 
ATOM     20  C   UNL     1       2.280   1.645  23.420  0.00  0.00    +0.059 A 
ATOM     21  C   UNL     1       0.708  -0.167  23.706  0.00  0.00    +0.014 A 
ATOM     22  C   UNL     1       3.283   0.726  23.111  0.00  0.00    +0.162 A 
ATOM     23  C   UNL     1       1.711  -1.086  23.397  0.00  0.00    +0.050 A 
ATOM     24  C   UNL     1       2.998  -0.639  23.099  0.00  0.00    +0.162 A 
BRANCH  22   1
ATOM      1  O   UNL     1       4.537   1.173  22.822  0.00  0.00    -0.491 OA
ATOM     25  C   UNL     1       5.573   0.833  23.741  0.00  0.00    +0.277 C 
ENDBRANCH  22   1
BRANCH  24   2
ATOM      2  O   UNL     1       3.969  -1.547  22.799  0.00  0.00    -0.491 OA
ATOM     26  C   UNL     1       4.675  -2.127  23.894  0.00  0.00    +0.277 C 
ENDBRANCH  24   2
ENDBRANCH  17  19
TORSDOF 6
ENDMDL
