MODEL 1
REMARK VINA RESULT:       3.5      0.000      0.000
REMARK  Name = 7127943
REMARK  11 active torsions:
REMARK  status: ('A' for Active; 'I' for Inactive)
REMARK    1  A    between atoms: N_6  and  C_12
REMARK    2  A    between atoms: N_7  and  C_18
REMARK    3  A    between atoms: N_8  and  C_29
REMARK    4  A    between atoms: N_9  and  C_25
REMARK    5  A    between atoms: C_13  and  C_16
REMARK    6  A    between atoms: C_17  and  C_19
REMARK    7  A    between atoms: C_18  and  C_21
REMARK    8  A    between atoms: C_18  and  C_24
REMARK    9  A    between atoms: C_21  and  C_22
REMARK   10  A    between atoms: C_25  and  C_32
REMARK   11  A    between atoms: C_25  and  C_33
REMARK                            x       y       z     vdW  Elec       q    Type
REMARK                         _______ _______ _______ _____ _____    ______ ____
ROOT
ATOM      2  O   UNL     1      -2.832   0.933  23.000  0.00  0.00    -0.268 OA
ATOM      5  N   UNL     1      -1.941   2.797  24.025  0.00  0.00    -0.283 N 
ATOM     12  C   UNL     1      -0.605   4.571  24.881  0.00  0.00    +0.094 C 
ATOM     13  C   UNL     1      -0.789   2.901  23.141  0.00  0.00    +0.164 C 
ATOM     14  C   UNL     1      -0.174   4.266  23.443  0.00  0.00    +0.056 C 
ATOM     15  C   UNL     1      -1.966   3.893  24.997  0.00  0.00    +0.131 C 
ATOM     17  C   UNL     1      -2.929   1.827  23.842  0.00  0.00    +0.264 C 
ENDROOT
BRANCH  12   6
ATOM      3  O   UNL     1      -1.214   2.975  27.207  0.00  0.00    -0.253 OA
ATOM      6  N   UNL     1       0.328   4.065  25.855  0.00  0.00    -0.295 N 
ATOM      9  N   UNL     1       1.046   2.941  27.732  0.00  0.00    -0.297 N 
ATOM     20  C   UNL     1      -0.054   3.297  26.955  0.00  0.00    +0.300 C 
ATOM     38  H   UNL     1       1.304   4.333  25.774  0.00  0.00    +0.151 HD
ATOM     40  H   UNL     1       1.973   3.192  27.400  0.00  0.00    +0.150 HD
BRANCH   9  25
ATOM     25  C   UNL     1       0.933   2.146  28.931  0.00  0.00    +0.068 C 
ATOM     32  C   UNL     1       0.151   2.903  29.997  0.00  0.00    +0.027 C 
ATOM     33  C   UNL     1       2.313   1.745  29.438  0.00  0.00    +0.027 C 
ENDBRANCH   9  25
ENDBRANCH  12   6
BRANCH  17  19
ATOM      8  N   UNL     1      -4.807   3.037  24.974  0.00  0.00    -0.346 N 
ATOM     19  C   UNL     1      -4.084   1.899  24.728  0.00  0.00    +0.104 A 
ATOM     23  C   UNL     1      -4.646   0.876  25.459  0.00  0.00    +0.032 A 
ATOM     27  C   UNL     1      -5.823   2.755  25.850  0.00  0.00    +0.086 A 
ATOM     28  C   UNL     1      -5.746   1.417  26.169  0.00  0.00    +0.020 A 
ATOM     29  C   UNL     1      -4.554   4.342  24.404  0.00  0.00    +0.149 C 
ENDBRANCH  17  19
BRANCH  13  16
ATOM      1  O   UNL     1       1.037   1.904  24.311  0.00  0.00    -0.274 OA
ATOM      7  N   UNL     1      -0.051   0.673  22.661  0.00  0.00    -0.302 N 
ATOM     16  C   UNL     1       0.165   1.788  23.454  0.00  0.00    +0.234 C 
ATOM     39  H   UNL     1      -0.823   0.678  22.000  0.00  0.00    +0.150 HD
BRANCH   7  18
ATOM     18  C   UNL     1       0.749  -0.527  22.749  0.00  0.00    +0.163 C 
BRANCH  18  24
ATOM      4  O   UNL     1       2.351  -0.148  20.963  0.00  0.00    -0.274 OA
ATOM     11  N   UNL     1       3.053   0.095  23.137  0.00  0.00    -0.328 N 
ATOM     24  C   UNL     1       2.115  -0.197  22.168  0.00  0.00    +0.231 C 
ATOM     42  H   UNL     1       4.002   0.346  22.883  0.00  0.00    +0.145 HD
ATOM     43  H   UNL     1       2.837   0.073  24.129  0.00  0.00    +0.145 HD
ENDBRANCH  18  24
BRANCH  18  21
ATOM     21  C   UNL     1       0.887  -1.029  24.192  0.00  0.00    +0.069 C 
BRANCH  21  22
ATOM     10  N   UNL     1      -2.018  -0.637  26.411  0.00  0.00    -0.360 N 
ATOM     22  C   UNL     1      -0.421  -1.066  24.930  0.00  0.00    -0.020 A 
ATOM     26  C   UNL     1      -1.549  -1.876  24.616  0.00  0.00    +0.003 A 
ATOM     30  C   UNL     1      -0.740  -0.315  26.038  0.00  0.00    +0.087 A 
ATOM     31  C   UNL     1      -2.536  -1.587  25.560  0.00  0.00    +0.047 A 
ATOM     34  C   UNL     1      -1.824  -2.830  23.617  0.00  0.00    +0.010 A 
ATOM     35  C   UNL     1      -3.791  -2.208  25.555  0.00  0.00    +0.026 A 
ATOM     36  C   UNL     1      -3.075  -3.458  23.599  0.00  0.00    +0.001 A 
ATOM     37  C   UNL     1      -4.042  -3.150  24.554  0.00  0.00    +0.002 A 
ATOM     41  H   UNL     1      -2.517  -0.223  27.185  0.00  0.00    +0.165 HD
ENDBRANCH  21  22
ENDBRANCH  18  21
ENDBRANCH   7  18
ENDBRANCH  13  16
TORSDOF 8
ENDMDL
MODEL 2
REMARK VINA RESULT:       5.5      0.979      1.671
REMARK  Name = 7127943
REMARK  11 active torsions:
REMARK  status: ('A' for Active; 'I' for Inactive)
REMARK    1  A    between atoms: N_6  and  C_12
REMARK    2  A    between atoms: N_7  and  C_18
REMARK    3  A    between atoms: N_8  and  C_29
REMARK    4  A    between atoms: N_9  and  C_25
REMARK    5  A    between atoms: C_13  and  C_16
REMARK    6  A    between atoms: C_17  and  C_19
REMARK    7  A    between atoms: C_18  and  C_21
REMARK    8  A    between atoms: C_18  and  C_24
REMARK    9  A    between atoms: C_21  and  C_22
REMARK   10  A    between atoms: C_25  and  C_32
REMARK   11  A    between atoms: C_25  and  C_33
REMARK                            x       y       z     vdW  Elec       q    Type
REMARK                         _______ _______ _______ _____ _____    ______ ____
ROOT
ATOM      2  O   UNL     1      -2.987   1.009  23.117  0.00  0.00    -0.268 OA
ATOM      5  N   UNL     1      -1.991   2.872  24.044  0.00  0.00    -0.283 N 
ATOM     12  C   UNL     1      -0.558   4.615  24.799  0.00  0.00    +0.094 C 
ATOM     13  C   UNL     1      -0.850   2.878  23.141  0.00  0.00    +0.164 C 
ATOM     14  C   UNL     1      -0.164   4.224  23.371  0.00  0.00    +0.056 C 
ATOM     15  C   UNL     1      -1.948   4.010  24.965  0.00  0.00    +0.131 C 
ATOM     17  C   UNL     1      -3.028   1.944  23.919  0.00  0.00    +0.264 C 
ENDROOT
BRANCH  12   6
ATOM      3  O   UNL     1      -1.185   2.977  27.091  0.00  0.00    -0.253 OA
ATOM      6  N   UNL     1       0.365   4.107  25.783  0.00  0.00    -0.295 N 
ATOM      9  N   UNL     1       1.065   2.967  27.656  0.00  0.00    -0.297 N 
ATOM     20  C   UNL     1      -0.026   3.319  26.864  0.00  0.00    +0.300 C 
ATOM     38  H   UNL     1       1.338   4.391  25.724  0.00  0.00    +0.151 HD
ATOM     40  H   UNL     1       1.994   3.236  27.346  0.00  0.00    +0.150 HD
BRANCH   9  25
ATOM     25  C   UNL     1       0.941   2.153  28.842  0.00  0.00    +0.068 C 
ATOM     32  C   UNL     1       0.124   2.881  29.901  0.00  0.00    +0.027 C 
ATOM     33  C   UNL     1       2.317   1.771  29.373  0.00  0.00    +0.027 C 
ENDBRANCH   9  25
ENDBRANCH  12   6
BRANCH  17  19
ATOM      8  N   UNL     1      -5.166   1.192  24.987  0.00  0.00    -0.346 N 
ATOM     19  C   UNL     1      -4.164   2.113  24.816  0.00  0.00    +0.104 A 
ATOM     23  C   UNL     1      -4.437   3.190  25.630  0.00  0.00    +0.032 A 
ATOM     27  C   UNL     1      -6.073   1.665  25.898  0.00  0.00    +0.086 A 
ATOM     28  C   UNL     1      -5.645   2.907  26.315  0.00  0.00    +0.020 A 
ATOM     29  C   UNL     1      -5.265  -0.086  24.318  0.00  0.00    +0.149 C 
ENDBRANCH  17  19
BRANCH  13  16
ATOM      1  O   UNL     1       0.549   1.620  24.610  0.00  0.00    -0.274 OA
ATOM      7  N   UNL     1       0.260   0.881  22.421  0.00  0.00    -0.302 N 
ATOM     16  C   UNL     1       0.054   1.735  23.492  0.00  0.00    +0.234 C 
ATOM     39  H   UNL     1      -0.224   1.059  21.546  0.00  0.00    +0.150 HD
BRANCH   7  18
ATOM     18  C   UNL     1       1.110  -0.285  22.492  0.00  0.00    +0.163 C 
BRANCH  18  24
ATOM      4  O   UNL     1       3.119   0.105  21.183  0.00  0.00    -0.274 OA
ATOM     11  N   UNL     1       3.096   0.768  23.382  0.00  0.00    -0.328 N 
ATOM     24  C   UNL     1       2.538   0.188  22.262  0.00  0.00    +0.231 C 
ATOM     42  H   UNL     1       4.040   1.139  23.360  0.00  0.00    +0.145 HD
ATOM     43  H   UNL     1       2.595   0.851  24.260  0.00  0.00    +0.145 HD
ENDBRANCH  18  24
BRANCH  18  21
ATOM     21  C   UNL     1       0.995  -1.007  23.840  0.00  0.00    +0.069 C 
BRANCH  21  22
ATOM     10  N   UNL     1      -1.938  -3.217  23.680  0.00  0.00    -0.360 N 
ATOM     22  C   UNL     1      -0.298  -1.756  23.998  0.00  0.00    -0.020 A 
ATOM     26  C   UNL     1      -1.309  -1.508  24.969  0.00  0.00    +0.003 A 
ATOM     30  C   UNL     1      -0.714  -2.813  23.221  0.00  0.00    +0.087 A 
ATOM     31  C   UNL     1      -2.326  -2.438  24.748  0.00  0.00    +0.047 A 
ATOM     34  C   UNL     1      -1.455  -0.578  26.017  0.00  0.00    +0.010 A 
ATOM     35  C   UNL     1      -3.488  -2.485  25.526  0.00  0.00    +0.026 A 
ATOM     36  C   UNL     1      -2.613  -0.614  26.804  0.00  0.00    +0.001 A 
ATOM     37  C   UNL     1      -3.612  -1.554  26.560  0.00  0.00    +0.002 A 
ATOM     41  H   UNL     1      -2.472  -3.988  23.305  0.00  0.00    +0.165 HD
ENDBRANCH  21  22
ENDBRANCH  18  21
ENDBRANCH   7  18
ENDBRANCH  13  16
TORSDOF 8
ENDMDL
MODEL 3
REMARK VINA RESULT:       6.3      1.920      4.295
REMARK  Name = 7127943
REMARK  11 active torsions:
REMARK  status: ('A' for Active; 'I' for Inactive)
REMARK    1  A    between atoms: N_6  and  C_12
REMARK    2  A    between atoms: N_7  and  C_18
REMARK    3  A    between atoms: N_8  and  C_29
REMARK    4  A    between atoms: N_9  and  C_25
REMARK    5  A    between atoms: C_13  and  C_16
REMARK    6  A    between atoms: C_17  and  C_19
REMARK    7  A    between atoms: C_18  and  C_21
REMARK    8  A    between atoms: C_18  and  C_24
REMARK    9  A    between atoms: C_21  and  C_22
REMARK   10  A    between atoms: C_25  and  C_32
REMARK   11  A    between atoms: C_25  and  C_33
REMARK                            x       y       z     vdW  Elec       q    Type
REMARK                         _______ _______ _______ _____ _____    ______ ____
ROOT
ATOM      2  O   UNL     1      -4.410   1.701  23.507  0.00  0.00    -0.268 OA
ATOM      5  N   UNL     1      -2.665   2.784  24.558  0.00  0.00    -0.283 N 
ATOM     12  C   UNL     1      -0.620   3.493  25.546  0.00  0.00    +0.094 C 
ATOM     13  C   UNL     1      -1.618   1.987  23.937  0.00  0.00    +0.164 C 
ATOM     14  C   UNL     1      -0.315   2.716  24.261  0.00  0.00    +0.056 C 
ATOM     15  C   UNL     1      -2.102   3.829  25.416  0.00  0.00    +0.131 C 
ATOM     17  C   UNL     1      -4.015   2.609  24.239  0.00  0.00    +0.264 C 
ENDROOT
BRANCH  12   6
ATOM      3  O   UNL     1       1.729   3.642  27.216  0.00  0.00    -0.253 OA
ATOM      6  N   UNL     1      -0.349   2.723  26.733  0.00  0.00    -0.295 N 
ATOM      9  N   UNL     1       0.822   1.996  28.577  0.00  0.00    -0.297 N 
ATOM     20  C   UNL     1       0.818   2.859  27.484  0.00  0.00    +0.300 C 
ATOM     38  H   UNL     1      -1.008   1.999  27.001  0.00  0.00    +0.151 HD
ATOM     40  H   UNL     1      -0.010   1.440  28.756  0.00  0.00    +0.150 HD
BRANCH   9  25
ATOM     25  C   UNL     1       1.913   1.932  29.520  0.00  0.00    +0.068 C 
ATOM     32  C   UNL     1       1.398   2.129  30.940  0.00  0.00    +0.027 C 
ATOM     33  C   UNL     1       2.981   2.962  29.172  0.00  0.00    +0.027 C 
ENDBRANCH   9  25
ENDBRANCH  12   6
BRANCH  17  19
ATOM      8  N   UNL     1      -5.891   3.205  25.787  0.00  0.00    -0.346 N 
ATOM     19  C   UNL     1      -4.953   3.543  24.847  0.00  0.00    +0.104 A 
ATOM     23  C   UNL     1      -5.071   4.894  24.601  0.00  0.00    +0.032 A 
ATOM     27  C   UNL     1      -6.606   4.318  26.145  0.00  0.00    +0.086 A 
ATOM     28  C   UNL     1      -6.116   5.384  25.422  0.00  0.00    +0.020 A 
ATOM     29  C   UNL     1      -6.107   1.882  26.330  0.00  0.00    +0.149 C 
ENDBRANCH  17  19
BRANCH  13  16
ATOM      1  O   UNL     1      -2.638   0.158  25.082  0.00  0.00    -0.274 OA
ATOM      7  N   UNL     1      -0.421  -0.036  24.399  0.00  0.00    -0.302 N 
ATOM     16  C   UNL     1      -1.639   0.611  24.531  0.00  0.00    +0.234 C 
ATOM     39  H   UNL     1       0.333   0.425  23.898  0.00  0.00    +0.150 HD
BRANCH   7  18
ATOM     18  C   UNL     1      -0.172  -1.365  24.908  0.00  0.00    +0.163 C 
BRANCH  18  24
ATOM      4  O   UNL     1      -1.614  -2.720  23.498  0.00  0.00    -0.274 OA
ATOM     11  N   UNL     1      -2.233  -2.365  25.682  0.00  0.00    -0.328 N 
ATOM     24  C   UNL     1      -1.403  -2.203  24.592  0.00  0.00    +0.231 C 
ATOM     42  H   UNL     1      -3.083  -2.915  25.610  0.00  0.00    +0.145 HD
ATOM     43  H   UNL     1      -2.033  -1.950  26.586  0.00  0.00    +0.145 HD
ENDBRANCH  18  24
BRANCH  18  21
ATOM     21  C   UNL     1       1.081  -1.999  24.291  0.00  0.00    +0.069 C 
BRANCH  21  22
ATOM     10  N   UNL     1       2.445   0.549  22.020  0.00  0.00    -0.360 N 
ATOM     22  C   UNL     1       1.891  -1.030  23.479  0.00  0.00    -0.020 A 
ATOM     26  C   UNL     1       3.300  -0.840  23.541  0.00  0.00    +0.003 A 
ATOM     30  C   UNL     1       1.393  -0.161  22.534  0.00  0.00    +0.087 A 
ATOM     31  C   UNL     1       3.622   0.155  22.617  0.00  0.00    +0.047 A 
ATOM     34  C   UNL     1       4.335  -1.423  24.299  0.00  0.00    +0.010 A 
ATOM     35  C   UNL     1       4.933   0.599  22.410  0.00  0.00    +0.026 A 
ATOM     36  C   UNL     1       5.652  -0.989  24.103  0.00  0.00    +0.001 A 
ATOM     37  C   UNL     1       5.943   0.007  23.173  0.00  0.00    +0.002 A 
ATOM     41  H   UNL     1       2.369   1.271  21.318  0.00  0.00    +0.165 HD
ENDBRANCH  21  22
ENDBRANCH  18  21
ENDBRANCH   7  18
ENDBRANCH  13  16
TORSDOF 8
ENDMDL
