MODEL 1
REMARK VINA RESULT:       1.1      0.000      0.000
REMARK  Name = 40533523
REMARK  5 active torsions:
REMARK  status: ('A' for Active; 'I' for Inactive)
REMARK    1  A    between atoms: N_5  and  C_19
REMARK    2  A    between atoms: N_5  and  C_22
REMARK    3  A    between atoms: N_5  and  C_23
REMARK    4  A    between atoms: C_16  and  C_19
REMARK    5  A    between atoms: C_17  and  C_20
REMARK                            x       y       z     vdW  Elec       q    Type
REMARK                         _______ _______ _______ _____ _____    ______ ____
ROOT
ATOM      1  O   UNL     1       1.028   1.848  25.213  0.00  0.00    -0.267 OA
ATOM      2  O   UNL     1      -3.203  -0.915  26.970  0.00  0.00    -0.274 OA
ATOM      3  N   UNL     1      -3.732   0.260  25.037  0.00  0.00    -0.299 N 
ATOM      4  N   UNL     1      -1.021   1.673  24.113  0.00  0.00    -0.311 N 
ATOM      7  C   UNL     1      -3.177   2.695  25.045  0.00  0.00    +0.027 C 
ATOM      8  C   UNL     1      -3.229   1.463  22.917  0.00  0.00    +0.054 C 
ATOM      9  C   UNL     1      -3.601   2.786  23.583  0.00  0.00    +0.018 C 
ATOM     10  C   UNL     1      -3.899   1.531  25.745  0.00  0.00    +0.113 C 
ATOM     11  C   UNL     1      -1.651   2.549  25.110  0.00  0.00    +0.130 C 
ATOM     12  C   UNL     1      -3.999   0.311  23.591  0.00  0.00    +0.117 C 
ATOM     13  C   UNL     1      -1.736   1.205  23.008  0.00  0.00    +0.027 A 
ATOM     14  C   UNL     1      -1.110   0.507  22.047  0.00  0.00    +0.022 A 
ATOM     15  C   UNL     1       0.356   1.424  24.271  0.00  0.00    +0.259 A 
ATOM     16  C   UNL     1      -3.423  -0.894  25.756  0.00  0.00    +0.230 C 
ATOM     17  C   UNL     1       1.022   0.608  23.196  0.00  0.00    +0.048 A 
ATOM     18  C   UNL     1       0.289   0.202  22.150  0.00  0.00    +0.015 A 
ENDROOT
BRANCH  17  20
ATOM      6  N   UNL     1       4.131  -1.413  23.787  0.00  0.00    -0.263 NA
ATOM     20  C   UNL     1       2.448   0.248  23.283  0.00  0.00    +0.005 A 
ATOM     21  C   UNL     1       3.441   1.169  22.967  0.00  0.00    +0.011 A 
ATOM     24  C   UNL     1       2.842  -1.018  23.685  0.00  0.00    +0.119 A 
ATOM     25  C   UNL     1       4.779   0.801  23.060  0.00  0.00    +0.020 A 
ATOM     26  C   UNL     1       5.068  -0.490  23.471  0.00  0.00    +0.111 A 
ENDBRANCH  17  20
BRANCH  16  19
ATOM     19  C   UNL     1      -3.355  -2.180  24.973  0.00  0.00    +0.180 C 
BRANCH  19   5
ATOM      5  N   UNL     1      -2.092  -2.158  24.267  0.00  0.00    -0.300 NA
ATOM     22  C   UNL     1      -1.855  -3.429  23.572  0.00  0.00    +0.105 C 
ATOM     23  C   UNL     1      -0.981  -1.876  25.182  0.00  0.00    +0.105 C 
ENDBRANCH  19   5
ENDBRANCH  16  19
TORSDOF 3
ENDMDL
MODEL 2
REMARK VINA RESULT:       1.2      2.807      3.755
REMARK  Name = 40533523
REMARK  5 active torsions:
REMARK  status: ('A' for Active; 'I' for Inactive)
REMARK    1  A    between atoms: N_5  and  C_19
REMARK    2  A    between atoms: N_5  and  C_22
REMARK    3  A    between atoms: N_5  and  C_23
REMARK    4  A    between atoms: C_16  and  C_19
REMARK    5  A    between atoms: C_17  and  C_20
REMARK                            x       y       z     vdW  Elec       q    Type
REMARK                         _______ _______ _______ _____ _____    ______ ____
ROOT
ATOM      1  O   UNL     1      -1.852   3.534  27.449  0.00  0.00    -0.267 OA
ATOM      2  O   UNL     1      -4.941  -0.494  25.760  0.00  0.00    -0.274 OA
ATOM      3  N   UNL     1      -4.057   0.677  23.958  0.00  0.00    -0.299 N 
ATOM      4  N   UNL     1      -2.142   2.897  25.224  0.00  0.00    -0.311 N 
ATOM      7  C   UNL     1      -4.375   3.154  23.997  0.00  0.00    +0.027 C 
ATOM      8  C   UNL     1      -2.440   2.190  22.824  0.00  0.00    +0.054 C 
ATOM      9  C   UNL     1      -3.514   3.273  22.744  0.00  0.00    +0.018 C 
ATOM     10  C   UNL     1      -5.032   1.764  24.070  0.00  0.00    +0.113 C 
ATOM     11  C   UNL     1      -3.505   3.445  25.226  0.00  0.00    +0.130 C 
ATOM     12  C   UNL     1      -3.108   0.801  22.842  0.00  0.00    +0.117 C 
ATOM     13  C   UNL     1      -1.580   2.363  24.062  0.00  0.00    +0.027 A 
ATOM     14  C   UNL     1      -0.293   1.979  24.051  0.00  0.00    +0.022 A 
ATOM     15  C   UNL     1      -1.402   3.038  26.415  0.00  0.00    +0.259 A 
ATOM     16  C   UNL     1      -4.135  -0.409  24.829  0.00  0.00    +0.230 C 
ATOM     17  C   UNL     1       0.025   2.565  26.382  0.00  0.00    +0.048 A 
ATOM     18  C   UNL     1       0.516   2.078  25.233  0.00  0.00    +0.015 A 
ENDROOT
BRANCH  17  20
ATOM      6  N   UNL     1       3.022   3.142  28.571  0.00  0.00    -0.263 NA
ATOM     20  C   UNL     1       0.877   2.621  27.583  0.00  0.00    +0.005 A 
ATOM     21  C   UNL     1       0.391   2.229  28.826  0.00  0.00    +0.011 A 
ATOM     24  C   UNL     1       2.187   3.066  27.509  0.00  0.00    +0.119 A 
ATOM     25  C   UNL     1       1.219   2.293  29.942  0.00  0.00    +0.020 A 
ATOM     26  C   UNL     1       2.514   2.752  29.762  0.00  0.00    +0.111 A 
ENDBRANCH  17  20
BRANCH  16  19
ATOM     19  C   UNL     1      -3.156  -1.532  24.598  0.00  0.00    +0.180 C 
BRANCH  19   5
ATOM      5  N   UNL     1      -1.843  -0.984  24.856  0.00  0.00    -0.300 NA
ATOM     22  C   UNL     1      -0.793  -1.856  24.316  0.00  0.00    +0.105 C 
ATOM     23  C   UNL     1      -1.630  -0.779  26.294  0.00  0.00    +0.105 C 
ENDBRANCH  19   5
ENDBRANCH  16  19
TORSDOF 3
ENDMDL
