MODEL 1
REMARK VINA RESULT:      -1.9      0.000      0.000
REMARK  Name = 11884077
REMARK  8 active torsions:
REMARK  status: ('A' for Active; 'I' for Inactive)
REMARK    1  A    between atoms: S_1  and  N_10
REMARK    2  A    between atoms: S_1  and  C_19
REMARK    3  A    between atoms: O_5  and  C_15
REMARK    4  A    between atoms: O_5  and  C_18
REMARK    5  A    between atoms: O_9  and  C_28
REMARK    6  A    between atoms: O_9  and  C_29
REMARK    7  A    between atoms: N_10  and  C_14
REMARK    8  A    between atoms: N_11  and  C_23
REMARK                            x       y       z     vdW  Elec       q    Type
REMARK                         _______ _______ _______ _____ _____    ______ ____
ROOT
ATOM      3  O   UNL     1      -6.740  -9.060  11.346  0.00  0.00    -0.369 OA
ATOM      4  O   UNL     1      -9.158  -9.896   9.639  0.00  0.00    -0.368 OA
ATOM     12  C   UNL     1      -8.581 -10.466  10.832  0.00  0.00    +0.171 C 
ATOM     13  C   UNL     1      -7.079 -10.306  10.714  0.00  0.00    +0.191 C 
ATOM     14  C   UNL     1      -8.944  -9.625  12.031  0.00  0.00    +0.133 C 
ATOM     15  C   UNL     1      -6.871 -10.249   9.220  0.00  0.00    +0.235 C 
ATOM     16  C   UNL     1      -7.901  -8.524  11.998  0.00  0.00    +0.183 C 
ATOM     17  C   UNL     1      -8.099  -9.500   8.755  0.00  0.00    +0.207 C 
ENDROOT
BRANCH  14  10
ATOM     10  N   UNL     1      -8.795 -10.421  13.272  0.00  0.00    -0.182 NA
ATOM     30  H   UNL     1      -7.923 -10.960  13.357  0.00  0.00    +0.149 HD
BRANCH  10   1
ATOM      1  S   UNL     1      -9.518  -9.818  14.699  0.00  0.00    +0.065 S 
ATOM      6  O   UNL     1     -10.717 -10.578  14.991  0.00  0.00    -0.153 OA
ATOM      7  O   UNL     1      -9.540  -8.369  14.636  0.00  0.00    -0.153 OA
BRANCH   1  19
ATOM      2  S   UNL     1      -6.757  -9.933  15.653  0.00  0.00    -0.077 S 
ATOM     19  C   UNL     1      -8.392 -10.163  16.052  0.00  0.00    +0.142 A 
ATOM     20  C   UNL     1      -8.599 -10.571  17.326  0.00  0.00    +0.036 A 
ATOM     21  C   UNL     1      -7.366 -10.707  18.026  0.00  0.00    +0.010 A 
ATOM     22  C   UNL     1      -6.284 -10.392  17.234  0.00  0.00    +0.047 A 
ENDBRANCH   1  19
ENDBRANCH  10   1
ENDBRANCH  14  10
BRANCH  15   5
ATOM      5  O   UNL     1      -5.678  -9.601   8.841  0.00  0.00    -0.442 OA
BRANCH   5  18
ATOM      8  O   UNL     1      -3.603 -10.559   8.839  0.00  0.00    -0.226 OA
ATOM     11  N   UNL     1      -4.577  -9.742  10.804  0.00  0.00    -0.251 N 
ATOM     18  C   UNL     1      -4.517 -10.023   9.453  0.00  0.00    +0.405 C 
ATOM     31  H   UNL     1      -5.427  -9.288  11.130  0.00  0.00    +0.158 HD
BRANCH  11  23
ATOM     23  C   UNL     1      -3.603 -10.006  11.793  0.00  0.00    +0.037 A 
ATOM     24  C   UNL     1      -2.265  -9.789  11.504  0.00  0.00    +0.027 A 
ATOM     25  C   UNL     1      -4.005 -10.479  13.033  0.00  0.00    +0.027 A 
ATOM     26  C   UNL     1      -1.304 -10.051  12.480  0.00  0.00    +0.047 A 
ATOM     27  C   UNL     1      -3.043 -10.741  14.009  0.00  0.00    +0.047 A 
ATOM     28  C   UNL     1      -1.693 -10.526  13.733  0.00  0.00    +0.120 A 
BRANCH  28   9
ATOM      9  O   UNL     1      -0.755 -10.780  14.685  0.00  0.00    -0.495 OA
ATOM     29  C   UNL     1      -1.106 -10.486  16.037  0.00  0.00    +0.277 C 
ENDBRANCH  28   9
ENDBRANCH  11  23
ENDBRANCH   5  18
ENDBRANCH  15   5
TORSDOF 7
ENDMDL
MODEL 2
REMARK VINA RESULT:      -0.7      2.476      6.709
REMARK  Name = 11884077
REMARK  8 active torsions:
REMARK  status: ('A' for Active; 'I' for Inactive)
REMARK    1  A    between atoms: S_1  and  N_10
REMARK    2  A    between atoms: S_1  and  C_19
REMARK    3  A    between atoms: O_5  and  C_15
REMARK    4  A    between atoms: O_5  and  C_18
REMARK    5  A    between atoms: O_9  and  C_28
REMARK    6  A    between atoms: O_9  and  C_29
REMARK    7  A    between atoms: N_10  and  C_14
REMARK    8  A    between atoms: N_11  and  C_23
REMARK                            x       y       z     vdW  Elec       q    Type
REMARK                         _______ _______ _______ _____ _____    ______ ____
ROOT
ATOM      3  O   UNL     1      -5.265 -10.236   9.695  0.00  0.00    -0.369 OA
ATOM      4  O   UNL     1      -4.792  -7.301  10.482  0.00  0.00    -0.368 OA
ATOM     12  C   UNL     1      -4.227  -8.532  10.979  0.00  0.00    +0.171 C 
ATOM     13  C   UNL     1      -5.338  -9.564  10.963  0.00  0.00    +0.191 C 
ATOM     14  C   UNL     1      -3.218  -9.069   9.994  0.00  0.00    +0.133 C 
ATOM     15  C   UNL     1      -6.579  -8.711  11.074  0.00  0.00    +0.235 C 
ATOM     16  C   UNL     1      -4.083  -9.816   8.998  0.00  0.00    +0.183 C 
ATOM     17  C   UNL     1      -6.198  -7.489  10.269  0.00  0.00    +0.207 C 
ENDROOT
BRANCH  14  10
ATOM     10  N   UNL     1      -2.302 -10.016  10.673  0.00  0.00    -0.182 NA
ATOM     30  H   UNL     1      -2.140 -10.909  10.188  0.00  0.00    +0.149 HD
BRANCH  10   1
ATOM      1  S   UNL     1      -1.035  -9.364  11.617  0.00  0.00    +0.065 S 
ATOM      6  O   UNL     1      -1.081  -7.916  11.553  0.00  0.00    -0.153 OA
ATOM      7  O   UNL     1       0.185 -10.094  11.330  0.00  0.00    -0.153 OA
BRANCH   1  19
ATOM      2  S   UNL     1      -2.749 -10.761  13.528  0.00  0.00    -0.077 S 
ATOM     19  C   UNL     1      -1.379  -9.778  13.328  0.00  0.00    +0.142 A 
ATOM     20  C   UNL     1      -0.755  -9.455  14.484  0.00  0.00    +0.036 A 
ATOM     21  C   UNL     1      -1.420 -10.034  15.603  0.00  0.00    +0.010 A 
ATOM     22  C   UNL     1      -2.522 -10.770  15.225  0.00  0.00    +0.047 A 
ENDBRANCH   1  19
ENDBRANCH  10   1
ENDBRANCH  14  10
BRANCH  15   5
ATOM      5  O   UNL     1      -7.738  -9.337  10.572  0.00  0.00    -0.442 OA
BRANCH   5  18
ATOM      8  O   UNL     1      -9.825 -10.053  11.173  0.00  0.00    -0.226 OA
ATOM     11  N   UNL     1      -8.164  -9.632  12.768  0.00  0.00    -0.251 N 
ATOM     18  C   UNL     1      -8.694  -9.711  11.494  0.00  0.00    +0.405 C 
ATOM     31  H   UNL     1      -7.196  -9.325  12.832  0.00  0.00    +0.158 HD
BRANCH  11  23
ATOM     23  C   UNL     1      -8.800  -9.925  13.995  0.00  0.00    +0.037 A 
ATOM     24  C   UNL     1      -8.120  -9.704  15.182  0.00  0.00    +0.027 A 
ATOM     25  C   UNL     1     -10.092 -10.428  13.988  0.00  0.00    +0.027 A 
ATOM     26  C   UNL     1      -8.748  -9.994  16.393  0.00  0.00    +0.047 A 
ATOM     27  C   UNL     1     -10.719 -10.718  15.199  0.00  0.00    +0.047 A 
ATOM     28  C   UNL     1     -10.048 -10.500  16.402  0.00  0.00    +0.120 A 
BRANCH  28   9
ATOM      9  O   UNL     1     -10.661 -10.781  17.584  0.00  0.00    -0.495 OA
ATOM     29  C   UNL     1      -9.941 -10.475  18.778  0.00  0.00    +0.277 C 
ENDBRANCH  28   9
ENDBRANCH  11  23
ENDBRANCH   5  18
ENDBRANCH  15   5
TORSDOF 7
ENDMDL
MODEL 3
REMARK VINA RESULT:      -0.3     15.069     17.138
REMARK  Name = 11884077
REMARK  8 active torsions:
REMARK  status: ('A' for Active; 'I' for Inactive)
REMARK    1  A    between atoms: S_1  and  N_10
REMARK    2  A    between atoms: S_1  and  C_19
REMARK    3  A    between atoms: O_5  and  C_15
REMARK    4  A    between atoms: O_5  and  C_18
REMARK    5  A    between atoms: O_9  and  C_28
REMARK    6  A    between atoms: O_9  and  C_29
REMARK    7  A    between atoms: N_10  and  C_14
REMARK    8  A    between atoms: N_11  and  C_23
REMARK                            x       y       z     vdW  Elec       q    Type
REMARK                         _______ _______ _______ _____ _____    ______ ____
ROOT
ATOM      3  O   UNL     1      -2.672   0.901  23.862  0.00  0.00    -0.369 OA
ATOM      4  O   UNL     1      -5.054  -0.914  24.564  0.00  0.00    -0.368 OA
ATOM     12  C   UNL     1      -4.366   0.105  25.320  0.00  0.00    +0.171 C 
ATOM     13  C   UNL     1      -2.897   0.003  24.960  0.00  0.00    +0.191 C 
ATOM     14  C   UNL     1      -4.767   1.472  24.825  0.00  0.00    +0.133 C 
ATOM     15  C   UNL     1      -2.762  -1.441  24.539  0.00  0.00    +0.235 C 
ATOM     16  C   UNL     1      -3.856   1.679  23.631  0.00  0.00    +0.183 C 
ATOM     17  C   UNL     1      -4.085  -1.698  23.853  0.00  0.00    +0.207 C 
ENDROOT
BRANCH  14  10
ATOM     10  N   UNL     1      -4.477   2.492  25.861  0.00  0.00    -0.182 NA
ATOM     30  H   UNL     1      -4.395   2.140  26.824  0.00  0.00    +0.149 HD
BRANCH  10   1
ATOM      1  S   UNL     1      -3.537   3.846  25.408  0.00  0.00    +0.065 S 
ATOM      6  O   UNL     1      -3.655   4.876  26.420  0.00  0.00    -0.153 OA
ATOM      7  O   UNL     1      -3.777   4.133  24.007  0.00  0.00    -0.153 OA
BRANCH   1  19
ATOM      2  S   UNL     1      -0.952   3.758  24.047  0.00  0.00    -0.077 S 
ATOM     19  C   UNL     1      -1.818   3.335  25.444  0.00  0.00    +0.142 A 
ATOM     20  C   UNL     1      -1.085   2.677  26.372  0.00  0.00    +0.036 A 
ATOM     21  C   UNL     1       0.259   2.502  25.932  0.00  0.00    +0.010 A 
ATOM     22  C   UNL     1       0.468   3.043  24.683  0.00  0.00    +0.047 A 
ENDBRANCH   1  19
ENDBRANCH  10   1
ENDBRANCH  14  10
BRANCH  15   5
ATOM      5  O   UNL     1      -1.667  -1.678  23.684  0.00  0.00    -0.442 OA
BRANCH   5  18
ATOM      8  O   UNL     1      -0.122  -1.429  25.352  0.00  0.00    -0.226 OA
ATOM     11  N   UNL     1       0.389  -0.940  23.120  0.00  0.00    -0.251 N 
ATOM     18  C   UNL     1      -0.417  -1.349  24.166  0.00  0.00    +0.405 C 
ATOM     31  H   UNL     1      -0.039  -0.942  22.198  0.00  0.00    +0.158 HD
BRANCH  11  23
ATOM     23  C   UNL     1       1.737  -0.518  23.173  0.00  0.00    +0.037 A 
ATOM     24  C   UNL     1       2.715  -1.418  23.564  0.00  0.00    +0.027 A 
ATOM     25  C   UNL     1       2.053   0.789  22.834  0.00  0.00    +0.027 A 
ATOM     26  C   UNL     1       4.045  -1.000  23.617  0.00  0.00    +0.047 A 
ATOM     27  C   UNL     1       3.383   1.206  22.887  0.00  0.00    +0.047 A 
ATOM     28  C   UNL     1       4.379   0.311  23.278  0.00  0.00    +0.120 A 
BRANCH  28   9
ATOM      9  O   UNL     1       5.677   0.717  23.328  0.00  0.00    -0.495 OA
ATOM     29  C   UNL     1       6.654  -0.270  23.655  0.00  0.00    +0.277 C 
ENDBRANCH  28   9
ENDBRANCH  11  23
ENDBRANCH   5  18
ENDBRANCH  15   5
TORSDOF 7
ENDMDL
MODEL 4
REMARK VINA RESULT:      -0.1     15.173     17.052
REMARK  Name = 11884077
REMARK  8 active torsions:
REMARK  status: ('A' for Active; 'I' for Inactive)
REMARK    1  A    between atoms: S_1  and  N_10
REMARK    2  A    between atoms: S_1  and  C_19
REMARK    3  A    between atoms: O_5  and  C_15
REMARK    4  A    between atoms: O_5  and  C_18
REMARK    5  A    between atoms: O_9  and  C_28
REMARK    6  A    between atoms: O_9  and  C_29
REMARK    7  A    between atoms: N_10  and  C_14
REMARK    8  A    between atoms: N_11  and  C_23
REMARK                            x       y       z     vdW  Elec       q    Type
REMARK                         _______ _______ _______ _____ _____    ______ ____
ROOT
ATOM      3  O   UNL     1      -2.979   0.389  23.854  0.00  0.00    -0.369 OA
ATOM      4  O   UNL     1      -3.421  -2.347  25.189  0.00  0.00    -0.368 OA
ATOM     12  C   UNL     1      -3.405  -1.007  25.725  0.00  0.00    +0.171 C 
ATOM     13  C   UNL     1      -2.334  -0.244  24.970  0.00  0.00    +0.191 C 
ATOM     14  C   UNL     1      -4.683  -0.292  25.362  0.00  0.00    +0.133 C 
ATOM     15  C   UNL     1      -1.399  -1.344  24.527  0.00  0.00    +0.235 C 
ATOM     16  C   UNL     1      -4.400   0.216  23.962  0.00  0.00    +0.183 C 
ATOM     17  C   UNL     1      -2.357  -2.478  24.236  0.00  0.00    +0.207 C 
ENDROOT
BRANCH  14  10
ATOM     10  N   UNL     1      -4.901   0.853  26.278  0.00  0.00    -0.182 NA
ATOM     30  H   UNL     1      -4.319   0.865  27.125  0.00  0.00    +0.149 HD
BRANCH  10   1
ATOM      1  S   UNL     1      -5.365   2.348  25.590  0.00  0.00    +0.065 S 
ATOM      6  O   UNL     1      -6.210   3.067  26.523  0.00  0.00    -0.153 OA
ATOM      7  O   UNL     1      -5.777   2.123  24.218  0.00  0.00    -0.153 OA
BRANCH   1  19
ATOM      2  S   UNL     1      -3.516   3.764  23.823  0.00  0.00    -0.077 S 
ATOM     19  C   UNL     1      -3.880   3.341  25.427  0.00  0.00    +0.142 A 
ATOM     20  C   UNL     1      -2.999   3.814  26.338  0.00  0.00    +0.036 A 
ATOM     21  C   UNL     1      -1.965   4.565  25.707  0.00  0.00    +0.010 A 
ATOM     22  C   UNL     1      -2.124   4.616  24.340  0.00  0.00    +0.047 A 
ENDBRANCH   1  19
ENDBRANCH  10   1
ENDBRANCH  14  10
BRANCH  15   5
ATOM      5  O   UNL     1      -0.623  -1.003  23.401  0.00  0.00    -0.442 OA
BRANCH   5  18
ATOM      8  O   UNL     1       0.501   0.855  24.116  0.00  0.00    -0.226 OA
ATOM     11  N   UNL     1       1.627  -1.000  23.238  0.00  0.00    -0.251 N 
ATOM     18  C   UNL     1       0.522  -0.269  23.631  0.00  0.00    +0.405 C 
ATOM     31  H   UNL     1       1.441  -1.924  22.855  0.00  0.00    +0.158 HD
BRANCH  11  23
ATOM     23  C   UNL     1       2.988  -0.622  23.300  0.00  0.00    +0.037 A 
ATOM     24  C   UNL     1       3.379   0.596  22.769  0.00  0.00    +0.027 A 
ATOM     25  C   UNL     1       3.904  -1.479  23.891  0.00  0.00    +0.027 A 
ATOM     26  C   UNL     1       4.722   0.968  22.831  0.00  0.00    +0.047 A 
ATOM     27  C   UNL     1       5.247  -1.107  23.952  0.00  0.00    +0.047 A 
ATOM     28  C   UNL     1       5.656   0.117  23.422  0.00  0.00    +0.120 A 
BRANCH  28   9
ATOM      9  O   UNL     1       6.965   0.481  23.484  0.00  0.00    -0.495 OA
ATOM     29  C   UNL     1       7.921  -0.439  22.957  0.00  0.00    +0.277 C 
ENDBRANCH  28   9
ENDBRANCH  11  23
ENDBRANCH   5  18
ENDBRANCH  15   5
TORSDOF 7
ENDMDL
MODEL 5
REMARK VINA RESULT:       0.3      3.006      3.788
REMARK  Name = 11884077
REMARK  8 active torsions:
REMARK  status: ('A' for Active; 'I' for Inactive)
REMARK    1  A    between atoms: S_1  and  N_10
REMARK    2  A    between atoms: S_1  and  C_19
REMARK    3  A    between atoms: O_5  and  C_15
REMARK    4  A    between atoms: O_5  and  C_18
REMARK    5  A    between atoms: O_9  and  C_28
REMARK    6  A    between atoms: O_9  and  C_29
REMARK    7  A    between atoms: N_10  and  C_14
REMARK    8  A    between atoms: N_11  and  C_23
REMARK                            x       y       z     vdW  Elec       q    Type
REMARK                         _______ _______ _______ _____ _____    ______ ____
ROOT
ATOM      3  O   UNL     1      -4.767  -8.539  11.467  0.00  0.00    -0.369 OA
ATOM      4  O   UNL     1      -6.563 -10.781  10.366  0.00  0.00    -0.368 OA
ATOM     12  C   UNL     1      -6.286 -10.345  11.713  0.00  0.00    +0.171 C 
ATOM     13  C   UNL     1      -4.825  -9.945  11.756  0.00  0.00    +0.191 C 
ATOM     14  C   UNL     1      -7.023  -9.060  12.000  0.00  0.00    +0.133 C 
ATOM     15  C   UNL     1      -4.227 -10.770  10.641  0.00  0.00    +0.235 C 
ATOM     16  C   UNL     1      -6.099  -8.006  11.422  0.00  0.00    +0.183 C 
ATOM     17  C   UNL     1      -5.339 -10.775   9.617  0.00  0.00    +0.207 C 
ENDROOT
BRANCH  14  10
ATOM     10  N   UNL     1      -7.153  -8.866  13.464  0.00  0.00    -0.182 NA
ATOM     30  H   UNL     1      -7.168  -7.889  13.787  0.00  0.00    +0.149 HD
BRANCH  10   1
ATOM      1  S   UNL     1      -8.045 -10.027  14.347  0.00  0.00    +0.065 S 
ATOM      6  O   UNL     1      -7.146 -10.781  15.198  0.00  0.00    -0.153 OA
ATOM      7  O   UNL     1      -8.967 -10.691  13.446  0.00  0.00    -0.153 OA
BRANCH   1  19
ATOM      2  S   UNL     1      -9.260  -9.844  17.000  0.00  0.00    -0.077 S 
ATOM     19  C   UNL     1      -9.122  -9.129  15.465  0.00  0.00    +0.142 A 
ATOM     20  C   UNL     1      -9.844  -7.994  15.316  0.00  0.00    +0.036 A 
ATOM     21  C   UNL     1     -10.553  -7.679  16.511  0.00  0.00    +0.010 A 
ATOM     22  C   UNL     1     -10.325  -8.603  17.507  0.00  0.00    +0.047 A 
ENDBRANCH   1  19
ENDBRANCH  10   1
ENDBRANCH  14  10
BRANCH  15   5
ATOM      5  O   UNL     1      -3.030 -10.234  10.123  0.00  0.00    -0.442 OA
BRANCH   5  18
ATOM      8  O   UNL     1      -2.099 -10.189  12.211  0.00  0.00    -0.226 OA
ATOM     11  N   UNL     1      -1.149  -9.024  10.416  0.00  0.00    -0.251 N 
ATOM     18  C   UNL     1      -2.076  -9.838  11.038  0.00  0.00    +0.405 C 
ATOM     31  H   UNL     1      -1.301  -8.846   9.427  0.00  0.00    +0.158 HD
BRANCH  11  23
ATOM     23  C   UNL     1      -0.013  -8.406  10.986  0.00  0.00    +0.037 A 
ATOM     24  C   UNL     1       1.248  -8.737  10.516  0.00  0.00    +0.027 A 
ATOM     25  C   UNL     1      -0.182  -7.481  12.004  0.00  0.00    +0.027 A 
ATOM     26  C   UNL     1       2.369  -8.127  11.079  0.00  0.00    +0.047 A 
ATOM     27  C   UNL     1       0.939  -6.870  12.567  0.00  0.00    +0.047 A 
ATOM     28  C   UNL     1       2.214  -7.193  12.104  0.00  0.00    +0.120 A 
BRANCH  28   9
ATOM      9  O   UNL     1       3.308  -6.597  12.651  0.00  0.00    -0.495 OA
ATOM     29  C   UNL     1       4.562  -7.257  12.480  0.00  0.00    +0.277 C 
ENDBRANCH  28   9
ENDBRANCH  11  23
ENDBRANCH   5  18
ENDBRANCH  15   5
TORSDOF 7
ENDMDL
MODEL 6
REMARK VINA RESULT:       0.7      1.423      2.141
REMARK  Name = 11884077
REMARK  8 active torsions:
REMARK  status: ('A' for Active; 'I' for Inactive)
REMARK    1  A    between atoms: S_1  and  N_10
REMARK    2  A    between atoms: S_1  and  C_19
REMARK    3  A    between atoms: O_5  and  C_15
REMARK    4  A    between atoms: O_5  and  C_18
REMARK    5  A    between atoms: O_9  and  C_28
REMARK    6  A    between atoms: O_9  and  C_29
REMARK    7  A    between atoms: N_10  and  C_14
REMARK    8  A    between atoms: N_11  and  C_23
REMARK                            x       y       z     vdW  Elec       q    Type
REMARK                         _______ _______ _______ _____ _____    ______ ____
ROOT
ATOM      3  O   UNL     1      -5.652  -8.966  11.985  0.00  0.00    -0.369 OA
ATOM      4  O   UNL     1      -7.471 -10.609  10.127  0.00  0.00    -0.368 OA
ATOM     12  C   UNL     1      -7.151 -10.747  11.527  0.00  0.00    +0.171 C 
ATOM     13  C   UNL     1      -5.691 -10.370  11.684  0.00  0.00    +0.191 C 
ATOM     14  C   UNL     1      -7.885  -9.700  12.328  0.00  0.00    +0.133 C 
ATOM     15  C   UNL     1      -5.127 -10.665  10.314  0.00  0.00    +0.235 C 
ATOM     16  C   UNL     1      -6.987  -8.485  12.197  0.00  0.00    +0.183 C 
ATOM     17  C   UNL     1      -6.274 -10.279   9.408  0.00  0.00    +0.207 C 
ENDROOT
BRANCH  14  10
ATOM     10  N   UNL     1      -7.965 -10.114  13.749  0.00  0.00    -0.182 NA
ATOM     30  H   UNL     1      -7.076 -10.390  14.186  0.00  0.00    +0.149 HD
BRANCH  10   1
ATOM      1  S   UNL     1      -9.158  -9.379  14.729  0.00  0.00    +0.065 S 
ATOM      6  O   UNL     1     -10.470  -9.840  14.319  0.00  0.00    -0.153 OA
ATOM      7  O   UNL     1      -8.858  -7.965  14.849  0.00  0.00    -0.153 OA
BRANCH   1  19
ATOM      2  S   UNL     1     -10.388 -10.236  17.239  0.00  0.00    -0.077 S 
ATOM     19  C   UNL     1      -8.932 -10.000  16.396  0.00  0.00    +0.142 A 
ATOM     20  C   UNL     1      -7.824 -10.314  17.106  0.00  0.00    +0.036 A 
ATOM     21  C   UNL     1      -8.166 -10.774  18.411  0.00  0.00    +0.010 A 
ATOM     22  C   UNL     1      -9.528 -10.781  18.616  0.00  0.00    +0.047 A 
ENDBRANCH   1  19
ENDBRANCH  10   1
ENDBRANCH  14  10
BRANCH  15   5
ATOM      5  O   UNL     1      -3.953  -9.943  10.022  0.00  0.00    -0.442 OA
BRANCH   5  18
ATOM      8  O   UNL     1      -1.914  -9.334  10.859  0.00  0.00    -0.226 OA
ATOM     11  N   UNL     1      -3.525 -10.387  12.192  0.00  0.00    -0.251 N 
ATOM     18  C   UNL     1      -3.015  -9.842  11.029  0.00  0.00    +0.405 C 
ATOM     31  H   UNL     1      -4.468 -10.763  12.135  0.00  0.00    +0.158 HD
BRANCH  11  23
ATOM     23  C   UNL     1      -2.897 -10.487  13.454  0.00  0.00    +0.037 A 
ATOM     24  C   UNL     1      -3.675 -10.677  14.585  0.00  0.00    +0.027 A 
ATOM     25  C   UNL     1      -1.517 -10.393  13.535  0.00  0.00    +0.027 A 
ATOM     26  C   UNL     1      -3.054 -10.775  15.831  0.00  0.00    +0.047 A 
ATOM     27  C   UNL     1      -0.897 -10.492  14.782  0.00  0.00    +0.047 A 
ATOM     28  C   UNL     1      -1.666 -10.683  15.929  0.00  0.00    +0.120 A 
BRANCH  28   9
ATOM      9  O   UNL     1      -1.062 -10.781  17.144  0.00  0.00    -0.495 OA
ATOM     29  C   UNL     1      -0.105  -9.776  17.477  0.00  0.00    +0.277 C 
ENDBRANCH  28   9
ENDBRANCH  11  23
ENDBRANCH   5  18
ENDBRANCH  15   5
TORSDOF 7
ENDMDL
MODEL 7
REMARK VINA RESULT:       1.1     15.094     17.910
REMARK  Name = 11884077
REMARK  8 active torsions:
REMARK  status: ('A' for Active; 'I' for Inactive)
REMARK    1  A    between atoms: S_1  and  N_10
REMARK    2  A    between atoms: S_1  and  C_19
REMARK    3  A    between atoms: O_5  and  C_15
REMARK    4  A    between atoms: O_5  and  C_18
REMARK    5  A    between atoms: O_9  and  C_28
REMARK    6  A    between atoms: O_9  and  C_29
REMARK    7  A    between atoms: N_10  and  C_14
REMARK    8  A    between atoms: N_11  and  C_23
REMARK                            x       y       z     vdW  Elec       q    Type
REMARK                         _______ _______ _______ _____ _____    ______ ____
ROOT
ATOM      3  O   UNL     1      -1.829  -1.031  23.524  0.00  0.00    -0.369 OA
ATOM      4  O   UNL     1      -0.922  -1.086  26.462  0.00  0.00    -0.368 OA
ATOM     12  C   UNL     1      -0.297  -1.567  25.254  0.00  0.00    +0.171 C 
ATOM     13  C   UNL     1      -1.403  -2.110  24.372  0.00  0.00    +0.191 C 
ATOM     14  C   UNL     1       0.260  -0.407  24.466  0.00  0.00    +0.133 C 
ATOM     15  C   UNL     1      -2.467  -2.486  25.375  0.00  0.00    +0.235 C 
ATOM     16  C   UNL     1      -0.948   0.089  23.697  0.00  0.00    +0.183 C 
ATOM     17  C   UNL     1      -2.321  -1.401  26.417  0.00  0.00    +0.207 C 
ENDROOT
BRANCH  14  10
ATOM     10  N   UNL     1       1.295  -0.888  23.520  0.00  0.00    -0.182 NA
ATOM     30  H   UNL     1       1.074  -1.757  23.018  0.00  0.00    +0.149 HD
BRANCH  10   1
ATOM      1  S   UNL     1       2.261   0.282  22.731  0.00  0.00    +0.065 S 
ATOM      6  O   UNL     1       1.905   1.604  23.209  0.00  0.00    -0.153 OA
ATOM      7  O   UNL     1       2.298  -0.023  21.313  0.00  0.00    -0.153 OA
BRANCH   1  19
ATOM      2  S   UNL     1       4.244  -1.540  23.867  0.00  0.00    -0.077 S 
ATOM     19  C   UNL     1       3.953   0.020  23.262  0.00  0.00    +0.142 A 
ATOM     20  C   UNL     1       5.038   0.830  23.272  0.00  0.00    +0.036 A 
ATOM     21  C   UNL     1       6.176   0.153  23.799  0.00  0.00    +0.010 A 
ATOM     22  C   UNL     1       5.884  -1.144  24.162  0.00  0.00    +0.047 A 
ENDBRANCH   1  19
ENDBRANCH  10   1
ENDBRANCH  14  10
BRANCH  15   5
ATOM      5  O   UNL     1      -3.767  -2.527  24.829  0.00  0.00    -0.442 OA
BRANCH   5  18
ATOM      8  O   UNL     1      -5.053  -1.220  23.463  0.00  0.00    -0.226 OA
ATOM     11  N   UNL     1      -3.902  -0.323  25.293  0.00  0.00    -0.251 N 
ATOM     18  C   UNL     1      -4.315  -1.324  24.435  0.00  0.00    +0.405 C 
ATOM     31  H   UNL     1      -3.285  -0.608  26.050  0.00  0.00    +0.158 HD
BRANCH  11  23
ATOM     23  C   UNL     1      -4.230   1.051  25.251  0.00  0.00    +0.037 A 
ATOM     24  C   UNL     1      -3.253   1.972  24.910  0.00  0.00    +0.027 A 
ATOM     25  C   UNL     1      -5.523   1.450  25.551  0.00  0.00    +0.027 A 
ATOM     26  C   UNL     1      -3.577   3.328  24.869  0.00  0.00    +0.047 A 
ATOM     27  C   UNL     1      -5.847   2.806  25.509  0.00  0.00    +0.047 A 
ATOM     28  C   UNL     1      -4.874   3.745  25.168  0.00  0.00    +0.120 A 
BRANCH  28   9
ATOM      9  O   UNL     1      -5.190   5.068  25.126  0.00  0.00    -0.495 OA
ATOM     29  C   UNL     1      -6.532   5.426  25.456  0.00  0.00    +0.277 C 
ENDBRANCH  28   9
ENDBRANCH  11  23
ENDBRANCH   5  18
ENDBRANCH  15   5
TORSDOF 7
ENDMDL
MODEL 8
REMARK VINA RESULT:       1.4     14.824     17.864
REMARK  Name = 11884077
REMARK  8 active torsions:
REMARK  status: ('A' for Active; 'I' for Inactive)
REMARK    1  A    between atoms: S_1  and  N_10
REMARK    2  A    between atoms: S_1  and  C_19
REMARK    3  A    between atoms: O_5  and  C_15
REMARK    4  A    between atoms: O_5  and  C_18
REMARK    5  A    between atoms: O_9  and  C_28
REMARK    6  A    between atoms: O_9  and  C_29
REMARK    7  A    between atoms: N_10  and  C_14
REMARK    8  A    between atoms: N_11  and  C_23
REMARK                            x       y       z     vdW  Elec       q    Type
REMARK                         _______ _______ _______ _____ _____    ______ ____
ROOT
ATOM      3  O   UNL     1      -2.127   2.114  24.392  0.00  0.00    -0.369 OA
ATOM      4  O   UNL     1      -0.741   4.833  24.779  0.00  0.00    -0.368 OA
ATOM     12  C   UNL     1      -0.383   3.502  25.206  0.00  0.00    +0.171 C 
ATOM     13  C   UNL     1      -1.673   2.796  25.573  0.00  0.00    +0.191 C 
ATOM     14  C   UNL     1       0.145   2.710  24.035  0.00  0.00    +0.133 C 
ATOM     15  C   UNL     1      -2.582   3.943  25.941  0.00  0.00    +0.235 C 
ATOM     16  C   UNL     1      -1.122   2.205  23.372  0.00  0.00    +0.183 C 
ATOM     17  C   UNL     1      -2.151   5.016  24.966  0.00  0.00    +0.207 C 
ENDROOT
BRANCH  14  10
ATOM     10  N   UNL     1       0.949   1.563  24.520  0.00  0.00    -0.182 NA
ATOM     30  H   UNL     1       0.927   1.398  25.535  0.00  0.00    +0.149 HD
BRANCH  10   1
ATOM      1  S   UNL     1       1.127   0.216  23.482  0.00  0.00    +0.065 S 
ATOM      6  O   UNL     1       0.792   0.605  22.126  0.00  0.00    -0.153 OA
ATOM      7  O   UNL     1       0.516  -0.940  24.109  0.00  0.00    -0.153 OA
BRANCH   1  19
ATOM      2  S   UNL     1       3.848   1.022  22.781  0.00  0.00    -0.077 S 
ATOM     19  C   UNL     1       2.871  -0.198  23.444  0.00  0.00    +0.142 A 
ATOM     20  C   UNL     1       3.553  -1.298  23.843  0.00  0.00    +0.036 A 
ATOM     21  C   UNL     1       4.949  -1.149  23.601  0.00  0.00    +0.010 A 
ATOM     22  C   UNL     1       5.247   0.066  23.026  0.00  0.00    +0.047 A 
ENDBRANCH   1  19
ENDBRANCH  10   1
ENDBRANCH  14  10
BRANCH  15   5
ATOM      5  O   UNL     1      -3.953   3.637  25.821  0.00  0.00    -0.442 OA
BRANCH   5  18
ATOM      8  O   UNL     1      -5.008   2.525  24.125  0.00  0.00    -0.226 OA
ATOM     11  N   UNL     1      -3.663   1.405  25.679  0.00  0.00    -0.251 N 
ATOM     18  C   UNL     1      -4.279   2.502  25.109  0.00  0.00    +0.405 C 
ATOM     31  H   UNL     1      -3.090   1.588  26.499  0.00  0.00    +0.158 HD
BRANCH  11  23
ATOM     23  C   UNL     1      -3.730   0.055  25.265  0.00  0.00    +0.037 A 
ATOM     24  C   UNL     1      -4.341  -0.255  24.061  0.00  0.00    +0.027 A 
ATOM     25  C   UNL     1      -3.184  -0.931  26.072  0.00  0.00    +0.027 A 
ATOM     26  C   UNL     1      -4.407  -1.588  23.652  0.00  0.00    +0.047 A 
ATOM     27  C   UNL     1      -3.251  -2.263  25.663  0.00  0.00    +0.047 A 
ATOM     28  C   UNL     1      -3.862  -2.591  24.453  0.00  0.00    +0.120 A 
BRANCH  28   9
ATOM      9  O   UNL     1      -3.926  -3.891  24.054  0.00  0.00    -0.495 OA
ATOM     29  C   UNL     1      -2.940  -4.332  23.120  0.00  0.00    +0.277 C 
ENDBRANCH  28   9
ENDBRANCH  11  23
ENDBRANCH   5  18
ENDBRANCH  15   5
TORSDOF 7
ENDMDL
