MODEL 1
REMARK VINA RESULT:      -0.2      0.000      0.000
REMARK  Name = 24094071
REMARK  12 active torsions:
REMARK  status: ('A' for Active; 'I' for Inactive)
REMARK    1  A    between atoms: O_1  and  C_14
REMARK    2  A    between atoms: O_1  and  C_23
REMARK    3  A    between atoms: O_2  and  C_15
REMARK    4  A    between atoms: O_3  and  C_19
REMARK    5  A    between atoms: N_6  and  C_25
REMARK    6  A    between atoms: N_7  and  C_24
REMARK    7  A    between atoms: C_8  and  C_18
REMARK    8  A    between atoms: C_10  and  C_19
REMARK    9  A    between atoms: C_10  and  C_20
REMARK   10  A    between atoms: C_11  and  C_21
REMARK   11  A    between atoms: C_21  and  C_22
REMARK   12  A    between atoms: C_25  and  C_31
REMARK                            x       y       z     vdW  Elec       q    Type
REMARK                         _______ _______ _______ _____ _____    ______ ____
ROOT
ATOM      8  C   UNL     1      -1.292   2.920  24.978  0.00  0.00    -0.023 C 
ATOM      9  C   UNL     1      -2.026   1.639  24.413  0.00  0.00    +0.007 C 
ATOM     10  C   UNL     1      -1.073   0.388  24.159  0.00  0.00    +0.031 C 
ATOM     11  C   UNL     1      -2.267   4.168  25.023  0.00  0.00    +0.032 C 
ATOM     12  C   UNL     1      -0.071   3.242  24.069  0.00  0.00    +0.011 C 
ATOM     13  C   UNL     1      -2.830   1.975  23.120  0.00  0.00    +0.007 C 
ATOM     14  C   UNL     1       0.160   0.820  23.315  0.00  0.00    +0.186 C 
ATOM     15  C   UNL     1      -2.956   4.419  23.669  0.00  0.00    +0.119 C 
ATOM     16  C   UNL     1       0.873   2.060  23.855  0.00  0.00    +0.046 C 
ATOM     17  C   UNL     1      -3.731   3.196  23.218  0.00  0.00    +0.032 C 
ATOM     18  C   UNL     1      -0.767   2.718  26.425  0.00  0.00    +0.012 C 
ATOM     20  C   UNL     1      -1.830  -0.735  23.395  0.00  0.00    +0.017 C 
ENDROOT
BRANCH  15   2
ATOM      2  O   UNL     1      -3.853   5.524  23.741  0.00  0.00    -0.391 OA
ATOM     37  H   UNL     1      -3.549   6.195  23.106  0.00  0.00    +0.210 HD
ENDBRANCH  15   2
BRANCH  14   1
ATOM      1  O   UNL     1       1.129  -0.225  23.232  0.00  0.00    -0.446 OA
BRANCH   1  23
ATOM      5  O   UNL     1       2.344  -0.069  21.290  0.00  0.00    -0.226 OA
ATOM      7  N   UNL     1       3.256   0.494  23.348  0.00  0.00    -0.278 N 
ATOM     23  C   UNL     1       2.255   0.056  22.506  0.00  0.00    +0.401 C 
ATOM     40  H   UNL     1       3.058   0.505  24.343  0.00  0.00    +0.152 HD
BRANCH   7  24
ATOM     24  C   UNL     1       4.576   0.873  22.894  0.00  0.00    +0.076 C 
ATOM     26  C   UNL     1       5.434   1.378  24.059  0.00  0.00    +0.022 C 
ATOM     27  C   UNL     1       5.261  -0.286  22.161  0.00  0.00    +0.022 C 
ATOM     28  C   UNL     1       5.858   0.254  25.004  0.00  0.00    +0.002 C 
ATOM     29  C   UNL     1       5.686  -1.407  23.110  0.00  0.00    +0.002 C 
ATOM     30  C   UNL     1       6.548  -0.881  24.253  0.00  0.00    +0.000 C 
ENDBRANCH   7  24
ENDBRANCH   1  23
ENDBRANCH  14   1
BRANCH  10  19
ATOM     19  C   UNL     1      -0.634  -0.280  25.486  0.00  0.00    +0.166 C 
BRANCH  19   3
ATOM      3  O   UNL     1      -0.116  -1.553  25.171  0.00  0.00    -0.394 OA
ATOM     38  H   UNL     1      -0.591  -1.872  24.385  0.00  0.00    +0.209 HD
ENDBRANCH  19   3
ENDBRANCH  10  19
BRANCH  11  21
ATOM     21  C   UNL     1      -3.315   4.083  26.157  0.00  0.00    +0.102 C 
BRANCH  21  22
ATOM      4  O   UNL     1      -5.587   3.841  25.359  0.00  0.00    -0.276 OA
ATOM      6  N   UNL     1      -4.309   1.950  25.802  0.00  0.00    -0.311 N 
ATOM     22  C   UNL     1      -4.538   3.317  25.724  0.00  0.00    +0.214 C 
ATOM     39  H   UNL     1      -3.403   1.610  26.111  0.00  0.00    +0.149 HD
BRANCH   6  25
ATOM     25  C   UNL     1      -5.303   0.962  25.452  0.00  0.00    +0.139 C 
BRANCH  25  31
ATOM     31  C   UNL     1      -4.689  -0.390  25.207  0.00  0.00    -0.030 A 
ATOM     32  C   UNL     1      -4.907  -1.045  23.996  0.00  0.00    +0.005 A 
ATOM     33  C   UNL     1      -3.900  -0.987  26.191  0.00  0.00    +0.005 A 
ATOM     34  C   UNL     1      -4.337  -2.299  23.768  0.00  0.00    +0.000 A 
ATOM     35  C   UNL     1      -3.331  -2.240  25.963  0.00  0.00    +0.000 A 
ATOM     36  C   UNL     1      -3.549  -2.895  24.752  0.00  0.00    +0.000 A 
ENDBRANCH  25  31
ENDBRANCH   6  25
ENDBRANCH  21  22
ENDBRANCH  11  21
TORSDOF 10
ENDMDL
MODEL 2
REMARK VINA RESULT:       0.5      1.203      1.748
REMARK  Name = 24094071
REMARK  12 active torsions:
REMARK  status: ('A' for Active; 'I' for Inactive)
REMARK    1  A    between atoms: O_1  and  C_14
REMARK    2  A    between atoms: O_1  and  C_23
REMARK    3  A    between atoms: O_2  and  C_15
REMARK    4  A    between atoms: O_3  and  C_19
REMARK    5  A    between atoms: N_6  and  C_25
REMARK    6  A    between atoms: N_7  and  C_24
REMARK    7  A    between atoms: C_8  and  C_18
REMARK    8  A    between atoms: C_10  and  C_19
REMARK    9  A    between atoms: C_10  and  C_20
REMARK   10  A    between atoms: C_11  and  C_21
REMARK   11  A    between atoms: C_21  and  C_22
REMARK   12  A    between atoms: C_25  and  C_31
REMARK                            x       y       z     vdW  Elec       q    Type
REMARK                         _______ _______ _______ _____ _____    ______ ____
ROOT
ATOM      8  C   UNL     1      -2.601   3.617  25.684  0.00  0.00    -0.023 C 
ATOM      9  C   UNL     1      -2.531   2.314  24.791  0.00  0.00    +0.007 C 
ATOM     10  C   UNL     1      -1.089   1.641  24.715  0.00  0.00    +0.031 C 
ATOM     11  C   UNL     1      -4.012   4.326  25.555  0.00  0.00    +0.032 C 
ATOM     12  C   UNL     1      -1.480   4.597  25.231  0.00  0.00    +0.011 C 
ATOM     13  C   UNL     1      -3.077   2.584  23.355  0.00  0.00    +0.007 C 
ATOM     14  C   UNL     1      -0.022   2.709  24.339  0.00  0.00    +0.186 C 
ATOM     15  C   UNL     1      -4.406   4.580  24.088  0.00  0.00    +0.119 C 
ATOM     16  C   UNL     1      -0.086   3.973  25.196  0.00  0.00    +0.046 C 
ATOM     17  C   UNL     1      -4.424   3.286  23.298  0.00  0.00    +0.032 C 
ATOM     18  C   UNL     1      -2.392   3.320  27.193  0.00  0.00    +0.012 C 
ATOM     20  C   UNL     1      -1.064   0.514  23.644  0.00  0.00    +0.017 C 
ENDROOT
BRANCH  15   2
ATOM      2  O   UNL     1      -5.692   5.186  23.995  0.00  0.00    -0.391 OA
ATOM     37  H   UNL     1      -6.253   4.609  23.450  0.00  0.00    +0.210 HD
ENDBRANCH  15   2
BRANCH  14   1
ATOM      1  O   UNL     1       1.302   2.187  24.450  0.00  0.00    -0.446 OA
BRANCH   1  23
ATOM      5  O   UNL     1       0.893   0.604  22.838  0.00  0.00    -0.226 OA
ATOM      7  N   UNL     1       3.050   1.272  23.371  0.00  0.00    -0.278 N 
ATOM     23  C   UNL     1       1.676   1.288  23.489  0.00  0.00    +0.401 C 
ATOM     40  H   UNL     1       3.580   1.859  24.008  0.00  0.00    +0.152 HD
BRANCH   7  24
ATOM     24  C   UNL     1       3.766   0.427  22.441  0.00  0.00    +0.076 C 
ATOM     26  C   UNL     1       5.282   0.586  22.609  0.00  0.00    +0.022 C 
ATOM     27  C   UNL     1       3.342  -1.038  22.589  0.00  0.00    +0.022 C 
ATOM     28  C   UNL     1       5.797  -0.049  23.900  0.00  0.00    +0.002 C 
ATOM     29  C   UNL     1       3.861  -1.670  23.880  0.00  0.00    +0.002 C 
ATOM     30  C   UNL     1       5.372  -1.509  24.018  0.00  0.00    +0.000 C 
ENDBRANCH   7  24
ENDBRANCH   1  23
ENDBRANCH  14   1
BRANCH  10  19
ATOM     19  C   UNL     1      -0.717   0.923  26.036  0.00  0.00    +0.166 C 
BRANCH  19   3
ATOM      3  O   UNL     1      -0.170  -0.332  25.700  0.00  0.00    -0.394 OA
ATOM     38  H   UNL     1       0.775  -0.305  25.927  0.00  0.00    +0.209 HD
ENDBRANCH  19   3
ENDBRANCH  10  19
BRANCH  11  21
ATOM     21  C   UNL     1      -5.141   3.575  26.298  0.00  0.00    +0.102 C 
BRANCH  21  22
ATOM      4  O   UNL     1      -6.820   2.747  24.763  0.00  0.00    -0.276 OA
ATOM      6  N   UNL     1      -5.088   1.355  25.443  0.00  0.00    -0.311 N 
ATOM     22  C   UNL     1      -5.798   2.547  25.413  0.00  0.00    +0.214 C 
ATOM     39  H   UNL     1      -4.246   1.286  26.007  0.00  0.00    +0.149 HD
BRANCH   6  25
ATOM     25  C   UNL     1      -5.480   0.184  24.693  0.00  0.00    +0.139 C 
BRANCH  25  31
ATOM     31  C   UNL     1      -4.452  -0.912  24.785  0.00  0.00    -0.030 A 
ATOM     32  C   UNL     1      -3.651  -1.023  25.921  0.00  0.00    +0.005 A 
ATOM     33  C   UNL     1      -4.300  -1.817  23.734  0.00  0.00    +0.005 A 
ATOM     34  C   UNL     1      -2.698  -2.038  26.007  0.00  0.00    +0.000 A 
ATOM     35  C   UNL     1      -3.347  -2.832  23.820  0.00  0.00    +0.000 A 
ATOM     36  C   UNL     1      -2.546  -2.942  24.956  0.00  0.00    +0.000 A 
ENDBRANCH  25  31
ENDBRANCH   6  25
ENDBRANCH  21  22
ENDBRANCH  11  21
TORSDOF 10
ENDMDL
MODEL 3
REMARK VINA RESULT:       2.8      1.608      4.109
REMARK  Name = 24094071
REMARK  12 active torsions:
REMARK  status: ('A' for Active; 'I' for Inactive)
REMARK    1  A    between atoms: O_1  and  C_14
REMARK    2  A    between atoms: O_1  and  C_23
REMARK    3  A    between atoms: O_2  and  C_15
REMARK    4  A    between atoms: O_3  and  C_19
REMARK    5  A    between atoms: N_6  and  C_25
REMARK    6  A    between atoms: N_7  and  C_24
REMARK    7  A    between atoms: C_8  and  C_18
REMARK    8  A    between atoms: C_10  and  C_19
REMARK    9  A    between atoms: C_10  and  C_20
REMARK   10  A    between atoms: C_11  and  C_21
REMARK   11  A    between atoms: C_21  and  C_22
REMARK   12  A    between atoms: C_25  and  C_31
REMARK                            x       y       z     vdW  Elec       q    Type
REMARK                         _______ _______ _______ _____ _____    ______ ____
ROOT
ATOM      8  C   UNL     1      -3.321   0.241  23.876  0.00  0.00    -0.023 C 
ATOM      9  C   UNL     1      -2.383  -0.326  25.016  0.00  0.00    +0.007 C 
ATOM     10  C   UNL     1      -0.933   0.330  25.065  0.00  0.00    +0.031 C 
ATOM     11  C   UNL     1      -4.667  -0.589  23.774  0.00  0.00    +0.032 C 
ATOM     12  C   UNL     1      -2.562   0.175  22.520  0.00  0.00    +0.011 C 
ATOM     13  C   UNL     1      -2.271  -1.879  24.932  0.00  0.00    +0.007 C 
ATOM     14  C   UNL     1      -0.283   0.295  23.652  0.00  0.00    +0.186 C 
ATOM     15  C   UNL     1      -4.411  -2.102  23.644  0.00  0.00    +0.119 C 
ATOM     16  C   UNL     1      -1.187   0.840  22.545  0.00  0.00    +0.046 C 
ATOM     17  C   UNL     1      -3.595  -2.618  24.813  0.00  0.00    +0.032 C 
ATOM     18  C   UNL     1      -3.732   1.718  24.120  0.00  0.00    +0.012 C 
ATOM     20  C   UNL     1      -0.014  -0.442  26.054  0.00  0.00    +0.017 C 
ENDROOT
BRANCH  15   2
ATOM      2  O   UNL     1      -5.634  -2.831  23.588  0.00  0.00    -0.391 OA
ATOM     37  H   UNL     1      -6.354  -2.223  23.826  0.00  0.00    +0.210 HD
ENDBRANCH  15   2
BRANCH  14   1
ATOM      1  O   UNL     1       0.932   1.044  23.616  0.00  0.00    -0.446 OA
BRANCH   1  23
ATOM      5  O   UNL     1       1.755  -0.237  21.898  0.00  0.00    -0.226 OA
ATOM      7  N   UNL     1       3.154   0.995  23.279  0.00  0.00    -0.278 N 
ATOM     23  C   UNL     1       1.933   0.528  22.840  0.00  0.00    +0.401 C 
ATOM     40  H   UNL     1       3.158   1.589  24.103  0.00  0.00    +0.152 HD
BRANCH   7  24
ATOM     24  C   UNL     1       4.417   0.636  22.671  0.00  0.00    +0.076 C 
ATOM     26  C   UNL     1       5.595   1.142  23.511  0.00  0.00    +0.022 C 
ATOM     27  C   UNL     1       4.507  -0.876  22.442  0.00  0.00    +0.022 C 
ATOM     28  C   UNL     1       5.765   0.359  24.812  0.00  0.00    +0.002 C 
ATOM     29  C   UNL     1       4.680  -1.656  23.745  0.00  0.00    +0.002 C 
ATOM     30  C   UNL     1       5.865  -1.142  24.557  0.00  0.00    +0.000 C 
ENDBRANCH   7  24
ENDBRANCH   1  23
ENDBRANCH  14   1
BRANCH  10  19
ATOM     19  C   UNL     1      -0.971   1.773  25.626  0.00  0.00    +0.166 C 
BRANCH  19   3
ATOM      3  O   UNL     1       0.318   2.080  26.104  0.00  0.00    -0.394 OA
ATOM     38  H   UNL     1       0.956   1.641  25.516  0.00  0.00    +0.209 HD
ENDBRANCH  19   3
ENDBRANCH  10  19
BRANCH  11  21
ATOM     21  C   UNL     1      -5.650  -0.303  24.933  0.00  0.00    +0.102 C 
BRANCH  21  22
ATOM      4  O   UNL     1      -6.872   1.691  24.310  0.00  0.00    -0.276 OA
ATOM      6  N   UNL     1      -5.234   1.806  25.956  0.00  0.00    -0.311 N 
ATOM     22  C   UNL     1      -6.011   1.159  25.004  0.00  0.00    +0.214 C 
ATOM     39  H   UNL     1      -4.549   1.278  26.488  0.00  0.00    +0.149 HD
BRANCH   6  25
ATOM     25  C   UNL     1      -5.354   3.216  26.245  0.00  0.00    +0.139 C 
BRANCH  25  31
ATOM     31  C   UNL     1      -4.199   4.004  25.687  0.00  0.00    -0.030 A 
ATOM     32  C   UNL     1      -4.280   4.547  24.406  0.00  0.00    +0.005 A 
ATOM     33  C   UNL     1      -3.048   4.191  26.453  0.00  0.00    +0.005 A 
ATOM     34  C   UNL     1      -3.209   5.277  23.888  0.00  0.00    +0.000 A 
ATOM     35  C   UNL     1      -1.978   4.920  25.936  0.00  0.00    +0.000 A 
ATOM     36  C   UNL     1      -2.058   5.464  24.654  0.00  0.00    +0.000 A 
ENDBRANCH  25  31
ENDBRANCH   6  25
ENDBRANCH  21  22
ENDBRANCH  11  21
TORSDOF 10
ENDMDL
MODEL 4
REMARK VINA RESULT:       3.7      1.754      6.960
REMARK  Name = 24094071
REMARK  12 active torsions:
REMARK  status: ('A' for Active; 'I' for Inactive)
REMARK    1  A    between atoms: O_1  and  C_14
REMARK    2  A    between atoms: O_1  and  C_23
REMARK    3  A    between atoms: O_2  and  C_15
REMARK    4  A    between atoms: O_3  and  C_19
REMARK    5  A    between atoms: N_6  and  C_25
REMARK    6  A    between atoms: N_7  and  C_24
REMARK    7  A    between atoms: C_8  and  C_18
REMARK    8  A    between atoms: C_10  and  C_19
REMARK    9  A    between atoms: C_10  and  C_20
REMARK   10  A    between atoms: C_11  and  C_21
REMARK   11  A    between atoms: C_21  and  C_22
REMARK   12  A    between atoms: C_25  and  C_31
REMARK                            x       y       z     vdW  Elec       q    Type
REMARK                         _______ _______ _______ _____ _____    ______ ____
ROOT
ATOM      8  C   UNL     1      -2.861  -0.375  25.363  0.00  0.00    -0.023 C 
ATOM      9  C   UNL     1      -2.921  -0.180  23.795  0.00  0.00    +0.007 C 
ATOM     10  C   UNL     1      -3.374   1.273  23.326  0.00  0.00    +0.031 C 
ATOM     11  C   UNL     1      -2.588  -1.889  25.744  0.00  0.00    +0.032 C 
ATOM     12  C   UNL     1      -4.215   0.083  25.978  0.00  0.00    +0.011 C 
ATOM     13  C   UNL     1      -3.816  -1.267  23.126  0.00  0.00    +0.007 C 
ATOM     14  C   UNL     1      -4.688   1.682  24.053  0.00  0.00    +0.186 C 
ATOM     15  C   UNL     1      -3.575  -2.850  25.056  0.00  0.00    +0.119 C 
ATOM     16  C   UNL     1      -4.638   1.493  25.569  0.00  0.00    +0.046 C 
ATOM     17  C   UNL     1      -3.521  -2.697  23.548  0.00  0.00    +0.032 C 
ATOM     18  C   UNL     1      -1.731   0.457  26.027  0.00  0.00    +0.012 C 
ATOM     20  C   UNL     1      -3.624   1.303  21.792  0.00  0.00    +0.017 C 
ENDROOT
BRANCH  15   2
ATOM      2  O   UNL     1      -3.290  -4.207  25.384  0.00  0.00    -0.391 OA
ATOM     37  H   UNL     1      -2.461  -4.452  24.940  0.00  0.00    +0.210 HD
ENDBRANCH  15   2
BRANCH  14   1
ATOM      1  O   UNL     1      -5.019   3.049  23.806  0.00  0.00    -0.446 OA
BRANCH   1  23
ATOM      5  O   UNL     1      -5.382   4.615  25.445  0.00  0.00    -0.226 OA
ATOM      7  N   UNL     1      -3.240   3.978  24.820  0.00  0.00    -0.278 N 
ATOM     23  C   UNL     1      -4.618   3.946  24.758  0.00  0.00    +0.401 C 
ATOM     40  H   UNL     1      -2.729   3.403  24.157  0.00  0.00    +0.152 HD
BRANCH   7  24
ATOM     24  C   UNL     1      -2.498   4.826  25.726  0.00  0.00    +0.076 C 
ATOM     26  C   UNL     1      -1.922   4.014  26.892  0.00  0.00    +0.022 C 
ATOM     27  C   UNL     1      -1.397   5.593  24.986  0.00  0.00    +0.022 C 
ATOM     28  C   UNL     1      -0.765   3.113  26.462  0.00  0.00    +0.002 C 
ATOM     29  C   UNL     1      -0.240   4.689  24.560  0.00  0.00    +0.002 C 
ATOM     30  C   UNL     1       0.323   3.901  25.739  0.00  0.00    +0.000 C 
ENDBRANCH   7  24
ENDBRANCH   1  23
ENDBRANCH  14   1
BRANCH  10  19
ATOM     19  C   UNL     1      -2.261   2.326  23.553  0.00  0.00    +0.166 C 
BRANCH  19   3
ATOM      3  O   UNL     1      -1.069   1.812  23.003  0.00  0.00    -0.394 OA
ATOM     38  H   UNL     1      -0.421   2.537  22.990  0.00  0.00    +0.209 HD
ENDBRANCH  19   3
ENDBRANCH  10  19
BRANCH  11  21
ATOM     21  C   UNL     1      -1.130  -2.329  25.483  0.00  0.00    +0.102 C 
BRANCH  21  22
ATOM      4  O   UNL     1      -1.062  -2.430  23.065  0.00  0.00    -0.276 OA
ATOM      6  N   UNL     1       0.268  -0.896  24.197  0.00  0.00    -0.311 N 
ATOM     22  C   UNL     1      -0.665  -1.919  24.109  0.00  0.00    +0.214 C 
ATOM     39  H   UNL     1       0.530  -0.532  25.108  0.00  0.00    +0.149 HD
BRANCH   6  25
ATOM     25  C   UNL     1       0.895  -0.298  23.040  0.00  0.00    +0.139 C 
BRANCH  25  31
ATOM     31  C   UNL     1       2.392  -0.243  23.179  0.00  0.00    -0.030 A 
ATOM     32  C   UNL     1       3.085   0.910  22.809  0.00  0.00    +0.005 A 
ATOM     33  C   UNL     1       3.088  -1.345  23.679  0.00  0.00    +0.005 A 
ATOM     34  C   UNL     1       4.474   0.961  22.938  0.00  0.00    +0.000 A 
ATOM     35  C   UNL     1       4.475  -1.293  23.807  0.00  0.00    +0.000 A 
ATOM     36  C   UNL     1       5.168  -0.141  23.437  0.00  0.00    +0.000 A 
ENDBRANCH  25  31
ENDBRANCH   6  25
ENDBRANCH  21  22
ENDBRANCH  11  21
TORSDOF 10
ENDMDL
