MODEL 1
REMARK VINA RESULT:       1.0      0.000      0.000
REMARK  Name = 45361144
REMARK  7 active torsions:
REMARK  status: ('A' for Active; 'I' for Inactive)
REMARK    1  A    between atoms: N_4  and  C_18
REMARK    2  A    between atoms: N_5  and  C_17
REMARK    3  A    between atoms: N_8  and  C_30
REMARK    4  A    between atoms: C_13  and  C_16
REMARK    5  A    between atoms: C_16  and  C_19
REMARK    6  A    between atoms: C_17  and  C_20
REMARK    7  A    between atoms: C_19  and  C_21
REMARK                            x       y       z     vdW  Elec       q    Type
REMARK                         _______ _______ _______ _____ _____    ______ ____
ROOT
ATOM      2  O   UNL     1      -0.739   1.865  23.969  0.00  0.00    -0.274 OA
ATOM      4  N   UNL     1      -2.890  -1.012  25.414  0.00  0.00    -0.296 NA
ATOM      5  N   UNL     1       0.389  -0.586  23.844  0.00  0.00    -0.286 NA
ATOM      6  N   UNL     1      -2.855   1.138  23.490  0.00  0.00    -0.312 N 
ATOM      9  C   UNL     1      -1.718  -1.488  24.645  0.00  0.00    +0.084 C 
ATOM     10  C   UNL     1      -1.067  -0.521  23.613  0.00  0.00    +0.161 C 
ATOM     11  C   UNL     1      -0.513  -1.881  25.521  0.00  0.00    +0.036 C 
ATOM     12  C   UNL     1       0.654  -1.830  24.557  0.00  0.00    +0.087 C 
ATOM     13  C   UNL     1      -4.089  -0.710  24.585  0.00  0.00    +0.074 C 
ATOM     14  C   UNL     1      -1.508   0.936  23.725  0.00  0.00    +0.232 C 
ATOM     15  C   UNL     1      -3.800   0.058  23.281  0.00  0.00    +0.123 C 
ATOM     18  C   UNL     1      -3.235  -1.964  26.484  0.00  0.00    +0.105 C 
ATOM     32  H   UNL     1      -3.198   2.093  23.472  0.00  0.00    +0.149 HD
ENDROOT
BRANCH  13  16
ATOM     16  C   UNL     1      -5.110   0.117  25.394  0.00  0.00    +0.029 C 
BRANCH  16  19
ATOM     19  C   UNL     1      -5.441   1.431  24.715  0.00  0.00    +0.097 C 
BRANCH  19  21
ATOM      3  O   UNL     1      -5.880   2.594  26.732  0.00  0.00    -0.276 OA
ATOM      7  N   UNL     1      -4.407   3.609  25.250  0.00  0.00    -0.299 N 
ATOM      8  N   UNL     1      -2.127   5.300  24.857  0.00  0.00    -0.302 NA
ATOM     21  C   UNL     1      -5.269   2.593  25.661  0.00  0.00    +0.216 C 
ATOM     22  C   UNL     1      -3.772   3.702  23.933  0.00  0.00    +0.123 C 
ATOM     23  C   UNL     1      -4.184   4.768  26.113  0.00  0.00    +0.123 C 
ATOM     26  C   UNL     1      -2.295   4.078  24.057  0.00  0.00    +0.103 C 
ATOM     27  C   UNL     1      -2.698   5.117  26.200  0.00  0.00    +0.103 C 
ATOM     30  C   UNL     1      -0.715   5.667  24.945  0.00  0.00    +0.105 C 
ENDBRANCH  19  21
ENDBRANCH  16  19
ENDBRANCH  13  16
BRANCH   5  17
ATOM     17  C   UNL     1       1.173  -0.476  22.621  0.00  0.00    +0.120 C 
BRANCH  17  20
ATOM      1 CL   UNL     1       5.877  -1.888  24.364  0.00  0.00    -0.084 Cl
ATOM     20  C   UNL     1       2.606  -0.109  22.905  0.00  0.00    -0.032 A 
ATOM     24  C   UNL     1       3.476  -1.058  23.440  0.00  0.00    +0.025 A 
ATOM     25  C   UNL     1       3.062   1.181  22.632  0.00  0.00    +0.005 A 
ATOM     28  C   UNL     1       4.803  -0.718  23.702  0.00  0.00    +0.041 A 
ATOM     29  C   UNL     1       4.389   1.522  22.896  0.00  0.00    +0.002 A 
ATOM     31  C   UNL     1       5.260   0.572  23.430  0.00  0.00    +0.020 A 
ENDBRANCH  17  20
ENDBRANCH   5  17
TORSDOF 5
ENDMDL
MODEL 2
REMARK VINA RESULT:       1.5      2.262      6.797
REMARK  Name = 45361144
REMARK  7 active torsions:
REMARK  status: ('A' for Active; 'I' for Inactive)
REMARK    1  A    between atoms: N_4  and  C_18
REMARK    2  A    between atoms: N_5  and  C_17
REMARK    3  A    between atoms: N_8  and  C_30
REMARK    4  A    between atoms: C_13  and  C_16
REMARK    5  A    between atoms: C_16  and  C_19
REMARK    6  A    between atoms: C_17  and  C_20
REMARK    7  A    between atoms: C_19  and  C_21
REMARK                            x       y       z     vdW  Elec       q    Type
REMARK                         _______ _______ _______ _____ _____    ______ ____
ROOT
ATOM      2  O   UNL     1      -3.055   2.311  22.565  0.00  0.00    -0.274 OA
ATOM      4  N   UNL     1      -3.075  -1.017  24.542  0.00  0.00    -0.296 NA
ATOM      5  N   UNL     1      -4.855   2.181  24.575  0.00  0.00    -0.286 NA
ATOM      6  N   UNL     1      -1.414   1.182  23.690  0.00  0.00    -0.312 N 
ATOM      9  C   UNL     1      -3.861   0.054  25.194  0.00  0.00    +0.084 C 
ATOM     10  C   UNL     1      -3.552   1.533  24.818  0.00  0.00    +0.161 C 
ATOM     11  C   UNL     1      -5.376  -0.033  24.933  0.00  0.00    +0.036 C 
ATOM     12  C   UNL     1      -5.867   1.366  25.237  0.00  0.00    +0.087 C 
ATOM     13  C   UNL     1      -1.620  -0.993  24.857  0.00  0.00    +0.074 C 
ATOM     14  C   UNL     1      -2.684   1.716  23.575  0.00  0.00    +0.232 C 
ATOM     15  C   UNL     1      -0.973   0.405  24.832  0.00  0.00    +0.123 C 
ATOM     18  C   UNL     1      -3.642  -2.342  24.849  0.00  0.00    +0.105 C 
ATOM     32  H   UNL     1      -0.761   1.339  22.928  0.00  0.00    +0.149 HD
ENDROOT
BRANCH  13  16
ATOM     16  C   UNL     1      -0.839  -1.882  23.867  0.00  0.00    +0.029 C 
BRANCH  16  19
ATOM     19  C   UNL     1       0.661  -1.735  24.034  0.00  0.00    +0.097 C 
BRANCH  19  21
ATOM      3  O   UNL     1       0.462  -0.093  22.336  0.00  0.00    -0.276 OA
ATOM      7  N   UNL     1       2.621  -0.705  22.938  0.00  0.00    -0.299 N 
ATOM      8  N   UNL     1       5.369   0.045  23.240  0.00  0.00    -0.302 NA
ATOM     21  C   UNL     1       1.230  -0.770  23.024  0.00  0.00    +0.216 C 
ATOM     22  C   UNL     1       3.555  -1.586  23.643  0.00  0.00    +0.123 C 
ATOM     23  C   UNL     1       3.250   0.209  21.987  0.00  0.00    +0.123 C 
ATOM     26  C   UNL     1       4.710  -0.791  24.255  0.00  0.00    +0.103 C 
ATOM     27  C   UNL     1       4.405   0.973  22.633  0.00  0.00    +0.103 C 
ATOM     30  C   UNL     1       6.489   0.778  23.828  0.00  0.00    +0.105 C 
ENDBRANCH  19  21
ENDBRANCH  16  19
ENDBRANCH  13  16
BRANCH   5  17
ATOM     17  C   UNL     1      -4.899   3.571  25.009  0.00  0.00    +0.120 C 
BRANCH  17  20
ATOM      1 CL   UNL     1       0.051   3.269  26.611  0.00  0.00    -0.084 Cl
ATOM     20  C   UNL     1      -3.524   4.183  25.068  0.00  0.00    -0.032 A 
ATOM     24  C   UNL     1      -2.493   3.520  25.734  0.00  0.00    +0.025 A 
ATOM     25  C   UNL     1      -3.281   5.413  24.456  0.00  0.00    +0.005 A 
ATOM     28  C   UNL     1      -1.220   4.086  25.788  0.00  0.00    +0.041 A 
ATOM     29  C   UNL     1      -2.008   5.980  24.511  0.00  0.00    +0.002 A 
ATOM     31  C   UNL     1      -0.976   5.316  25.176  0.00  0.00    +0.020 A 
ENDBRANCH  17  20
ENDBRANCH   5  17
TORSDOF 5
ENDMDL
MODEL 3
REMARK VINA RESULT:       4.2      1.590      4.087
REMARK  Name = 45361144
REMARK  7 active torsions:
REMARK  status: ('A' for Active; 'I' for Inactive)
REMARK    1  A    between atoms: N_4  and  C_18
REMARK    2  A    between atoms: N_5  and  C_17
REMARK    3  A    between atoms: N_8  and  C_30
REMARK    4  A    between atoms: C_13  and  C_16
REMARK    5  A    between atoms: C_16  and  C_19
REMARK    6  A    between atoms: C_17  and  C_20
REMARK    7  A    between atoms: C_19  and  C_21
REMARK                            x       y       z     vdW  Elec       q    Type
REMARK                         _______ _______ _______ _____ _____    ______ ____
ROOT
ATOM      2  O   UNL     1       0.179   1.906  26.254  0.00  0.00    -0.274 OA
ATOM      4  N   UNL     1      -2.642   2.293  23.631  0.00  0.00    -0.296 NA
ATOM      5  N   UNL     1       0.889   1.334  23.713  0.00  0.00    -0.286 NA
ATOM      6  N   UNL     1      -1.169   3.668  25.696  0.00  0.00    -0.312 N 
ATOM      9  C   UNL     1      -1.301   2.125  23.027  0.00  0.00    +0.084 C 
ATOM     10  C   UNL     1      -0.051   2.455  23.894  0.00  0.00    +0.161 C 
ATOM     11  C   UNL     1      -0.999   0.687  22.565  0.00  0.00    +0.036 C 
ATOM     12  C   UNL     1       0.513   0.655  22.477  0.00  0.00    +0.087 C 
ATOM     13  C   UNL     1      -2.978   3.695  24.004  0.00  0.00    +0.074 C 
ATOM     14  C   UNL     1      -0.325   2.618  25.387  0.00  0.00    +0.232 C 
ATOM     15  C   UNL     1      -1.842   4.473  24.695  0.00  0.00    +0.123 C 
ATOM     18  C   UNL     1      -3.685   1.734  22.753  0.00  0.00    +0.105 C 
ATOM     32  H   UNL     1      -1.329   3.878  26.676  0.00  0.00    +0.149 HD
ENDROOT
BRANCH  13  16
ATOM     16  C   UNL     1      -4.200   3.724  24.946  0.00  0.00    +0.029 C 
BRANCH  16  19
ATOM     19  C   UNL     1      -4.201   2.555  25.910  0.00  0.00    +0.097 C 
BRANCH  19  21
ATOM      3  O   UNL     1      -6.013   1.488  24.816  0.00  0.00    -0.276 OA
ATOM      7  N   UNL     1      -4.196   0.146  25.360  0.00  0.00    -0.299 N 
ATOM      8  N   UNL     1      -2.571  -2.126  24.725  0.00  0.00    -0.302 NA
ATOM     21  C   UNL     1      -4.891   1.355  25.312  0.00  0.00    +0.216 C 
ATOM     22  C   UNL     1      -2.926  -0.074  26.057  0.00  0.00    +0.123 C 
ATOM     23  C   UNL     1      -4.796  -1.062  24.798  0.00  0.00    +0.123 C 
ATOM     26  C   UNL     1      -1.953  -0.876  25.191  0.00  0.00    +0.103 C 
ATOM     27  C   UNL     1      -3.788  -1.840  23.952  0.00  0.00    +0.103 C 
ATOM     30  C   UNL     1      -1.623  -2.899  23.923  0.00  0.00    +0.105 C 
ENDBRANCH  19  21
ENDBRANCH  16  19
ENDBRANCH  13  16
BRANCH   5  17
ATOM     17  C   UNL     1       2.286   1.746  23.708  0.00  0.00    +0.120 C 
BRANCH  17  20
ATOM      1 CL   UNL     1       7.143  -0.081  23.220  0.00  0.00    -0.084 Cl
ATOM     20  C   UNL     1       3.219   0.565  23.654  0.00  0.00    -0.032 A 
ATOM     24  C   UNL     1       4.589   0.765  23.482  0.00  0.00    +0.025 A 
ATOM     25  C   UNL     1       2.714  -0.729  23.777  0.00  0.00    +0.005 A 
ATOM     28  C   UNL     1       5.453  -0.328  23.434  0.00  0.00    +0.041 A 
ATOM     29  C   UNL     1       3.578  -1.823  23.727  0.00  0.00    +0.002 A 
ATOM     31  C   UNL     1       4.948  -1.623  23.556  0.00  0.00    +0.020 A 
ENDBRANCH  17  20
ENDBRANCH   5  17
TORSDOF 5
ENDMDL
