MODEL 1
REMARK VINA RESULT:      -3.3      0.000      0.000
REMARK  Name = 25314254
REMARK  6 active torsions:
REMARK  status: ('A' for Active; 'I' for Inactive)
REMARK    1  A    between atoms: O_3  and  C_10
REMARK    2  A    between atoms: N_5  and  C_8
REMARK    3  A    between atoms: N_6  and  C_9
REMARK    4  A    between atoms: N_6  and  C_15
REMARK    5  A    between atoms: C_14  and  C_15
REMARK    6  A    between atoms: C_25  and  C_26
REMARK                            x       y       z     vdW  Elec       q    Type
REMARK                         _______ _______ _______ _____ _____    ______ ____
ROOT
ATOM      1  O   UNL     1      -1.092   1.911  23.650  0.00  0.00    -0.343 OA
ATOM      2  O   UNL     1       1.168   2.342  23.943  0.00  0.00    -0.347 OA
ATOM      8  C   UNL     1       0.037   0.926  25.543  0.00  0.00    +0.143 C 
ATOM      9  C   UNL     1      -1.230   3.185  25.700  0.00  0.00    +0.115 C 
ATOM     10  C   UNL     1      -0.318   2.156  26.412  0.00  0.00    +0.156 C 
ATOM     11  C   UNL     1      -0.984   3.239  24.175  0.00  0.00    +0.166 C 
ATOM     12  C   UNL     1       0.153   1.332  24.062  0.00  0.00    +0.270 C 
ATOM     13  C   UNL     1       0.445   3.572  23.786  0.00  0.00    +0.196 C 
ENDROOT
BRANCH   8   5
ATOM      4  O   UNL     1      -3.214  -4.024  23.575  0.00  0.00    -0.276 OA
ATOM      5  N   UNL     1      -0.971  -0.124  25.697  0.00  0.00    -0.290 NA
ATOM      7  N   UNL     1      -2.865  -2.070  24.781  0.00  0.00    -0.299 N 
ATOM     16  C   UNL     1      -2.253   0.300  25.114  0.00  0.00    +0.104 C 
ATOM     17  C   UNL     1      -0.513  -1.376  25.075  0.00  0.00    +0.104 C 
ATOM     20  C   UNL     1      -3.322  -0.777  25.298  0.00  0.00    +0.123 C 
ATOM     21  C   UNL     1      -1.548  -2.484  25.264  0.00  0.00    +0.123 C 
ATOM     25  C   UNL     1      -3.622  -2.939  23.998  0.00  0.00    +0.213 C 
ATOM     26  C   UNL     1      -5.023  -2.496  23.662  0.00  0.00    +0.109 C 
ENDBRANCH   8   5
BRANCH  10   3
ATOM      3  O   UNL     1       0.913   2.803  26.767  0.00  0.00    -0.388 OA
ATOM     28  H   UNL     1       1.239   2.394  27.587  0.00  0.00    +0.210 HD
ENDBRANCH  10   3
BRANCH   9   6
ATOM      6  N   UNL     1      -2.643   2.862  25.925  0.00  0.00    -0.308 NA
ATOM     27  H   UNL     1      -2.746   2.216  26.707  0.00  0.00    +0.122 HD
BRANCH   6  15
ATOM     15  C   UNL     1      -3.402   4.069  26.206  0.00  0.00    +0.084 C 
BRANCH  15  14
ATOM     14  C   UNL     1      -4.533   4.269  25.193  0.00  0.00    +0.003 C 
ATOM     18  C   UNL     1      -4.319   3.422  23.930  0.00  0.00    +0.005 C 
ATOM     19  C   UNL     1      -5.907   3.984  25.816  0.00  0.00    +0.005 C 
ATOM     22  C   UNL     1      -4.578   1.934  24.156  0.00  0.00    +0.000 C 
ATOM     23  C   UNL     1      -6.165   2.495  26.041  0.00  0.00    +0.000 C 
ATOM     24  C   UNL     1      -5.955   1.687  24.764  0.00  0.00    +0.000 C 
ENDBRANCH  15  14
ENDBRANCH   6  15
ENDBRANCH   9   6
TORSDOF 5
ENDMDL
MODEL 2
REMARK VINA RESULT:      -2.7      1.939      4.679
REMARK  Name = 25314254
REMARK  6 active torsions:
REMARK  status: ('A' for Active; 'I' for Inactive)
REMARK    1  A    between atoms: O_3  and  C_10
REMARK    2  A    between atoms: N_5  and  C_8
REMARK    3  A    between atoms: N_6  and  C_9
REMARK    4  A    between atoms: N_6  and  C_15
REMARK    5  A    between atoms: C_14  and  C_15
REMARK    6  A    between atoms: C_25  and  C_26
REMARK                            x       y       z     vdW  Elec       q    Type
REMARK                         _______ _______ _______ _____ _____    ______ ____
ROOT
ATOM      1  O   UNL     1      -1.054   2.686  26.798  0.00  0.00    -0.343 OA
ATOM      2  O   UNL     1       0.896   3.736  26.109  0.00  0.00    -0.347 OA
ATOM      8  C   UNL     1      -1.006   3.717  24.616  0.00  0.00    +0.143 C 
ATOM      9  C   UNL     1      -0.469   1.205  24.978  0.00  0.00    +0.115 C 
ATOM     10  C   UNL     1      -0.522   2.391  23.983  0.00  0.00    +0.156 C 
ATOM     11  C   UNL     1      -0.136   1.655  26.418  0.00  0.00    +0.166 C 
ATOM     12  C   UNL     1      -0.540   3.815  26.080  0.00  0.00    +0.270 C 
ATOM     13  C   UNL     1       1.181   2.400  26.549  0.00  0.00    +0.196 C 
ENDROOT
BRANCH   8   5
ATOM      4  O   UNL     1      -6.794   2.450  26.573  0.00  0.00    -0.276 OA
ATOM      5  N   UNL     1      -2.464   3.823  24.547  0.00  0.00    -0.290 NA
ATOM      7  N   UNL     1      -5.161   2.970  25.006  0.00  0.00    -0.299 N 
ATOM     16  C   UNL     1      -3.028   2.695  23.790  0.00  0.00    +0.104 C 
ATOM     17  C   UNL     1      -3.044   3.877  25.896  0.00  0.00    +0.104 C 
ATOM     20  C   UNL     1      -4.549   2.812  23.683  0.00  0.00    +0.123 C 
ATOM     21  C   UNL     1      -4.563   4.021  25.827  0.00  0.00    +0.123 C 
ATOM     25  C   UNL     1      -6.298   2.299  25.454  0.00  0.00    +0.213 C 
ATOM     26  C   UNL     1      -6.934   1.333  24.488  0.00  0.00    +0.109 C 
ENDBRANCH   8   5
BRANCH  10   3
ATOM      3  O   UNL     1       0.798   2.614  23.467  0.00  0.00    -0.388 OA
ATOM     28  H   UNL     1       0.929   2.008  22.716  0.00  0.00    +0.210 HD
ENDBRANCH  10   3
BRANCH   9   6
ATOM      6  N   UNL     1      -1.754   0.498  25.006  0.00  0.00    -0.308 NA
ATOM     27  H   UNL     1      -2.077   0.298  24.060  0.00  0.00    +0.122 HD
BRANCH   6  15
ATOM     15  C   UNL     1      -1.632  -0.751  25.737  0.00  0.00    +0.084 C 
BRANCH  15  14
ATOM     14  C   UNL     1      -3.004  -1.322  26.106  0.00  0.00    +0.003 C 
ATOM     18  C   UNL     1      -4.142  -0.540  25.435  0.00  0.00    +0.005 C 
ATOM     19  C   UNL     1      -3.101  -2.819  25.779  0.00  0.00    +0.005 C 
ATOM     22  C   UNL     1      -4.259  -0.820  23.938  0.00  0.00    +0.000 C 
ATOM     23  C   UNL     1      -3.219  -3.097  24.281  0.00  0.00    +0.000 C 
ATOM     24  C   UNL     1      -4.366  -2.314  23.650  0.00  0.00    +0.000 C 
ENDBRANCH  15  14
ENDBRANCH   6  15
ENDBRANCH   9   6
TORSDOF 5
ENDMDL
MODEL 3
REMARK VINA RESULT:      -2.5      2.069      4.556
REMARK  Name = 25314254
REMARK  6 active torsions:
REMARK  status: ('A' for Active; 'I' for Inactive)
REMARK    1  A    between atoms: O_3  and  C_10
REMARK    2  A    between atoms: N_5  and  C_8
REMARK    3  A    between atoms: N_6  and  C_9
REMARK    4  A    between atoms: N_6  and  C_15
REMARK    5  A    between atoms: C_14  and  C_15
REMARK    6  A    between atoms: C_25  and  C_26
REMARK                            x       y       z     vdW  Elec       q    Type
REMARK                         _______ _______ _______ _____ _____    ______ ____
ROOT
ATOM      1  O   UNL     1      -1.101   1.682  25.759  0.00  0.00    -0.343 OA
ATOM      2  O   UNL     1       0.868   2.905  25.851  0.00  0.00    -0.347 OA
ATOM      8  C   UNL     1      -1.137   3.986  25.040  0.00  0.00    +0.143 C 
ATOM      9  C   UNL     1      -0.773   2.020  23.387  0.00  0.00    +0.115 C 
ATOM     10  C   UNL     1      -0.809   3.555  23.591  0.00  0.00    +0.156 C 
ATOM     11  C   UNL     1      -0.297   1.266  24.650  0.00  0.00    +0.166 C 
ATOM     12  C   UNL     1      -0.555   2.976  26.046  0.00  0.00    +0.270 C 
ATOM     13  C   UNL     1       1.080   1.678  25.139  0.00  0.00    +0.196 C 
ENDROOT
BRANCH   8   5
ATOM      4  O   UNL     1      -6.698   1.936  26.993  0.00  0.00    -0.276 OA
ATOM      5  N   UNL     1      -2.584   4.105  25.230  0.00  0.00    -0.290 NA
ATOM      7  N   UNL     1      -5.247   3.123  25.623  0.00  0.00    -0.299 N 
ATOM     16  C   UNL     1      -3.304   3.446  24.130  0.00  0.00    +0.104 C 
ATOM     17  C   UNL     1      -2.984   3.532  26.523  0.00  0.00    +0.104 C 
ATOM     20  C   UNL     1      -4.817   3.592  24.302  0.00  0.00    +0.123 C 
ATOM     21  C   UNL     1      -4.489   3.685  26.740  0.00  0.00    +0.123 C 
ATOM     25  C   UNL     1      -6.356   2.317  25.870  0.00  0.00    +0.213 C 
ATOM     26  C   UNL     1      -7.166   1.897  24.670  0.00  0.00    +0.109 C 
ENDBRANCH   8   5
BRANCH  10   3
ATOM      3  O   UNL     1       0.482   4.089  23.263  0.00  0.00    -0.388 OA
ATOM     28  H   UNL     1       1.153   3.460  23.579  0.00  0.00    +0.210 HD
ENDBRANCH  10   3
BRANCH   9   6
ATOM      6  N   UNL     1      -2.104   1.517  23.029  0.00  0.00    -0.308 NA
ATOM     27  H   UNL     1      -2.278   1.635  22.032  0.00  0.00    +0.122 HD
BRANCH   6  15
ATOM     15  C   UNL     1      -2.225   0.110  23.367  0.00  0.00    +0.084 C 
BRANCH  15  14
ATOM     14  C   UNL     1      -3.617  -0.219  23.912  0.00  0.00    +0.003 C 
ATOM     18  C   UNL     1      -4.094  -1.604  23.451  0.00  0.00    +0.005 C 
ATOM     19  C   UNL     1      -3.667  -0.105  25.443  0.00  0.00    +0.005 C 
ATOM     22  C   UNL     1      -3.377  -2.751  24.162  0.00  0.00    +0.000 C 
ATOM     23  C   UNL     1      -2.950  -1.253  26.152  0.00  0.00    +0.000 C 
ATOM     24  C   UNL     1      -3.456  -2.612  25.679  0.00  0.00    +0.000 C 
ENDBRANCH  15  14
ENDBRANCH   6  15
ENDBRANCH   9   6
TORSDOF 5
ENDMDL
MODEL 4
REMARK VINA RESULT:      -2.4     15.466     18.739
REMARK  Name = 25314254
REMARK  6 active torsions:
REMARK  status: ('A' for Active; 'I' for Inactive)
REMARK    1  A    between atoms: O_3  and  C_10
REMARK    2  A    between atoms: N_5  and  C_8
REMARK    3  A    between atoms: N_6  and  C_9
REMARK    4  A    between atoms: N_6  and  C_15
REMARK    5  A    between atoms: C_14  and  C_15
REMARK    6  A    between atoms: C_25  and  C_26
REMARK                            x       y       z     vdW  Elec       q    Type
REMARK                         _______ _______ _______ _____ _____    ______ ____
ROOT
ATOM      1  O   UNL     1      12.686   6.406  20.306  0.00  0.00    -0.343 OA
ATOM      2  O   UNL     1      10.595   5.733  21.051  0.00  0.00    -0.347 OA
ATOM      8  C   UNL     1      10.810   7.891  19.983  0.00  0.00    +0.143 C 
ATOM      9  C   UNL     1      12.373   8.055  22.047  0.00  0.00    +0.115 C 
ATOM     10  C   UNL     1      11.087   8.562  21.349  0.00  0.00    +0.156 C 
ATOM     11  C   UNL     1      12.674   6.572  21.728  0.00  0.00    +0.166 C 
ATOM     12  C   UNL     1      11.286   6.427  19.998  0.00  0.00    +0.270 C 
ATOM     13  C   UNL     1      11.558   5.615  22.107  0.00  0.00    +0.196 C 
ENDROOT
BRANCH   8   5
ATOM      4  O   UNL     1      13.059   8.466  14.190  0.00  0.00    -0.276 OA
ATOM      5  N   UNL     1      11.474   8.622  18.902  0.00  0.00    -0.290 NA
ATOM      7  N   UNL     1      12.970   8.885  16.473  0.00  0.00    -0.299 N 
ATOM     16  C   UNL     1      12.911   8.310  18.875  0.00  0.00    +0.104 C 
ATOM     17  C   UNL     1      10.855   8.306  17.607  0.00  0.00    +0.104 C 
ATOM     20  C   UNL     1      13.621   9.094  17.770  0.00  0.00    +0.123 C 
ATOM     21  C   UNL     1      11.523   9.094  16.482  0.00  0.00    +0.123 C 
ATOM     25  C   UNL     1      13.630   8.638  15.271  0.00  0.00    +0.213 C 
ATOM     26  C   UNL     1      15.135   8.577  15.328  0.00  0.00    +0.109 C 
ENDBRANCH   8   5
BRANCH  10   3
ATOM      3  O   UNL     1       9.966   8.288  22.201  0.00  0.00    -0.388 OA
ATOM     28  H   UNL     1       9.169   8.255  21.642  0.00  0.00    +0.210 HD
ENDBRANCH  10   3
BRANCH   9   6
ATOM      6  N   UNL     1      13.532   8.855  21.637  0.00  0.00    -0.308 NA
ATOM     27  H   UNL     1      13.487   9.789  22.044  0.00  0.00    +0.122 HD
BRANCH   6  15
ATOM     15  C   UNL     1      14.766   8.216  22.057  0.00  0.00    +0.084 C 
BRANCH  15  14
ATOM     14  C   UNL     1      15.942   8.628  21.169  0.00  0.00    +0.003 C 
ATOM     18  C   UNL     1      17.267   8.036  21.669  0.00  0.00    +0.005 C 
ATOM     19  C   UNL     1      15.699   8.257  19.699  0.00  0.00    +0.005 C 
ATOM     22  C   UNL     1      17.392   6.537  21.401  0.00  0.00    +0.000 C 
ATOM     23  C   UNL     1      15.824   6.757  19.432  0.00  0.00    +0.000 C 
ATOM     24  C   UNL     1      17.156   6.205  19.931  0.00  0.00    +0.000 C 
ENDBRANCH  15  14
ENDBRANCH   6  15
ENDBRANCH   9   6
TORSDOF 5
ENDMDL
MODEL 5
REMARK VINA RESULT:      -2.4      1.784      4.999
REMARK  Name = 25314254
REMARK  6 active torsions:
REMARK  status: ('A' for Active; 'I' for Inactive)
REMARK    1  A    between atoms: O_3  and  C_10
REMARK    2  A    between atoms: N_5  and  C_8
REMARK    3  A    between atoms: N_6  and  C_9
REMARK    4  A    between atoms: N_6  and  C_15
REMARK    5  A    between atoms: C_14  and  C_15
REMARK    6  A    between atoms: C_25  and  C_26
REMARK                            x       y       z     vdW  Elec       q    Type
REMARK                         _______ _______ _______ _____ _____    ______ ____
ROOT
ATOM      1  O   UNL     1      -2.948  -0.518  25.945  0.00  0.00    -0.343 OA
ATOM      2  O   UNL     1      -2.368  -2.761  26.042  0.00  0.00    -0.347 OA
ATOM      8  C   UNL     1      -0.798  -1.195  25.081  0.00  0.00    +0.143 C 
ATOM      9  C   UNL     1      -2.898  -0.982  23.572  0.00  0.00    +0.115 C 
ATOM     10  C   UNL     1      -1.412  -1.408  23.677  0.00  0.00    +0.156 C 
ATOM     11  C   UNL     1      -3.666  -1.181  24.899  0.00  0.00    +0.166 C 
ATOM     12  C   UNL     1      -1.860  -1.423  26.172  0.00  0.00    +0.270 C 
ATOM     13  C   UNL     1      -3.651  -2.608  25.418  0.00  0.00    +0.196 C 
ENDROOT
BRANCH   8   5
ATOM      4  O   UNL     1      -1.231   5.019  25.462  0.00  0.00    -0.276 OA
ATOM      5  N   UNL     1      -0.238   0.152  25.202  0.00  0.00    -0.290 NA
ATOM      7  N   UNL     1      -0.222   3.002  24.905  0.00  0.00    -0.299 N 
ATOM     16  C   UNL     1      -0.068   0.762  23.875  0.00  0.00    +0.104 C 
ATOM     17  C   UNL     1      -1.094   0.995  26.049  0.00  0.00    +0.104 C 
ATOM     20  C   UNL     1       0.547   2.158  23.987  0.00  0.00    +0.123 C 
ATOM     21  C   UNL     1      -0.494   2.391  26.205  0.00  0.00    +0.123 C 
ATOM     25  C   UNL     1      -0.582   4.328  24.671  0.00  0.00    +0.213 C 
ATOM     26  C   UNL     1      -0.140   4.925  23.360  0.00  0.00    +0.109 C 
ENDBRANCH   8   5
BRANCH  10   3
ATOM      3  O   UNL     1      -1.315  -2.806  23.370  0.00  0.00    -0.388 OA
ATOM     28  H   UNL     1      -1.813  -3.294  24.049  0.00  0.00    +0.210 HD
ENDBRANCH  10   3
BRANCH   9   6
ATOM      6  N   UNL     1      -3.003   0.431  23.191  0.00  0.00    -0.308 NA
ATOM     27  H   UNL     1      -3.617   0.542  22.385  0.00  0.00    +0.122 HD
BRANCH   6  15
ATOM     15  C   UNL     1      -3.523   1.219  24.295  0.00  0.00    +0.084 C 
BRANCH  15  14
ATOM     14  C   UNL     1      -4.652   2.147  23.839  0.00  0.00    +0.003 C 
ATOM     18  C   UNL     1      -5.951   1.883  24.613  0.00  0.00    +0.005 C 
ATOM     19  C   UNL     1      -4.246   3.624  23.940  0.00  0.00    +0.005 C 
ATOM     22  C   UNL     1      -5.904   2.395  26.052  0.00  0.00    +0.000 C 
ATOM     23  C   UNL     1      -4.200   4.135  25.379  0.00  0.00    +0.000 C 
ATOM     24  C   UNL     1      -5.510   3.867  26.115  0.00  0.00    +0.000 C 
ENDBRANCH  15  14
ENDBRANCH   6  15
ENDBRANCH   9   6
TORSDOF 5
ENDMDL
MODEL 6
REMARK VINA RESULT:      -1.8      2.097      4.715
REMARK  Name = 25314254
REMARK  6 active torsions:
REMARK  status: ('A' for Active; 'I' for Inactive)
REMARK    1  A    between atoms: O_3  and  C_10
REMARK    2  A    between atoms: N_5  and  C_8
REMARK    3  A    between atoms: N_6  and  C_9
REMARK    4  A    between atoms: N_6  and  C_15
REMARK    5  A    between atoms: C_14  and  C_15
REMARK    6  A    between atoms: C_25  and  C_26
REMARK                            x       y       z     vdW  Elec       q    Type
REMARK                         _______ _______ _______ _____ _____    ______ ____
ROOT
ATOM      1  O   UNL     1      -1.369   2.931  25.645  0.00  0.00    -0.343 OA
ATOM      2  O   UNL     1      -2.525   4.902  26.041  0.00  0.00    -0.347 OA
ATOM      8  C   UNL     1      -3.777   2.909  25.490  0.00  0.00    +0.143 C 
ATOM      9  C   UNL     1      -2.254   3.284  23.423  0.00  0.00    +0.115 C 
ATOM     10  C   UNL     1      -3.698   3.251  23.983  0.00  0.00    +0.156 C 
ATOM     11  C   UNL     1      -1.221   3.744  24.477  0.00  0.00    +0.166 C 
ATOM     12  C   UNL     1      -2.556   3.477  26.234  0.00  0.00    +0.270 C 
ATOM     13  C   UNL     1      -1.499   5.118  25.062  0.00  0.00    +0.196 C 
ENDROOT
BRANCH   8   5
ATOM      4  O   UNL     1      -1.919  -2.969  24.517  0.00  0.00    -0.276 OA
ATOM      5  N   UNL     1      -3.856   1.461  25.688  0.00  0.00    -0.290 NA
ATOM      7  N   UNL     1      -3.452  -1.289  24.990  0.00  0.00    -0.299 N 
ATOM     16  C   UNL     1      -4.658   0.837  24.626  0.00  0.00    +0.104 C 
ATOM     17  C   UNL     1      -2.510   0.871  25.730  0.00  0.00    +0.104 C 
ATOM     20  C   UNL     1      -4.774  -0.673  24.841  0.00  0.00    +0.123 C 
ATOM     21  C   UNL     1      -2.587  -0.636  25.971  0.00  0.00    +0.123 C 
ATOM     25  C   UNL     1      -3.039  -2.470  24.376  0.00  0.00    +0.213 C 
ATOM     26  C   UNL     1      -4.044  -3.154  23.487  0.00  0.00    +0.109 C 
ENDBRANCH   8   5
BRANCH  10   3
ATOM      3  O   UNL     1      -4.288   4.546  23.802  0.00  0.00    -0.388 OA
ATOM     28  H   UNL     1      -4.953   4.670  24.501  0.00  0.00    +0.210 HD
ENDBRANCH  10   3
BRANCH   9   6
ATOM      6  N   UNL     1      -1.857   1.955  22.944  0.00  0.00    -0.308 NA
ATOM     27  H   UNL     1      -2.332   1.730  22.071  0.00  0.00    +0.122 HD
BRANCH   6  15
ATOM     15  C   UNL     1      -0.422   1.899  22.730  0.00  0.00    +0.084 C 
BRANCH  15  14
ATOM     14  C   UNL     1       0.230   0.804  23.577  0.00  0.00    +0.003 C 
ATOM     18  C   UNL     1       0.352  -0.516  22.803  0.00  0.00    +0.005 C 
ATOM     19  C   UNL     1       1.596   1.246  24.122  0.00  0.00    +0.005 C 
ATOM     22  C   UNL     1       1.442  -0.483  21.732  0.00  0.00    +0.000 C 
ATOM     23  C   UNL     1       2.685   1.279  23.051  0.00  0.00    +0.000 C 
ATOM     24  C   UNL     1       2.786  -0.051  22.309  0.00  0.00    +0.000 C 
ENDBRANCH  15  14
ENDBRANCH   6  15
ENDBRANCH   9   6
TORSDOF 5
ENDMDL
MODEL 7
REMARK VINA RESULT:      -1.7      2.318      5.149
REMARK  Name = 25314254
REMARK  6 active torsions:
REMARK  status: ('A' for Active; 'I' for Inactive)
REMARK    1  A    between atoms: O_3  and  C_10
REMARK    2  A    between atoms: N_5  and  C_8
REMARK    3  A    between atoms: N_6  and  C_9
REMARK    4  A    between atoms: N_6  and  C_15
REMARK    5  A    between atoms: C_14  and  C_15
REMARK    6  A    between atoms: C_25  and  C_26
REMARK                            x       y       z     vdW  Elec       q    Type
REMARK                         _______ _______ _______ _____ _____    ______ ____
ROOT
ATOM      1  O   UNL     1      -2.292   0.155  25.900  0.00  0.00    -0.343 OA
ATOM      2  O   UNL     1      -2.476  -2.073  26.518  0.00  0.00    -0.347 OA
ATOM      8  C   UNL     1      -1.492  -1.537  24.376  0.00  0.00    +0.143 C 
ATOM      9  C   UNL     1      -3.888  -0.554  24.228  0.00  0.00    +0.115 C 
ATOM     10  C   UNL     1      -2.880  -1.604  23.698  0.00  0.00    +0.156 C 
ATOM     11  C   UNL     1      -3.663  -0.218  25.719  0.00  0.00    +0.166 C 
ATOM     12  C   UNL     1      -1.634  -1.118  25.850  0.00  0.00    +0.270 C 
ATOM     13  C   UNL     1      -3.746  -1.417  26.647  0.00  0.00    +0.196 C 
ENDROOT
BRANCH   8   5
ATOM      4  O   UNL     1       3.669  -0.020  21.212  0.00  0.00    -0.276 OA
ATOM      5  N   UNL     1      -0.616  -0.600  23.671  0.00  0.00    -0.290 NA
ATOM      7  N   UNL     1       1.881   0.361  22.645  0.00  0.00    -0.299 N 
ATOM     16  C   UNL     1       0.407  -0.065  24.582  0.00  0.00    +0.104 C 
ATOM     17  C   UNL     1       0.016  -1.252  22.515  0.00  0.00    +0.104 C 
ATOM     20  C   UNL     1       1.309   0.941  23.864  0.00  0.00    +0.123 C 
ATOM     21  C   UNL     1       0.904  -0.266  21.757  0.00  0.00    +0.123 C 
ATOM     25  C   UNL     1       3.211   0.477  22.244  0.00  0.00    +0.213 C 
ATOM     26  C   UNL     1       4.122   1.262  23.153  0.00  0.00    +0.109 C 
ENDBRANCH   8   5
BRANCH  10   3
ATOM      3  O   UNL     1      -3.416  -2.914  23.938  0.00  0.00    -0.388 OA
ATOM     28  H   UNL     1      -3.144  -3.486  23.199  0.00  0.00    +0.210 HD
ENDBRANCH  10   3
BRANCH   9   6
ATOM      6  N   UNL     1      -3.787   0.690  23.458  0.00  0.00    -0.308 NA
ATOM     27  H   UNL     1      -4.261   0.598  22.560  0.00  0.00    +0.122 HD
BRANCH   6  15
ATOM     15  C   UNL     1      -4.380   1.793  24.193  0.00  0.00    +0.084 C 
BRANCH  15  14
ATOM     14  C   UNL     1      -3.802   3.139  23.749  0.00  0.00    +0.003 C 
ATOM     18  C   UNL     1      -4.100   4.249  24.767  0.00  0.00    +0.005 C 
ATOM     19  C   UNL     1      -2.295   3.044  23.470  0.00  0.00    +0.005 C 
ATOM     22  C   UNL     1      -3.261   4.135  26.039  0.00  0.00    +0.000 C 
ATOM     23  C   UNL     1      -1.457   2.931  24.743  0.00  0.00    +0.000 C 
ATOM     24  C   UNL     1      -1.770   4.054  25.727  0.00  0.00    +0.000 C 
ENDBRANCH  15  14
ENDBRANCH   6  15
ENDBRANCH   9   6
TORSDOF 5
ENDMDL
MODEL 8
REMARK VINA RESULT:      -1.7      2.535      5.040
REMARK  Name = 25314254
REMARK  6 active torsions:
REMARK  status: ('A' for Active; 'I' for Inactive)
REMARK    1  A    between atoms: O_3  and  C_10
REMARK    2  A    between atoms: N_5  and  C_8
REMARK    3  A    between atoms: N_6  and  C_9
REMARK    4  A    between atoms: N_6  and  C_15
REMARK    5  A    between atoms: C_14  and  C_15
REMARK    6  A    between atoms: C_25  and  C_26
REMARK                            x       y       z     vdW  Elec       q    Type
REMARK                         _______ _______ _______ _____ _____    ______ ____
ROOT
ATOM      1  O   UNL     1      -1.916   2.537  23.093  0.00  0.00    -0.343 OA
ATOM      2  O   UNL     1      -1.774   4.428  24.428  0.00  0.00    -0.347 OA
ATOM      8  C   UNL     1       0.018   2.807  24.512  0.00  0.00    +0.143 C 
ATOM      9  C   UNL     1      -2.075   1.466  25.255  0.00  0.00    +0.115 C 
ATOM     10  C   UNL     1      -0.696   2.047  25.655  0.00  0.00    +0.156 C 
ATOM     11  C   UNL     1      -2.800   2.334  24.201  0.00  0.00    +0.166 C 
ATOM     12  C   UNL     1      -1.012   3.519  23.616  0.00  0.00    +0.270 C 
ATOM     13  C   UNL     1      -3.034   3.771  24.631  0.00  0.00    +0.196 C 
ENDROOT
BRANCH   8   5
ATOM      4  O   UNL     1       4.003  -1.939  23.783  0.00  0.00    -0.276 OA
ATOM      5  N   UNL     1       0.832   1.892  23.710  0.00  0.00    -0.290 NA
ATOM      7  N   UNL     1       2.996   0.078  23.225  0.00  0.00    -0.299 N 
ATOM     16  C   UNL     1       2.211   2.391  23.599  0.00  0.00    +0.104 C 
ATOM     17  C   UNL     1       0.819   0.542  24.293  0.00  0.00    +0.104 C 
ATOM     20  C   UNL     1       3.063   1.459  22.736  0.00  0.00    +0.123 C 
ATOM     21  C   UNL     1       1.640  -0.423  23.439  0.00  0.00    +0.123 C 
ATOM     25  C   UNL     1       4.085  -0.779  23.369  0.00  0.00    +0.213 C 
ATOM     26  C   UNL     1       5.435  -0.224  22.991  0.00  0.00    +0.109 C 
ENDBRANCH   8   5
BRANCH  10   3
ATOM      3  O   UNL     1      -0.885   2.970  26.737  0.00  0.00    -0.388 OA
ATOM     28  H   UNL     1      -0.016   3.348  26.959  0.00  0.00    +0.210 HD
ENDBRANCH  10   3
BRANCH   9   6
ATOM      6  N   UNL     1      -1.926   0.113  24.709  0.00  0.00    -0.308 NA
ATOM     27  H   UNL     1      -1.087   0.046  24.134  0.00  0.00    +0.122 HD
BRANCH   6  15
ATOM     15  C   UNL     1      -1.841  -0.862  25.782  0.00  0.00    +0.084 C 
BRANCH  15  14
ATOM     14  C   UNL     1      -3.209  -1.475  26.093  0.00  0.00    +0.003 C 
ATOM     18  C   UNL     1      -4.347  -0.694  25.420  0.00  0.00    +0.005 C 
ATOM     19  C   UNL     1      -3.264  -2.961  25.708  0.00  0.00    +0.005 C 
ATOM     22  C   UNL     1      -4.417  -0.920  23.910  0.00  0.00    +0.000 C 
ATOM     23  C   UNL     1      -3.336  -3.185  24.198  0.00  0.00    +0.000 C 
ATOM     24  C   UNL     1      -4.483  -2.404  23.565  0.00  0.00    +0.000 C 
ENDBRANCH  15  14
ENDBRANCH   6  15
ENDBRANCH   9   6
TORSDOF 5
ENDMDL
MODEL 9
REMARK VINA RESULT:      -1.5      2.192      5.095
REMARK  Name = 25314254
REMARK  6 active torsions:
REMARK  status: ('A' for Active; 'I' for Inactive)
REMARK    1  A    between atoms: O_3  and  C_10
REMARK    2  A    between atoms: N_5  and  C_8
REMARK    3  A    between atoms: N_6  and  C_9
REMARK    4  A    between atoms: N_6  and  C_15
REMARK    5  A    between atoms: C_14  and  C_15
REMARK    6  A    between atoms: C_25  and  C_26
REMARK                            x       y       z     vdW  Elec       q    Type
REMARK                         _______ _______ _______ _____ _____    ______ ____
ROOT
ATOM      1  O   UNL     1      -4.353   2.860  23.699  0.00  0.00    -0.343 OA
ATOM      2  O   UNL     1      -4.898   4.701  25.000  0.00  0.00    -0.347 OA
ATOM      8  C   UNL     1      -2.606   3.932  24.975  0.00  0.00    +0.143 C 
ATOM      9  C   UNL     1      -3.939   1.899  25.879  0.00  0.00    +0.115 C 
ATOM     10  C   UNL     1      -2.886   2.995  26.173  0.00  0.00    +0.156 C 
ATOM     11  C   UNL     1      -5.013   2.365  24.869  0.00  0.00    +0.166 C 
ATOM     12  C   UNL     1      -3.887   4.140  24.146  0.00  0.00    +0.270 C 
ATOM     13  C   UNL     1      -5.775   3.606  25.300  0.00  0.00    +0.196 C 
ENDROOT
BRANCH   8   5
ATOM      4  O   UNL     1       0.365  -0.703  22.036  0.00  0.00    -0.276 OA
ATOM      5  N   UNL     1      -1.544   3.387  24.128  0.00  0.00    -0.290 NA
ATOM      7  N   UNL     1       0.195   1.342  23.125  0.00  0.00    -0.299 N 
ATOM     16  C   UNL     1      -0.434   2.884  24.951  0.00  0.00    +0.104 C 
ATOM     17  C   UNL     1      -2.069   2.319  23.264  0.00  0.00    +0.104 C 
ATOM     20  C   UNL     1       0.695   2.340  24.074  0.00  0.00    +0.123 C 
ATOM     21  C   UNL     1      -0.970   1.771  22.354  0.00  0.00    +0.123 C 
ATOM     25  C   UNL     1       0.806   0.122  22.841  0.00  0.00    +0.213 C 
ATOM     26  C   UNL     1       2.083  -0.180  23.581  0.00  0.00    +0.109 C 
ENDBRANCH   8   5
BRANCH  10   3
ATOM      3  O   UNL     1      -3.361   3.808  27.256  0.00  0.00    -0.388 OA
ATOM     28  H   UNL     1      -2.726   4.534  27.384  0.00  0.00    +0.210 HD
ENDBRANCH  10   3
BRANCH   9   6
ATOM      6  N   UNL     1      -3.295   0.697  25.339  0.00  0.00    -0.308 NA
ATOM     27  H   UNL     1      -2.500   0.424  25.915  0.00  0.00    +0.122 HD
BRANCH   6  15
ATOM     15  C   UNL     1      -4.239  -0.406  25.284  0.00  0.00    +0.084 C 
BRANCH  15  14
ATOM     14  C   UNL     1      -3.665  -1.669  25.931  0.00  0.00    +0.003 C 
ATOM     18  C   UNL     1      -3.485  -2.799  24.908  0.00  0.00    +0.005 C 
ATOM     19  C   UNL     1      -2.347  -1.380  26.665  0.00  0.00    +0.005 C 
ATOM     22  C   UNL     1      -2.310  -2.566  23.960  0.00  0.00    +0.000 C 
ATOM     23  C   UNL     1      -1.173  -1.148  25.716  0.00  0.00    +0.000 C 
ATOM     24  C   UNL     1      -1.016  -2.294  24.721  0.00  0.00    +0.000 C 
ENDBRANCH  15  14
ENDBRANCH   6  15
ENDBRANCH   9   6
TORSDOF 5
ENDMDL
MODEL 10
REMARK VINA RESULT:      -1.2      1.766      4.664
REMARK  Name = 25314254
REMARK  6 active torsions:
REMARK  status: ('A' for Active; 'I' for Inactive)
REMARK    1  A    between atoms: O_3  and  C_10
REMARK    2  A    between atoms: N_5  and  C_8
REMARK    3  A    between atoms: N_6  and  C_9
REMARK    4  A    between atoms: N_6  and  C_15
REMARK    5  A    between atoms: C_14  and  C_15
REMARK    6  A    between atoms: C_25  and  C_26
REMARK                            x       y       z     vdW  Elec       q    Type
REMARK                         _______ _______ _______ _____ _____    ______ ____
ROOT
ATOM      1  O   UNL     1       0.017   2.635  25.341  0.00  0.00    -0.343 OA
ATOM      2  O   UNL     1       1.440   2.595  23.510  0.00  0.00    -0.347 OA
ATOM      8  C   UNL     1      -0.947   2.541  23.130  0.00  0.00    +0.143 C 
ATOM      9  C   UNL     1      -0.489   0.411  24.538  0.00  0.00    +0.115 C 
ATOM     10  C   UNL     1      -0.941   0.995  23.176  0.00  0.00    +0.156 C 
ATOM     11  C   UNL     1       0.548   1.308  25.252  0.00  0.00    +0.166 C 
ATOM     12  C   UNL     1       0.189   3.109  24.000  0.00  0.00    +0.270 C 
ATOM     13  C   UNL     1       1.806   1.570  24.445  0.00  0.00    +0.196 C 
ENDROOT
BRANCH   8   5
ATOM      4  O   UNL     1      -5.856   2.734  26.979  0.00  0.00    -0.276 OA
ATOM      5  N   UNL     1      -2.236   3.067  23.584  0.00  0.00    -0.290 NA
ATOM      7  N   UNL     1      -4.754   2.968  24.948  0.00  0.00    -0.299 N 
ATOM     16  C   UNL     1      -3.341   2.258  23.049  0.00  0.00    +0.104 C 
ATOM     17  C   UNL     1      -2.290   3.106  25.053  0.00  0.00    +0.104 C 
ATOM     20  C   UNL     1      -4.694   2.818  23.491  0.00  0.00    +0.123 C 
ATOM     21  C   UNL     1      -3.621   3.686  25.529  0.00  0.00    +0.123 C 
ATOM     25  C   UNL     1      -5.829   2.597  25.753  0.00  0.00    +0.213 C 
ATOM     26  C   UNL     1      -7.017   1.990  25.053  0.00  0.00    +0.109 C 
ENDBRANCH   8   5
BRANCH  10   3
ATOM      3  O   UNL     1      -0.038   0.536  22.160  0.00  0.00    -0.388 OA
ATOM     28  H   UNL     1       0.482   1.301  21.857  0.00  0.00    +0.210 HD
ENDBRANCH  10   3
BRANCH   9   6
ATOM      6  N   UNL     1      -1.639   0.239  25.432  0.00  0.00    -0.308 NA
ATOM     27  H   UNL     1      -2.511   0.431  24.940  0.00  0.00    +0.122 HD
BRANCH   6  15
ATOM     15  C   UNL     1      -1.680  -1.116  25.954  0.00  0.00    +0.084 C 
BRANCH  15  14
ATOM     14  C   UNL     1      -3.118  -1.586  26.181  0.00  0.00    +0.003 C 
ATOM     18  C   UNL     1      -4.136  -0.624  25.553  0.00  0.00    +0.005 C 
ATOM     19  C   UNL     1      -3.333  -3.018  25.669  0.00  0.00    +0.005 C 
ATOM     22  C   UNL     1      -4.185  -0.714  24.029  0.00  0.00    +0.000 C 
ATOM     23  C   UNL     1      -3.382  -3.107  24.145  0.00  0.00    +0.000 C 
ATOM     24  C   UNL     1      -4.410  -2.147  23.556  0.00  0.00    +0.000 C 
ENDBRANCH  15  14
ENDBRANCH   6  15
ENDBRANCH   9   6
TORSDOF 5
ENDMDL
