MODEL 1
REMARK VINA RESULT:       0.2      0.000      0.000
REMARK  Name = 11886439
REMARK  4 active torsions:
REMARK  status: ('A' for Active; 'I' for Inactive)
REMARK    1  A    between atoms: N_4  and  C_14
REMARK    2  A    between atoms: N_6  and  C_17
REMARK    3  A    between atoms: C_14  and  C_19
REMARK    4  A    between atoms: C_24  and  C_26
REMARK                            x       y       z     vdW  Elec       q    Type
REMARK                         _______ _______ _______ _____ _____    ______ ____
ROOT
ATOM      2  O   UNL     1       0.586   2.477  26.181  0.00  0.00    -0.266 OA
ATOM      4  N   UNL     1      -4.311   1.906  25.270  0.00  0.00    -0.297 NA
ATOM      5  N   UNL     1      -1.352   3.074  25.020  0.00  0.00    -0.310 N 
ATOM      7  C   UNL     1      -3.415   4.068  26.172  0.00  0.00    +0.024 C 
ATOM      8  C   UNL     1      -3.439   3.689  23.752  0.00  0.00    +0.050 C 
ATOM      9  C   UNL     1      -3.652   4.748  24.830  0.00  0.00    +0.017 C 
ATOM     10  C   UNL     1      -4.402   2.895  26.351  0.00  0.00    +0.090 C 
ATOM     11  C   UNL     1      -4.452   2.539  23.950  0.00  0.00    +0.094 C 
ATOM     12  C   UNL     1      -1.948   3.620  26.247  0.00  0.00    +0.130 C 
ATOM     13  C   UNL     1      -2.018   3.158  23.792  0.00  0.00    +0.026 A 
ATOM     15  C   UNL     1      -1.410   2.753  22.665  0.00  0.00    +0.024 A 
ATOM     16  C   UNL     1      -0.046   2.556  25.126  0.00  0.00    +0.273 A 
ATOM     17  C   UNL     1       0.587   2.094  23.850  0.00  0.00    +0.099 A 
ATOM     18  C   UNL     1      -0.082   2.209  22.698  0.00  0.00    +0.030 A 
ENDROOT
BRANCH  17   6
ATOM      3  O   UNL     1       1.519  -0.232  22.482  0.00  0.00    -0.270 OA
ATOM      6  N   UNL     1       1.846   1.574  23.912  0.00  0.00    -0.277 N 
ATOM     24  C   UNL     1       2.239   0.436  23.220  0.00  0.00    +0.248 C 
ATOM     32  H   UNL     1       2.449   1.986  24.615  0.00  0.00    +0.155 HD
BRANCH  24  26
ATOM     26  C   UNL     1       3.659   0.034  23.394  0.00  0.00    +0.037 A 
ATOM     27  C   UNL     1       4.647   0.977  23.205  0.00  0.00    +0.013 A 
ATOM     28  C   UNL     1       3.944  -1.271  23.739  0.00  0.00    +0.013 A 
ATOM     29  C   UNL     1       5.980   0.600  23.368  0.00  0.00    +0.001 A 
ATOM     30  C   UNL     1       5.276  -1.649  23.903  0.00  0.00    +0.001 A 
ATOM     31  C   UNL     1       6.294  -0.714  23.717  0.00  0.00    +0.000 A 
ENDBRANCH  24  26
ENDBRANCH  17   6
BRANCH   4  14
ATOM     14  C   UNL     1      -5.295   0.842  25.448  0.00  0.00    +0.119 C 
BRANCH  14  19
ATOM      1  F   UNL     1      -3.198  -4.198  24.114  0.00  0.00    -0.205 F 
ATOM     19  C   UNL     1      -4.734  -0.508  25.091  0.00  0.00    -0.033 A 
ATOM     20  C   UNL     1      -5.092  -1.100  23.888  0.00  0.00    +0.008 A 
ATOM     21  C   UNL     1      -3.865  -1.140  25.969  0.00  0.00    +0.008 A 
ATOM     22  C   UNL     1      -4.571  -2.352  23.558  0.00  0.00    +0.038 A 
ATOM     23  C   UNL     1      -3.344  -2.391  25.639  0.00  0.00    +0.038 A 
ATOM     25  C   UNL     1      -3.697  -2.996  24.432  0.00  0.00    +0.123 A 
ENDBRANCH  14  19
ENDBRANCH   4  14
TORSDOF 4
ENDMDL
