MODEL 1
REMARK VINA RESULT:      -4.0      0.000      0.000
REMARK  Name = 75367744
REMARK  6 active torsions:
REMARK  status: ('A' for Active; 'I' for Inactive)
REMARK    1  A    between atoms: O_2  and  C_8
REMARK    2  A    between atoms: O_2  and  C_14
REMARK    3  A    between atoms: O_5  and  C_22
REMARK    4  A    between atoms: O_5  and  C_24
REMARK    5  A    between atoms: C_13  and  C_15
REMARK    6  A    between atoms: C_19  and  C_23
REMARK                            x       y       z     vdW  Elec       q    Type
REMARK                         _______ _______ _______ _____ _____    ______ ____
ROOT
ATOM      1  O   UNL     1      -2.909   5.002  25.286  0.00  0.00    -0.375 OA
ATOM      3  O   UNL     1      -6.191   1.272  24.617  0.00  0.00    -0.268 OA
ATOM      6  N   UNL     1      -4.089   2.307  24.516  0.00  0.00    -0.290 N 
ATOM      8  C   UNL     1      -2.119   2.717  25.946  0.00  0.00    +0.216 C 
ATOM      9  C   UNL     1      -2.623   2.217  24.594  0.00  0.00    +0.155 C 
ATOM     10  C   UNL     1      -4.650   3.648  24.322  0.00  0.00    +0.136 C 
ATOM     11  C   UNL     1      -1.963   4.239  26.023  0.00  0.00    +0.206 C 
ATOM     12  C   UNL     1      -4.267   4.607  25.444  0.00  0.00    +0.179 C 
ATOM     13  C   UNL     1      -4.963   1.219  24.648  0.00  0.00    +0.268 C 
ENDROOT
BRANCH  13  15
ATOM      4  O   UNL     1      -3.499  -1.787  25.893  0.00  0.00    -0.359 OA
ATOM      7  N   UNL     1      -3.992  -0.499  26.063  0.00  0.00    -0.073 NA
ATOM     15  C   UNL     1      -4.382  -0.115  24.845  0.00  0.00    +0.168 A 
ATOM     16  C   UNL     1      -4.162  -1.108  23.876  0.00  0.00    +0.080 A 
ATOM     19  C   UNL     1      -3.606  -2.139  24.586  0.00  0.00    +0.135 A 
ATOM     23  C   UNL     1      -3.129  -3.480  24.227  0.00  0.00    +0.089 C 
ENDBRANCH  13  15
BRANCH   8   2
ATOM      2  O   UNL     1      -0.858   2.109  26.222  0.00  0.00    -0.485 OA
BRANCH   2  14
ATOM     14  C   UNL     1      -0.247   1.470  25.180  0.00  0.00    +0.121 A 
ATOM     17  C   UNL     1      -0.594   0.155  24.867  0.00  0.00    +0.049 A 
ATOM     18  C   UNL     1       0.724   2.132  24.428  0.00  0.00    +0.049 A 
ATOM     20  C   UNL     1       0.030  -0.496  23.804  0.00  0.00    +0.049 A 
ATOM     21  C   UNL     1       1.349   1.479  23.365  0.00  0.00    +0.049 A 
ATOM     22  C   UNL     1       1.001   0.165  23.053  0.00  0.00    +0.120 A 
BRANCH  22   5
ATOM      5  O   UNL     1       1.610  -0.471  22.015  0.00  0.00    -0.495 OA
ATOM     24  C   UNL     1       2.948  -0.077  21.709  0.00  0.00    +0.277 C 
ENDBRANCH  22   5
ENDBRANCH   2  14
ENDBRANCH   8   2
TORSDOF 4
ENDMDL
MODEL 2
REMARK VINA RESULT:      -2.7      2.006      5.038
REMARK  Name = 75367744
REMARK  6 active torsions:
REMARK  status: ('A' for Active; 'I' for Inactive)
REMARK    1  A    between atoms: O_2  and  C_8
REMARK    2  A    between atoms: O_2  and  C_14
REMARK    3  A    between atoms: O_5  and  C_22
REMARK    4  A    between atoms: O_5  and  C_24
REMARK    5  A    between atoms: C_13  and  C_15
REMARK    6  A    between atoms: C_19  and  C_23
REMARK                            x       y       z     vdW  Elec       q    Type
REMARK                         _______ _______ _______ _____ _____    ______ ____
ROOT
ATOM      1  O   UNL     1      -0.992  -3.145  25.289  0.00  0.00    -0.375 OA
ATOM      3  O   UNL     1      -5.096  -1.000  23.369  0.00  0.00    -0.268 OA
ATOM      6  N   UNL     1      -3.396  -1.312  24.953  0.00  0.00    -0.290 N 
ATOM      8  C   UNL     1      -1.055  -0.640  25.365  0.00  0.00    +0.216 C 
ATOM      9  C   UNL     1      -2.464  -0.752  25.945  0.00  0.00    +0.155 C 
ATOM     10  C   UNL     1      -3.294  -2.753  24.704  0.00  0.00    +0.136 C 
ATOM     11  C   UNL     1      -0.250  -1.941  25.440  0.00  0.00    +0.206 C 
ATOM     12  C   UNL     1      -1.913  -3.161  24.204  0.00  0.00    +0.179 C 
ATOM     13  C   UNL     1      -4.329  -0.561  24.224  0.00  0.00    +0.268 C 
ENDROOT
BRANCH  13  15
ATOM      4  O   UNL     1      -3.973   2.988  24.285  0.00  0.00    -0.359 OA
ATOM      7  N   UNL     1      -3.647   1.729  23.795  0.00  0.00    -0.073 NA
ATOM     15  C   UNL     1      -4.412   0.881  24.486  0.00  0.00    +0.168 A 
ATOM     16  C   UNL     1      -5.233   1.539  25.417  0.00  0.00    +0.080 A 
ATOM     19  C   UNL     1      -4.919   2.861  25.251  0.00  0.00    +0.135 A 
ATOM     23  C   UNL     1      -5.382   4.103  25.881  0.00  0.00    +0.089 C 
ENDBRANCH  13  15
BRANCH   8   2
ATOM      2  O   UNL     1      -0.349   0.382  26.065  0.00  0.00    -0.485 OA
BRANCH   2  14
ATOM     14  C   UNL     1      -0.522   1.662  25.617  0.00  0.00    +0.121 A 
ATOM     17  C   UNL     1       0.010   2.050  24.388  0.00  0.00    +0.049 A 
ATOM     18  C   UNL     1      -1.232   2.581  26.390  0.00  0.00    +0.049 A 
ATOM     20  C   UNL     1      -0.167   3.355  23.932  0.00  0.00    +0.049 A 
ATOM     21  C   UNL     1      -1.409   3.887  25.934  0.00  0.00    +0.049 A 
ATOM     22  C   UNL     1      -0.876   4.274  24.704  0.00  0.00    +0.120 A 
BRANCH  22   5
ATOM      5  O   UNL     1      -1.050   5.548  24.259  0.00  0.00    -0.495 OA
ATOM     24  C   UNL     1      -2.038   6.337  24.921  0.00  0.00    +0.277 C 
ENDBRANCH  22   5
ENDBRANCH   2  14
ENDBRANCH   8   2
TORSDOF 4
ENDMDL
MODEL 3
REMARK VINA RESULT:      -2.6      1.775      4.281
REMARK  Name = 75367744
REMARK  6 active torsions:
REMARK  status: ('A' for Active; 'I' for Inactive)
REMARK    1  A    between atoms: O_2  and  C_8
REMARK    2  A    between atoms: O_2  and  C_14
REMARK    3  A    between atoms: O_5  and  C_22
REMARK    4  A    between atoms: O_5  and  C_24
REMARK    5  A    between atoms: C_13  and  C_15
REMARK    6  A    between atoms: C_19  and  C_23
REMARK                            x       y       z     vdW  Elec       q    Type
REMARK                         _______ _______ _______ _____ _____    ______ ____
ROOT
ATOM      1  O   UNL     1      -6.040   3.473  26.182  0.00  0.00    -0.375 OA
ATOM      3  O   UNL     1      -1.425   4.548  24.547  0.00  0.00    -0.268 OA
ATOM      6  N   UNL     1      -3.101   3.184  25.457  0.00  0.00    -0.290 N 
ATOM      8  C   UNL     1      -4.966   1.743  24.721  0.00  0.00    +0.216 C 
ATOM      9  C   UNL     1      -3.722   1.858  25.600  0.00  0.00    +0.155 C 
ATOM     10  C   UNL     1      -3.779   4.297  26.127  0.00  0.00    +0.136 C 
ATOM     11  C   UNL     1      -6.229   2.330  25.357  0.00  0.00    +0.206 C 
ATOM     12  C   UNL     1      -5.209   4.490  25.633  0.00  0.00    +0.179 C 
ATOM     13  C   UNL     1      -1.946   3.446  24.707  0.00  0.00    +0.268 C 
ENDROOT
BRANCH  13  15
ATOM      4  O   UNL     1      -0.987   0.717  22.618  0.00  0.00    -0.359 OA
ATOM      7  N   UNL     1      -1.867   1.724  22.997  0.00  0.00    -0.073 NA
ATOM     15  C   UNL     1      -1.283   2.318  24.041  0.00  0.00    +0.168 A 
ATOM     16  C   UNL     1      -0.045   1.736  24.364  0.00  0.00    +0.080 A 
ATOM     19  C   UNL     1       0.095   0.735  23.439  0.00  0.00    +0.135 A 
ATOM     23  C   UNL     1       1.133  -0.269  23.178  0.00  0.00    +0.089 C 
ENDBRANCH  13  15
BRANCH   8   2
ATOM      2  O   UNL     1      -5.195   0.367  24.426  0.00  0.00    -0.485 OA
BRANCH   2  14
ATOM     14  C   UNL     1      -4.132  -0.479  24.587  0.00  0.00    +0.121 A 
ATOM     17  C   UNL     1      -3.193  -0.236  25.589  0.00  0.00    +0.049 A 
ATOM     18  C   UNL     1      -3.988  -1.585  23.750  0.00  0.00    +0.049 A 
ATOM     20  C   UNL     1      -2.110  -1.098  25.753  0.00  0.00    +0.049 A 
ATOM     21  C   UNL     1      -2.903  -2.447  23.914  0.00  0.00    +0.049 A 
ATOM     22  C   UNL     1      -1.964  -2.203  24.916  0.00  0.00    +0.120 A 
BRANCH  22   5
ATOM      5  O   UNL     1      -0.907  -3.045  25.077  0.00  0.00    -0.495 OA
ATOM     24  C   UNL     1       0.270  -2.502  25.674  0.00  0.00    +0.277 C 
ENDBRANCH  22   5
ENDBRANCH   2  14
ENDBRANCH   8   2
TORSDOF 4
ENDMDL
MODEL 4
REMARK VINA RESULT:      -2.5      1.823      2.466
REMARK  Name = 75367744
REMARK  6 active torsions:
REMARK  status: ('A' for Active; 'I' for Inactive)
REMARK    1  A    between atoms: O_2  and  C_8
REMARK    2  A    between atoms: O_2  and  C_14
REMARK    3  A    between atoms: O_5  and  C_22
REMARK    4  A    between atoms: O_5  and  C_24
REMARK    5  A    between atoms: C_13  and  C_15
REMARK    6  A    between atoms: C_19  and  C_23
REMARK                            x       y       z     vdW  Elec       q    Type
REMARK                         _______ _______ _______ _____ _____    ______ ____
ROOT
ATOM      1  O   UNL     1      -1.634   5.885  25.058  0.00  0.00    -0.375 OA
ATOM      3  O   UNL     1      -5.649   2.894  25.314  0.00  0.00    -0.268 OA
ATOM      6  N   UNL     1      -3.609   3.654  24.445  0.00  0.00    -0.290 N 
ATOM      8  C   UNL     1      -1.184   3.428  24.852  0.00  0.00    +0.216 C 
ATOM      9  C   UNL     1      -2.308   3.368  23.820  0.00  0.00    +0.155 C 
ATOM     10  C   UNL     1      -3.877   5.056  24.778  0.00  0.00    +0.136 C 
ATOM     11  C   UNL     1      -0.668   4.844  25.124  0.00  0.00    +0.206 C 
ATOM     12  C   UNL     1      -2.852   5.630  25.750  0.00  0.00    +0.179 C 
ATOM     13  C   UNL     1      -4.569   2.685  24.765  0.00  0.00    +0.268 C 
ENDROOT
BRANCH  13  15
ATOM      4  O   UNL     1      -3.493  -0.389  23.307  0.00  0.00    -0.359 OA
ATOM      7  N   UNL     1      -3.583   0.998  23.324  0.00  0.00    -0.073 NA
ATOM     15  C   UNL     1      -4.280   1.286  24.426  0.00  0.00    +0.168 A 
ATOM     16  C   UNL     1      -4.654   0.134  25.138  0.00  0.00    +0.080 A 
ATOM     19  C   UNL     1      -4.135  -0.892  24.393  0.00  0.00    +0.135 A 
ATOM     23  C   UNL     1      -4.138  -2.353  24.534  0.00  0.00    +0.089 C 
ENDBRANCH  13  15
BRANCH   8   2
ATOM      2  O   UNL     1      -0.099   2.620  24.400  0.00  0.00    -0.485 OA
BRANCH   2  14
ATOM     14  C   UNL     1      -0.245   1.268  24.540  0.00  0.00    +0.121 A 
ATOM     17  C   UNL     1       0.202   0.409  23.536  0.00  0.00    +0.049 A 
ATOM     18  C   UNL     1      -0.841   0.745  25.688  0.00  0.00    +0.049 A 
ATOM     20  C   UNL     1       0.053  -0.969  23.679  0.00  0.00    +0.049 A 
ATOM     21  C   UNL     1      -0.991  -0.634  25.831  0.00  0.00    +0.049 A 
ATOM     22  C   UNL     1      -0.543  -1.492  24.826  0.00  0.00    +0.120 A 
BRANCH  22   5
ATOM      5  O   UNL     1      -0.688  -2.837  24.966  0.00  0.00    -0.495 OA
ATOM     24  C   UNL     1      -1.507  -3.505  24.006  0.00  0.00    +0.277 C 
ENDBRANCH  22   5
ENDBRANCH   2  14
ENDBRANCH   8   2
TORSDOF 4
ENDMDL
MODEL 5
REMARK VINA RESULT:      -1.9      1.999      5.945
REMARK  Name = 75367744
REMARK  6 active torsions:
REMARK  status: ('A' for Active; 'I' for Inactive)
REMARK    1  A    between atoms: O_2  and  C_8
REMARK    2  A    between atoms: O_2  and  C_14
REMARK    3  A    between atoms: O_5  and  C_22
REMARK    4  A    between atoms: O_5  and  C_24
REMARK    5  A    between atoms: C_13  and  C_15
REMARK    6  A    between atoms: C_19  and  C_23
REMARK                            x       y       z     vdW  Elec       q    Type
REMARK                         _______ _______ _______ _____ _____    ______ ____
ROOT
ATOM      1  O   UNL     1      -4.338  -3.069  23.865  0.00  0.00    -0.375 OA
ATOM      3  O   UNL     1       0.076  -1.657  25.776  0.00  0.00    -0.268 OA
ATOM      6  N   UNL     1      -1.750  -1.535  24.311  0.00  0.00    -0.290 N 
ATOM      8  C   UNL     1      -4.036  -0.606  24.220  0.00  0.00    +0.216 C 
ATOM      9  C   UNL     1      -2.687  -0.729  23.513  0.00  0.00    +0.155 C 
ATOM     10  C   UNL     1      -1.974  -2.983  24.313  0.00  0.00    +0.136 C 
ATOM     11  C   UNL     1      -4.967  -1.800  23.988  0.00  0.00    +0.206 C 
ATOM     12  C   UNL     1      -3.351  -3.358  24.850  0.00  0.00    +0.179 C 
ATOM     13  C   UNL     1      -0.701  -1.009  25.078  0.00  0.00    +0.268 C 
ENDROOT
BRANCH  13  15
ATOM      4  O   UNL     1      -0.396   2.467  25.822  0.00  0.00    -0.359 OA
ATOM      7  N   UNL     1      -0.667   1.153  26.183  0.00  0.00    -0.073 NA
ATOM     15  C   UNL     1      -0.495   0.445  25.064  0.00  0.00    +0.168 A 
ATOM     16  C   UNL     1      -0.119   1.249  23.975  0.00  0.00    +0.080 A 
ATOM     19  C   UNL     1      -0.071   2.511  24.504  0.00  0.00    +0.135 A 
ATOM     23  C   UNL     1       0.248   3.834  23.952  0.00  0.00    +0.089 C 
ENDBRANCH  13  15
BRANCH   8   2
ATOM      2  O   UNL     1      -4.685   0.581  23.769  0.00  0.00    -0.485 OA
BRANCH   2  14
ATOM     14  C   UNL     1      -4.216   1.763  24.271  0.00  0.00    +0.121 A 
ATOM     17  C   UNL     1      -4.221   1.989  25.648  0.00  0.00    +0.049 A 
ATOM     18  C   UNL     1      -3.730   2.744  23.406  0.00  0.00    +0.049 A 
ATOM     20  C   UNL     1      -3.742   3.194  26.159  0.00  0.00    +0.049 A 
ATOM     21  C   UNL     1      -3.252   3.950  23.918  0.00  0.00    +0.049 A 
ATOM     22  C   UNL     1      -3.258   4.175  25.295  0.00  0.00    +0.120 A 
BRANCH  22   5
ATOM      5  O   UNL     1      -2.790   5.352  25.793  0.00  0.00    -0.495 OA
ATOM     24  C   UNL     1      -1.691   5.954  25.109  0.00  0.00    +0.277 C 
ENDBRANCH  22   5
ENDBRANCH   2  14
ENDBRANCH   8   2
TORSDOF 4
ENDMDL
MODEL 6
REMARK VINA RESULT:      -1.7      1.674      5.361
REMARK  Name = 75367744
REMARK  6 active torsions:
REMARK  status: ('A' for Active; 'I' for Inactive)
REMARK    1  A    between atoms: O_2  and  C_8
REMARK    2  A    between atoms: O_2  and  C_14
REMARK    3  A    between atoms: O_5  and  C_22
REMARK    4  A    between atoms: O_5  and  C_24
REMARK    5  A    between atoms: C_13  and  C_15
REMARK    6  A    between atoms: C_19  and  C_23
REMARK                            x       y       z     vdW  Elec       q    Type
REMARK                         _______ _______ _______ _____ _____    ______ ____
ROOT
ATOM      1  O   UNL     1       2.128   0.781  23.306  0.00  0.00    -0.375 OA
ATOM      3  O   UNL     1      -1.760  -2.379  23.487  0.00  0.00    -0.268 OA
ATOM      6  N   UNL     1      -0.342  -0.693  24.292  0.00  0.00    -0.290 N 
ATOM      8  C   UNL     1      -0.033   1.751  24.124  0.00  0.00    +0.216 C 
ATOM      9  C   UNL     1      -0.151   0.548  25.058  0.00  0.00    +0.155 C 
ATOM     10  C   UNL     1       0.842  -1.230  23.615  0.00  0.00    +0.136 C 
ATOM     11  C   UNL     1       1.375   1.960  23.559  0.00  0.00    +0.206 C 
ATOM     12  C   UNL     1       1.433  -0.248  22.610  0.00  0.00    +0.179 C 
ATOM     13  C   UNL     1      -1.568  -1.358  24.146  0.00  0.00    +0.268 C 
ENDROOT
BRANCH  13  15
ATOM      4  O   UNL     1      -4.089  -0.341  26.457  0.00  0.00    -0.359 OA
ATOM      7  N   UNL     1      -2.897  -0.984  26.143  0.00  0.00    -0.073 NA
ATOM     15  C   UNL     1      -2.742  -0.803  24.829  0.00  0.00    +0.168 A 
ATOM     16  C   UNL     1      -3.794  -0.061  24.265  0.00  0.00    +0.080 A 
ATOM     19  C   UNL     1      -4.613   0.205  25.329  0.00  0.00    +0.135 A 
ATOM     23  C   UNL     1      -5.882   0.928  25.480  0.00  0.00    +0.089 C 
ENDBRANCH  13  15
BRANCH   8   2
ATOM      2  O   UNL     1      -0.426   2.925  24.832  0.00  0.00    -0.485 OA
BRANCH   2  14
ATOM     14  C   UNL     1      -1.768   3.182  24.893  0.00  0.00    +0.121 A 
ATOM     17  C   UNL     1      -2.552   3.079  23.744  0.00  0.00    +0.049 A 
ATOM     18  C   UNL     1      -2.353   3.547  26.105  0.00  0.00    +0.049 A 
ATOM     20  C   UNL     1      -3.919   3.341  23.806  0.00  0.00    +0.049 A 
ATOM     21  C   UNL     1      -3.722   3.810  26.167  0.00  0.00    +0.049 A 
ATOM     22  C   UNL     1      -4.505   3.707  25.018  0.00  0.00    +0.120 A 
BRANCH  22   5
ATOM      5  O   UNL     1      -5.840   3.962  25.080  0.00  0.00    -0.495 OA
ATOM     24  C   UNL     1      -6.231   5.260  25.526  0.00  0.00    +0.277 C 
ENDBRANCH  22   5
ENDBRANCH   2  14
ENDBRANCH   8   2
TORSDOF 4
ENDMDL
MODEL 7
REMARK VINA RESULT:      -1.6      2.095      4.274
REMARK  Name = 75367744
REMARK  6 active torsions:
REMARK  status: ('A' for Active; 'I' for Inactive)
REMARK    1  A    between atoms: O_2  and  C_8
REMARK    2  A    between atoms: O_2  and  C_14
REMARK    3  A    between atoms: O_5  and  C_22
REMARK    4  A    between atoms: O_5  and  C_24
REMARK    5  A    between atoms: C_13  and  C_15
REMARK    6  A    between atoms: C_19  and  C_23
REMARK                            x       y       z     vdW  Elec       q    Type
REMARK                         _______ _______ _______ _____ _____    ______ ____
ROOT
ATOM      1  O   UNL     1      -4.612   4.779  25.386  0.00  0.00    -0.375 OA
ATOM      3  O   UNL     1      -0.141   3.400  23.585  0.00  0.00    -0.268 OA
ATOM      6  N   UNL     1      -1.972   3.306  25.047  0.00  0.00    -0.290 N 
ATOM      8  C   UNL     1      -4.227   2.310  25.183  0.00  0.00    +0.216 C 
ATOM      9  C   UNL     1      -2.889   2.520  25.887  0.00  0.00    +0.155 C 
ATOM     10  C   UNL     1      -2.244   4.744  24.955  0.00  0.00    +0.136 C 
ATOM     11  C   UNL     1      -5.199   3.485  25.338  0.00  0.00    +0.206 C 
ATOM     12  C   UNL     1      -3.629   5.040  24.390  0.00  0.00    +0.179 C 
ATOM     13  C   UNL     1      -0.902   2.770  24.318  0.00  0.00    +0.268 C 
ENDROOT
BRANCH  13  15
ATOM      4  O   UNL     1      -0.186  -0.683  23.772  0.00  0.00    -0.359 OA
ATOM      7  N   UNL     1      -0.365   0.620  23.324  0.00  0.00    -0.073 NA
ATOM     15  C   UNL     1      -0.649   1.327  24.421  0.00  0.00    +0.168 A 
ATOM     16  C   UNL     1      -0.662   0.533  25.580  0.00  0.00    +0.080 A 
ATOM     19  C   UNL     1      -0.365  -0.722  25.118  0.00  0.00    +0.135 A 
ATOM     23  C   UNL     1      -0.211  -2.032  25.762  0.00  0.00    +0.089 C 
ENDBRANCH  13  15
BRANCH   8   2
ATOM      2  O   UNL     1      -4.841   1.132  25.702  0.00  0.00    -0.485 OA
BRANCH   2  14
ATOM     14  C   UNL     1      -4.365  -0.061  25.235  0.00  0.00    +0.121 A 
ATOM     17  C   UNL     1      -4.316  -0.305  23.862  0.00  0.00    +0.049 A 
ATOM     18  C   UNL     1      -3.928  -1.037  26.131  0.00  0.00    +0.049 A 
ATOM     20  C   UNL     1      -3.831  -1.522  23.386  0.00  0.00    +0.049 A 
ATOM     21  C   UNL     1      -3.443  -2.255  25.655  0.00  0.00    +0.049 A 
ATOM     22  C   UNL     1      -3.395  -2.497  24.282  0.00  0.00    +0.120 A 
BRANCH  22   5
ATOM      5  O   UNL     1      -2.921  -3.685  23.818  0.00  0.00    -0.495 OA
ATOM     24  C   UNL     1      -1.647  -3.668  23.175  0.00  0.00    +0.277 C 
ENDBRANCH  22   5
ENDBRANCH   2  14
ENDBRANCH   8   2
TORSDOF 4
ENDMDL
MODEL 8
REMARK VINA RESULT:      -1.3      2.157      6.622
REMARK  Name = 75367744
REMARK  6 active torsions:
REMARK  status: ('A' for Active; 'I' for Inactive)
REMARK    1  A    between atoms: O_2  and  C_8
REMARK    2  A    between atoms: O_2  and  C_14
REMARK    3  A    between atoms: O_5  and  C_22
REMARK    4  A    between atoms: O_5  and  C_24
REMARK    5  A    between atoms: C_13  and  C_15
REMARK    6  A    between atoms: C_19  and  C_23
REMARK                            x       y       z     vdW  Elec       q    Type
REMARK                         _______ _______ _______ _____ _____    ______ ____
ROOT
ATOM      1  O   UNL     1      -1.295  -2.264  24.196  0.00  0.00    -0.375 OA
ATOM      3  O   UNL     1       0.851   1.706  26.378  0.00  0.00    -0.268 OA
ATOM      6  N   UNL     1      -0.435   0.598  24.762  0.00  0.00    -0.290 N 
ATOM      8  C   UNL     1      -2.738  -0.227  24.424  0.00  0.00    +0.216 C 
ATOM      9  C   UNL     1      -1.583   0.584  23.841  0.00  0.00    +0.155 C 
ATOM     10  C   UNL     1       0.357  -0.633  24.834  0.00  0.00    +0.136 C 
ATOM     11  C   UNL     1      -2.615  -1.736  24.189  0.00  0.00    +0.206 C 
ATOM     12  C   UNL     1      -0.473  -1.834  25.276  0.00  0.00    +0.179 C 
ATOM     13  C   UNL     1      -0.084   1.681  25.580  0.00  0.00    +0.268 C 
ENDROOT
BRANCH  13  15
ATOM      4  O   UNL     1      -2.475   4.301  25.955  0.00  0.00    -0.359 OA
ATOM      7  N   UNL     1      -1.951   3.060  26.292  0.00  0.00    -0.073 NA
ATOM     15  C   UNL     1      -0.891   2.903  25.494  0.00  0.00    +0.168 A 
ATOM     16  C   UNL     1      -0.699   4.002  24.640  0.00  0.00    +0.080 A 
ATOM     19  C   UNL     1      -1.720   4.853  24.970  0.00  0.00    +0.135 A 
ATOM     23  C   UNL     1      -2.136   6.177  24.490  0.00  0.00    +0.089 C 
ENDBRANCH  13  15
BRANCH   8   2
ATOM      2  O   UNL     1      -3.960   0.232  23.849  0.00  0.00    -0.485 OA
BRANCH   2  14
ATOM     14  C   UNL     1      -4.515   1.350  24.407  0.00  0.00    +0.121 A 
ATOM     17  C   UNL     1      -5.277   1.245  25.570  0.00  0.00    +0.049 A 
ATOM     18  C   UNL     1      -4.320   2.597  23.812  0.00  0.00    +0.049 A 
ATOM     20  C   UNL     1      -5.844   2.386  26.138  0.00  0.00    +0.049 A 
ATOM     21  C   UNL     1      -4.887   3.737  24.380  0.00  0.00    +0.049 A 
ATOM     22  C   UNL     1      -5.649   3.631  25.543  0.00  0.00    +0.120 A 
BRANCH  22   5
ATOM      5  O   UNL     1      -6.202   4.745  26.097  0.00  0.00    -0.495 OA
ATOM     24  C   UNL     1      -6.537   5.812  25.211  0.00  0.00    +0.277 C 
ENDBRANCH  22   5
ENDBRANCH   2  14
ENDBRANCH   8   2
TORSDOF 4
ENDMDL
MODEL 9
REMARK VINA RESULT:      -0.8      2.168      4.332
REMARK  Name = 75367744
REMARK  6 active torsions:
REMARK  status: ('A' for Active; 'I' for Inactive)
REMARK    1  A    between atoms: O_2  and  C_8
REMARK    2  A    between atoms: O_2  and  C_14
REMARK    3  A    between atoms: O_5  and  C_22
REMARK    4  A    between atoms: O_5  and  C_24
REMARK    5  A    between atoms: C_13  and  C_15
REMARK    6  A    between atoms: C_19  and  C_23
REMARK                            x       y       z     vdW  Elec       q    Type
REMARK                         _______ _______ _______ _____ _____    ______ ____
ROOT
ATOM      1  O   UNL     1       0.778   2.871  24.346  0.00  0.00    -0.375 OA
ATOM      3  O   UNL     1      -3.834   4.765  23.821  0.00  0.00    -0.268 OA
ATOM      6  N   UNL     1      -2.236   3.057  23.986  0.00  0.00    -0.290 N 
ATOM      8  C   UNL     1      -1.017   1.775  25.709  0.00  0.00    +0.216 C 
ATOM      9  C   UNL     1      -1.860   1.708  24.437  0.00  0.00    +0.155 C 
ATOM     10  C   UNL     1      -1.181   3.847  23.345  0.00  0.00    +0.136 C 
ATOM     11  C   UNL     1       0.471   2.032  25.452  0.00  0.00    +0.206 C 
ATOM     12  C   UNL     1       0.017   4.071  24.260  0.00  0.00    +0.179 C 
ATOM     13  C   UNL     1      -3.503   3.630  24.160  0.00  0.00    +0.268 C 
ENDROOT
BRANCH  13  15
ATOM      4  O   UNL     1      -6.085   1.319  25.012  0.00  0.00    -0.359 OA
ATOM      7  N   UNL     1      -5.184   1.878  24.114  0.00  0.00    -0.073 NA
ATOM     15  C   UNL     1      -4.545   2.823  24.808  0.00  0.00    +0.168 A 
ATOM     16  C   UNL     1      -4.996   2.907  26.136  0.00  0.00    +0.080 A 
ATOM     19  C   UNL     1      -5.963   1.941  26.213  0.00  0.00    +0.135 A 
ATOM     23  C   UNL     1      -6.847   1.471  27.286  0.00  0.00    +0.089 C 
ENDBRANCH  13  15
BRANCH   8   2
ATOM      2  O   UNL     1      -1.158   0.547  26.420  0.00  0.00    -0.485 OA
BRANCH   2  14
ATOM     14  C   UNL     1      -1.805  -0.466  25.769  0.00  0.00    +0.121 A 
ATOM     17  C   UNL     1      -3.198  -0.537  25.797  0.00  0.00    +0.049 A 
ATOM     18  C   UNL     1      -1.073  -1.430  25.075  0.00  0.00    +0.049 A 
ATOM     20  C   UNL     1      -3.858  -1.570  25.133  0.00  0.00    +0.049 A 
ATOM     21  C   UNL     1      -1.734  -2.464  24.412  0.00  0.00    +0.049 A 
ATOM     22  C   UNL     1      -3.126  -2.534  24.441  0.00  0.00    +0.120 A 
BRANCH  22   5
ATOM      5  O   UNL     1      -3.770  -3.542  23.792  0.00  0.00    -0.495 OA
ATOM     24  C   UNL     1      -5.064  -3.252  23.265  0.00  0.00    +0.277 C 
ENDBRANCH  22   5
ENDBRANCH   2  14
ENDBRANCH   8   2
TORSDOF 4
ENDMDL
MODEL 10
REMARK VINA RESULT:      -0.7      1.689      5.451
REMARK  Name = 75367744
REMARK  6 active torsions:
REMARK  status: ('A' for Active; 'I' for Inactive)
REMARK    1  A    between atoms: O_2  and  C_8
REMARK    2  A    between atoms: O_2  and  C_14
REMARK    3  A    between atoms: O_5  and  C_22
REMARK    4  A    between atoms: O_5  and  C_24
REMARK    5  A    between atoms: C_13  and  C_15
REMARK    6  A    between atoms: C_19  and  C_23
REMARK                            x       y       z     vdW  Elec       q    Type
REMARK                         _______ _______ _______ _____ _____    ______ ____
ROOT
ATOM      1  O   UNL     1       1.737   0.603  23.741  0.00  0.00    -0.375 OA
ATOM      3  O   UNL     1      -2.527  -2.032  23.759  0.00  0.00    -0.268 OA
ATOM      6  N   UNL     1      -1.020  -0.411  24.531  0.00  0.00    -0.290 N 
ATOM      8  C   UNL     1      -0.366   1.926  24.074  0.00  0.00    +0.216 C 
ATOM      9  C   UNL     1      -0.769   0.906  25.137  0.00  0.00    +0.155 C 
ATOM     10  C   UNL     1       0.163  -1.177  24.126  0.00  0.00    +0.136 C 
ATOM     11  C   UNL     1       1.122   1.884  23.710  0.00  0.00    +0.206 C 
ATOM     12  C   UNL     1       1.011  -0.438  23.097  0.00  0.00    +0.179 C 
ATOM     13  C   UNL     1      -2.292  -0.949  24.291  0.00  0.00    +0.268 C 
ENDROOT
BRANCH  13  15
ATOM      4  O   UNL     1      -5.132   1.199  24.521  0.00  0.00    -0.359 OA
ATOM      7  N   UNL     1      -4.090   0.611  23.814  0.00  0.00    -0.073 NA
ATOM     15  C   UNL     1      -3.463  -0.165  24.701  0.00  0.00    +0.168 A 
ATOM     16  C   UNL     1      -4.057  -0.108  25.974  0.00  0.00    +0.080 A 
ATOM     19  C   UNL     1      -5.101   0.762  25.807  0.00  0.00    +0.135 A 
ATOM     23  C   UNL     1      -6.140   1.287  26.702  0.00  0.00    +0.089 C 
ENDBRANCH  13  15
BRANCH   8   2
ATOM      2  O   UNL     1      -0.690   3.233  24.543  0.00  0.00    -0.485 OA
BRANCH   2  14
ATOM     14  C   UNL     1      -2.010   3.479  24.803  0.00  0.00    +0.121 A 
ATOM     17  C   UNL     1      -2.441   3.660  26.117  0.00  0.00    +0.049 A 
ATOM     18  C   UNL     1      -2.925   3.551  23.752  0.00  0.00    +0.049 A 
ATOM     20  C   UNL     1      -3.787   3.911  26.380  0.00  0.00    +0.049 A 
ATOM     21  C   UNL     1      -4.272   3.801  24.017  0.00  0.00    +0.049 A 
ATOM     22  C   UNL     1      -4.702   3.981  25.331  0.00  0.00    +0.120 A 
BRANCH  22   5
ATOM      5  O   UNL     1      -6.016   4.227  25.588  0.00  0.00    -0.495 OA
ATOM     24  C   UNL     1      -6.492   5.547  25.328  0.00  0.00    +0.277 C 
ENDBRANCH  22   5
ENDBRANCH   2  14
ENDBRANCH   8   2
TORSDOF 4
ENDMDL
