MODEL 1
REMARK VINA RESULT:      -6.1      0.000      0.000
REMARK  Name = 75536679
REMARK  7 active torsions:
REMARK  status: ('A' for Active; 'I' for Inactive)
REMARK    1  A    between atoms: S_1  and  N_9
REMARK    2  A    between atoms: S_1  and  C_21
REMARK    3  A    between atoms: O_5  and  C_12
REMARK    4  A    between atoms: N_8  and  C_10
REMARK    5  A    between atoms: N_8  and  C_11
REMARK    6  A    between atoms: N_9  and  C_20
REMARK    7  A    between atoms: C_13  and  C_20
REMARK                            x       y       z     vdW  Elec       q    Type
REMARK                         _______ _______ _______ _____ _____    ______ ____
ROOT
ATOM      4  O   UNL     1      -0.173   2.947  23.287  0.00  0.00    -0.371 OA
ATOM     10  C   UNL     1      -0.844   3.797  25.401  0.00  0.00    +0.111 C 
ATOM     12  C   UNL     1      -0.168   2.453  25.599  0.00  0.00    +0.164 C 
ATOM     13  C   UNL     1       0.629   2.331  24.308  0.00  0.00    +0.164 C 
ATOM     16  C   UNL     1      -1.188   3.745  23.921  0.00  0.00    +0.181 C 
ENDROOT
BRANCH  12   5
ATOM      5  O   UNL     1       0.667   2.425  26.740  0.00  0.00    -0.388 OA
ATOM     28  H   UNL     1       0.356   3.102  27.364  0.00  0.00    +0.210 HD
ENDBRANCH  12   5
BRANCH  10   8
ATOM      8  N   UNL     1      -2.010   3.994  26.246  0.00  0.00    -0.306 NA
ATOM     27  H   UNL     1      -2.023   4.946  26.612  0.00  0.00    +0.123 HD
BRANCH   8  11
ATOM      2  F   UNL     1      -6.876   2.012  24.416  0.00  0.00    -0.206 F 
ATOM      3  F   UNL     1      -5.759   1.351  26.161  0.00  0.00    -0.206 F 
ATOM     11  C   UNL     1      -3.240   3.729  25.502  0.00  0.00    +0.054 C 
ATOM     14  C   UNL     1      -3.230   2.291  24.974  0.00  0.00    +0.024 C 
ATOM     15  C   UNL     1      -4.457   3.983  26.401  0.00  0.00    +0.024 C 
ATOM     17  C   UNL     1      -4.534   1.955  24.251  0.00  0.00    +0.077 C 
ATOM     18  C   UNL     1      -5.761   3.649  25.679  0.00  0.00    +0.077 C 
ATOM     19  C   UNL     1      -5.743   2.233  25.127  0.00  0.00    +0.249 C 
ENDBRANCH   8  11
ENDBRANCH  10   8
BRANCH  13  20
ATOM     20  C   UNL     1       0.936   0.895  23.924  0.00  0.00    +0.140 C 
BRANCH  20   9
ATOM      9  N   UNL     1      -0.316   0.112  23.894  0.00  0.00    -0.187 NA
ATOM     29  H   UNL     1      -1.095   0.536  23.375  0.00  0.00    +0.148 HD
BRANCH   9   1
ATOM      1  S   UNL     1      -0.678  -0.965  25.161  0.00  0.00    +0.058 S 
ATOM      6  O   UNL     1      -0.928  -0.211  26.375  0.00  0.00    -0.153 OA
ATOM      7  O   UNL     1       0.294  -2.040  25.159  0.00  0.00    -0.153 OA
BRANCH   1  21
ATOM     21  C   UNL     1      -2.213  -1.654  24.623  0.00  0.00    +0.105 A 
ATOM     22  C   UNL     1      -3.272  -0.813  24.277  0.00  0.00    +0.028 A 
ATOM     23  C   UNL     1      -2.369  -3.038  24.548  0.00  0.00    +0.028 A 
ATOM     24  C   UNL     1      -4.485  -1.356  23.857  0.00  0.00    +0.002 A 
ATOM     25  C   UNL     1      -3.583  -3.581  24.127  0.00  0.00    +0.002 A 
ATOM     26  C   UNL     1      -4.641  -2.740  23.781  0.00  0.00    +0.000 A 
ENDBRANCH   1  21
ENDBRANCH   9   1
ENDBRANCH  20   9
ENDBRANCH  13  20
TORSDOF 7
ENDMDL
MODEL 2
REMARK VINA RESULT:      -6.1      4.084      6.441
REMARK  Name = 75536679
REMARK  7 active torsions:
REMARK  status: ('A' for Active; 'I' for Inactive)
REMARK    1  A    between atoms: S_1  and  N_9
REMARK    2  A    between atoms: S_1  and  C_21
REMARK    3  A    between atoms: O_5  and  C_12
REMARK    4  A    between atoms: N_8  and  C_10
REMARK    5  A    between atoms: N_8  and  C_11
REMARK    6  A    between atoms: N_9  and  C_20
REMARK    7  A    between atoms: C_13  and  C_20
REMARK                            x       y       z     vdW  Elec       q    Type
REMARK                         _______ _______ _______ _____ _____    ______ ____
ROOT
ATOM      4  O   UNL     1      -0.922   0.864  25.776  0.00  0.00    -0.371 OA
ATOM     10  C   UNL     1       0.689   0.747  24.034  0.00  0.00    +0.111 C 
ATOM     12  C   UNL     1      -0.098   2.036  23.895  0.00  0.00    +0.164 C 
ATOM     13  C   UNL     1      -0.654   2.195  25.303  0.00  0.00    +0.164 C 
ATOM     16  C   UNL     1      -0.229  -0.070  24.930  0.00  0.00    +0.181 C 
ENDROOT
BRANCH  12   5
ATOM      5  O   UNL     1       0.713   3.134  23.522  0.00  0.00    -0.388 OA
ATOM     28  H   UNL     1       1.644   2.864  23.597  0.00  0.00    +0.210 HD
ENDBRANCH  12   5
BRANCH  10   8
ATOM      8  N   UNL     1       0.968   0.094  22.766  0.00  0.00    -0.306 NA
ATOM     27  H   UNL     1       0.615   0.659  21.993  0.00  0.00    +0.123 HD
BRANCH   8  11
ATOM      2  F   UNL     1       6.478  -0.246  23.455  0.00  0.00    -0.206 F 
ATOM      3  F   UNL     1       5.016   0.487  24.888  0.00  0.00    -0.206 F 
ATOM     11  C   UNL     1       2.403  -0.131  22.602  0.00  0.00    +0.054 C 
ATOM     14  C   UNL     1       3.154   1.200  22.717  0.00  0.00    +0.024 C 
ATOM     15  C   UNL     1       2.894  -1.139  23.649  0.00  0.00    +0.024 C 
ATOM     17  C   UNL     1       4.666   0.995  22.622  0.00  0.00    +0.077 C 
ATOM     18  C   UNL     1       4.405  -1.346  23.554  0.00  0.00    +0.077 C 
ATOM     19  C   UNL     1       5.153  -0.025  23.637  0.00  0.00    +0.249 C 
ENDBRANCH   8  11
ENDBRANCH  10   8
BRANCH  13  20
ATOM     20  C   UNL     1      -1.924   3.024  25.358  0.00  0.00    +0.140 C 
BRANCH  20   9
ATOM      9  N   UNL     1      -3.061   2.165  25.744  0.00  0.00    -0.187 NA
ATOM     29  H   UNL     1      -2.920   1.587  26.583  0.00  0.00    +0.148 HD
BRANCH   9   1
ATOM      1  S   UNL     1      -4.157   1.620  24.562  0.00  0.00    +0.058 S 
ATOM      6  O   UNL     1      -3.707   2.056  23.253  0.00  0.00    -0.153 OA
ATOM      7  O   UNL     1      -5.508   1.907  25.002  0.00  0.00    -0.153 OA
BRANCH   1  21
ATOM     21  C   UNL     1      -3.946  -0.133  24.652  0.00  0.00    +0.105 A 
ATOM     22  C   UNL     1      -4.219  -0.926  23.538  0.00  0.00    +0.028 A 
ATOM     23  C   UNL     1      -3.510  -0.723  25.839  0.00  0.00    +0.028 A 
ATOM     24  C   UNL     1      -4.057  -2.309  23.610  0.00  0.00    +0.002 A 
ATOM     25  C   UNL     1      -3.348  -2.107  25.911  0.00  0.00    +0.002 A 
ATOM     26  C   UNL     1      -3.622  -2.900  24.796  0.00  0.00    +0.000 A 
ENDBRANCH   1  21
ENDBRANCH   9   1
ENDBRANCH  20   9
ENDBRANCH  13  20
TORSDOF 7
ENDMDL
MODEL 3
REMARK VINA RESULT:      -6.0      4.014      6.288
REMARK  Name = 75536679
REMARK  7 active torsions:
REMARK  status: ('A' for Active; 'I' for Inactive)
REMARK    1  A    between atoms: S_1  and  N_9
REMARK    2  A    between atoms: S_1  and  C_21
REMARK    3  A    between atoms: O_5  and  C_12
REMARK    4  A    between atoms: N_8  and  C_10
REMARK    5  A    between atoms: N_8  and  C_11
REMARK    6  A    between atoms: N_9  and  C_20
REMARK    7  A    between atoms: C_13  and  C_20
REMARK                            x       y       z     vdW  Elec       q    Type
REMARK                         _______ _______ _______ _____ _____    ______ ____
ROOT
ATOM      4  O   UNL     1      -0.294   3.101  25.726  0.00  0.00    -0.371 OA
ATOM     10  C   UNL     1       0.300   1.581  23.999  0.00  0.00    +0.111 C 
ATOM     12  C   UNL     1      -1.143   2.009  23.808  0.00  0.00    +0.164 C 
ATOM     13  C   UNL     1      -1.175   3.304  24.608  0.00  0.00    +0.164 C 
ATOM     16  C   UNL     1       0.534   1.956  25.454  0.00  0.00    +0.181 C 
ENDROOT
BRANCH  12   5
ATOM      5  O   UNL     1      -1.474   2.221  22.449  0.00  0.00    -0.388 OA
ATOM     28  H   UNL     1      -0.660   2.449  21.968  0.00  0.00    +0.210 HD
ENDBRANCH  12   5
BRANCH  10   8
ATOM      8  N   UNL     1       0.530   0.171  23.735  0.00  0.00    -0.306 NA
ATOM     27  H   UNL     1      -0.196  -0.196  23.121  0.00  0.00    +0.123 HD
BRANCH   8  11
ATOM      2  F   UNL     1       5.985  -0.141  22.682  0.00  0.00    -0.206 F 
ATOM      3  F   UNL     1       5.036   0.536  24.518  0.00  0.00    -0.206 F 
ATOM     11  C   UNL     1       1.845  -0.036  23.131  0.00  0.00    +0.054 C 
ATOM     14  C   UNL     1       2.596   1.297  23.050  0.00  0.00    +0.024 C 
ATOM     15  C   UNL     1       2.634  -1.071  23.942  0.00  0.00    +0.024 C 
ATOM     17  C   UNL     1       4.005   1.109  22.488  0.00  0.00    +0.077 C 
ATOM     18  C   UNL     1       4.042  -1.261  23.380  0.00  0.00    +0.077 C 
ATOM     19  C   UNL     1       4.780   0.062  23.270  0.00  0.00    +0.249 C 
ENDBRANCH   8  11
ENDBRANCH  10   8
BRANCH  13  20
ATOM     20  C   UNL     1      -2.561   3.669  25.106  0.00  0.00    +0.140 C 
BRANCH  20   9
ATOM      9  N   UNL     1      -3.214   2.473  25.676  0.00  0.00    -0.187 NA
ATOM     29  H   UNL     1      -2.624   1.888  26.281  0.00  0.00    +0.148 HD
BRANCH   9   1
ATOM      1  S   UNL     1      -4.511   1.737  24.856  0.00  0.00    +0.058 S 
ATOM      6  O   UNL     1      -4.551   2.223  23.489  0.00  0.00    -0.153 OA
ATOM      7  O   UNL     1      -5.695   1.805  25.689  0.00  0.00    -0.153 OA
BRANCH   1  21
ATOM     21  C   UNL     1      -4.002   0.045  24.817  0.00  0.00    +0.105 A 
ATOM     22  C   UNL     1      -4.567  -0.832  23.890  0.00  0.00    +0.028 A 
ATOM     23  C   UNL     1      -3.040  -0.415  25.715  0.00  0.00    +0.028 A 
ATOM     24  C   UNL     1      -4.170  -2.168  23.861  0.00  0.00    +0.002 A 
ATOM     25  C   UNL     1      -2.642  -1.752  25.687  0.00  0.00    +0.002 A 
ATOM     26  C   UNL     1      -3.207  -2.628  24.759  0.00  0.00    +0.000 A 
ENDBRANCH   1  21
ENDBRANCH   9   1
ENDBRANCH  20   9
ENDBRANCH  13  20
TORSDOF 7
ENDMDL
MODEL 4
REMARK VINA RESULT:      -5.9      2.555      4.878
REMARK  Name = 75536679
REMARK  7 active torsions:
REMARK  status: ('A' for Active; 'I' for Inactive)
REMARK    1  A    between atoms: S_1  and  N_9
REMARK    2  A    between atoms: S_1  and  C_21
REMARK    3  A    between atoms: O_5  and  C_12
REMARK    4  A    between atoms: N_8  and  C_10
REMARK    5  A    between atoms: N_8  and  C_11
REMARK    6  A    between atoms: N_9  and  C_20
REMARK    7  A    between atoms: C_13  and  C_20
REMARK                            x       y       z     vdW  Elec       q    Type
REMARK                         _______ _______ _______ _____ _____    ______ ____
ROOT
ATOM      4  O   UNL     1      -2.805   3.482  23.413  0.00  0.00    -0.371 OA
ATOM     10  C   UNL     1      -4.581   2.340  24.501  0.00  0.00    +0.111 C 
ATOM     12  C   UNL     1      -3.765   3.089  25.538  0.00  0.00    +0.164 C 
ATOM     13  C   UNL     1      -3.068   4.128  24.670  0.00  0.00    +0.164 C 
ATOM     16  C   UNL     1      -3.611   2.293  23.332  0.00  0.00    +0.181 C 
ENDROOT
BRANCH  12   5
ATOM      5  O   UNL     1      -4.568   3.688  26.536  0.00  0.00    -0.388 OA
ATOM     28  H   UNL     1      -4.076   4.434  26.918  0.00  0.00    +0.210 HD
ENDBRANCH  12   5
BRANCH  10   8
ATOM      8  N   UNL     1      -5.007   1.020  24.935  0.00  0.00    -0.306 NA
ATOM     27  H   UNL     1      -5.922   0.798  24.545  0.00  0.00    +0.123 HD
BRANCH   8  11
ATOM      2  F   UNL     1      -2.029  -3.641  24.323  0.00  0.00    -0.206 F 
ATOM      3  F   UNL     1      -3.743  -3.336  25.627  0.00  0.00    -0.206 F 
ATOM     11  C   UNL     1      -4.035   0.004  24.534  0.00  0.00    +0.054 C 
ATOM     14  C   UNL     1      -3.213  -0.439  25.749  0.00  0.00    +0.024 C 
ATOM     15  C   UNL     1      -4.760  -1.184  23.890  0.00  0.00    +0.024 C 
ATOM     17  C   UNL     1      -2.234  -1.553  25.382  0.00  0.00    +0.077 C 
ATOM     18  C   UNL     1      -3.782  -2.298  23.521  0.00  0.00    +0.077 C 
ATOM     19  C   UNL     1      -2.944  -2.721  24.717  0.00  0.00    +0.249 C 
ENDBRANCH   8  11
ENDBRANCH  10   8
BRANCH  13  20
ATOM     20  C   UNL     1      -1.770   4.637  25.268  0.00  0.00    +0.140 C 
BRANCH  20   9
ATOM      9  N   UNL     1      -0.642   3.825  24.769  0.00  0.00    -0.187 NA
ATOM     29  H   UNL     1      -0.493   3.844  23.752  0.00  0.00    +0.148 HD
BRANCH   9   1
ATOM      1  S   UNL     1      -0.133   2.451  25.635  0.00  0.00    +0.058 S 
ATOM      6  O   UNL     1      -1.291   1.784  26.201  0.00  0.00    -0.153 OA
ATOM      7  O   UNL     1       0.986   2.814  26.482  0.00  0.00    -0.153 OA
BRANCH   1  21
ATOM     21  C   UNL     1       0.506   1.426  24.345  0.00  0.00    +0.105 A 
ATOM     22  C   UNL     1      -0.290   0.423  23.791  0.00  0.00    +0.028 A 
ATOM     23  C   UNL     1       1.809   1.616  23.883  0.00  0.00    +0.028 A 
ATOM     24  C   UNL     1       0.215  -0.388  22.776  0.00  0.00    +0.002 A 
ATOM     25  C   UNL     1       2.315   0.804  22.868  0.00  0.00    +0.002 A 
ATOM     26  C   UNL     1       1.517  -0.198  22.314  0.00  0.00    +0.000 A 
ENDBRANCH   1  21
ENDBRANCH   9   1
ENDBRANCH  20   9
ENDBRANCH  13  20
TORSDOF 7
ENDMDL
MODEL 5
REMARK VINA RESULT:      -5.6      4.143      7.142
REMARK  Name = 75536679
REMARK  7 active torsions:
REMARK  status: ('A' for Active; 'I' for Inactive)
REMARK    1  A    between atoms: S_1  and  N_9
REMARK    2  A    between atoms: S_1  and  C_21
REMARK    3  A    between atoms: O_5  and  C_12
REMARK    4  A    between atoms: N_8  and  C_10
REMARK    5  A    between atoms: N_8  and  C_11
REMARK    6  A    between atoms: N_9  and  C_20
REMARK    7  A    between atoms: C_13  and  C_20
REMARK                            x       y       z     vdW  Elec       q    Type
REMARK                         _______ _______ _______ _____ _____    ______ ____
ROOT
ATOM      4  O   UNL     1      -1.578  -2.313  23.894  0.00  0.00    -0.371 OA
ATOM     10  C   UNL     1       0.190  -0.736  24.068  0.00  0.00    +0.111 C 
ATOM     12  C   UNL     1      -0.964  -0.286  24.945  0.00  0.00    +0.164 C 
ATOM     13  C   UNL     1      -1.720  -1.594  25.131  0.00  0.00    +0.164 C 
ATOM     16  C   UNL     1      -0.504  -1.721  23.141  0.00  0.00    +0.181 C 
ENDROOT
BRANCH  12   5
ATOM      5  O   UNL     1      -0.532   0.254  26.179  0.00  0.00    -0.388 OA
ATOM     28  H   UNL     1       0.376  -0.049  26.345  0.00  0.00    +0.210 HD
ENDBRANCH  12   5
BRANCH  10   8
ATOM      8  N   UNL     1       0.838   0.351  23.353  0.00  0.00    -0.306 NA
ATOM     27  H   UNL     1       0.864   1.189  23.934  0.00  0.00    +0.123 HD
BRANCH   8  11
ATOM      2  F   UNL     1       6.333  -0.485  23.090  0.00  0.00    -0.206 F 
ATOM      3  F   UNL     1       5.225   0.481  24.693  0.00  0.00    -0.206 F 
ATOM     11  C   UNL     1       2.196  -0.024  22.959  0.00  0.00    +0.054 C 
ATOM     14  C   UNL     1       3.066   1.231  22.832  0.00  0.00    +0.024 C 
ATOM     15  C   UNL     1       2.782  -1.006  23.982  0.00  0.00    +0.024 C 
ATOM     17  C   UNL     1       4.512   0.872  22.490  0.00  0.00    +0.077 C 
ATOM     18  C   UNL     1       4.226  -1.366  23.640  0.00  0.00    +0.077 C 
ATOM     19  C   UNL     1       5.087  -0.123  23.483  0.00  0.00    +0.249 C 
ENDBRANCH   8  11
ENDBRANCH  10   8
BRANCH  13  20
ATOM     20  C   UNL     1      -3.192  -1.397  25.444  0.00  0.00    +0.140 C 
BRANCH  20   9
ATOM      9  N   UNL     1      -3.448   0.025  25.748  0.00  0.00    -0.187 NA
ATOM     29  H   UNL     1      -3.687   0.237  26.725  0.00  0.00    +0.148 HD
BRANCH   9   1
ATOM      1  S   UNL     1      -4.023   1.066  24.531  0.00  0.00    +0.058 S 
ATOM      6  O   UNL     1      -5.410   1.398  24.800  0.00  0.00    -0.153 OA
ATOM      7  O   UNL     1      -3.637   0.539  23.237  0.00  0.00    -0.153 OA
BRANCH   1  21
ATOM     21  C   UNL     1      -3.054   2.517  24.808  0.00  0.00    +0.105 A 
ATOM     22  C   UNL     1      -3.493   3.487  25.711  0.00  0.00    +0.028 A 
ATOM     23  C   UNL     1      -1.853   2.696  24.122  0.00  0.00    +0.028 A 
ATOM     24  C   UNL     1      -2.730   4.635  25.927  0.00  0.00    +0.002 A 
ATOM     25  C   UNL     1      -1.090   3.844  24.338  0.00  0.00    +0.002 A 
ATOM     26  C   UNL     1      -1.529   4.813  25.241  0.00  0.00    +0.000 A 
ENDBRANCH   1  21
ENDBRANCH   9   1
ENDBRANCH  20   9
ENDBRANCH  13  20
TORSDOF 7
ENDMDL
MODEL 6
REMARK VINA RESULT:      -5.5      2.407      4.691
REMARK  Name = 75536679
REMARK  7 active torsions:
REMARK  status: ('A' for Active; 'I' for Inactive)
REMARK    1  A    between atoms: S_1  and  N_9
REMARK    2  A    between atoms: S_1  and  C_21
REMARK    3  A    between atoms: O_5  and  C_12
REMARK    4  A    between atoms: N_8  and  C_10
REMARK    5  A    between atoms: N_8  and  C_11
REMARK    6  A    between atoms: N_9  and  C_20
REMARK    7  A    between atoms: C_13  and  C_20
REMARK                            x       y       z     vdW  Elec       q    Type
REMARK                         _______ _______ _______ _____ _____    ______ ____
ROOT
ATOM      4  O   UNL     1      -0.734   3.489  25.754  0.00  0.00    -0.371 OA
ATOM     10  C   UNL     1      -0.092   1.224  26.067  0.00  0.00    +0.111 C 
ATOM     12  C   UNL     1      -0.157   1.520  24.580  0.00  0.00    +0.164 C 
ATOM     13  C   UNL     1      -0.044   3.038  24.577  0.00  0.00    +0.164 C 
ATOM     16  C   UNL     1      -0.915   2.368  26.637  0.00  0.00    +0.181 C 
ENDROOT
BRANCH  12   5
ATOM      5  O   UNL     1       0.895   0.911  23.856  0.00  0.00    -0.388 OA
ATOM     28  H   UNL     1       0.569   0.071  23.491  0.00  0.00    +0.210 HD
ENDBRANCH  12   5
BRANCH  10   8
ATOM      8  N   UNL     1      -0.617  -0.083  26.426  0.00  0.00    -0.306 NA
ATOM     27  H   UNL     1      -1.106  -0.034  27.319  0.00  0.00    +0.123 HD
BRANCH   8  11
ATOM      2  F   UNL     1      -4.351  -2.950  23.460  0.00  0.00    -0.206 F 
ATOM      3  F   UNL     1      -3.682  -3.365  25.487  0.00  0.00    -0.206 F 
ATOM     11  C   UNL     1      -1.521  -0.581  25.390  0.00  0.00    +0.054 C 
ATOM     14  C   UNL     1      -1.117  -2.003  24.986  0.00  0.00    +0.024 C 
ATOM     15  C   UNL     1      -2.968  -0.536  25.897  0.00  0.00    +0.024 C 
ATOM     17  C   UNL     1      -2.084  -2.583  23.955  0.00  0.00    +0.077 C 
ATOM     18  C   UNL     1      -3.935  -1.115  24.866  0.00  0.00    +0.077 C 
ATOM     19  C   UNL     1      -3.522  -2.514  24.440  0.00  0.00    +0.249 C 
ENDBRANCH   8  11
ENDBRANCH  10   8
BRANCH  13  20
ATOM     20  C   UNL     1      -0.652   3.683  23.345  0.00  0.00    +0.140 C 
BRANCH  20   9
ATOM      9  N   UNL     1      -2.094   3.912  23.568  0.00  0.00    -0.187 NA
ATOM     29  H   UNL     1      -2.338   4.424  24.425  0.00  0.00    +0.148 HD
BRANCH   9   1
ATOM      1  S   UNL     1      -3.239   2.835  22.915  0.00  0.00    +0.058 S 
ATOM      6  O   UNL     1      -2.611   1.546  22.691  0.00  0.00    -0.153 OA
ATOM      7  O   UNL     1      -3.949   3.497  21.839  0.00  0.00    -0.153 OA
BRANCH   1  21
ATOM     21  C   UNL     1      -4.377   2.660  24.255  0.00  0.00    +0.105 A 
ATOM     22  C   UNL     1      -4.257   3.474  25.382  0.00  0.00    +0.028 A 
ATOM     23  C   UNL     1      -5.391   1.705  24.189  0.00  0.00    +0.028 A 
ATOM     24  C   UNL     1      -5.152   3.334  26.442  0.00  0.00    +0.002 A 
ATOM     25  C   UNL     1      -6.287   1.564  25.250  0.00  0.00    +0.002 A 
ATOM     26  C   UNL     1      -6.167   2.379  26.376  0.00  0.00    +0.000 A 
ENDBRANCH   1  21
ENDBRANCH   9   1
ENDBRANCH  20   9
ENDBRANCH  13  20
TORSDOF 7
ENDMDL
MODEL 7
REMARK VINA RESULT:      -5.0      2.975      4.940
REMARK  Name = 75536679
REMARK  7 active torsions:
REMARK  status: ('A' for Active; 'I' for Inactive)
REMARK    1  A    between atoms: S_1  and  N_9
REMARK    2  A    between atoms: S_1  and  C_21
REMARK    3  A    between atoms: O_5  and  C_12
REMARK    4  A    between atoms: N_8  and  C_10
REMARK    5  A    between atoms: N_8  and  C_11
REMARK    6  A    between atoms: N_9  and  C_20
REMARK    7  A    between atoms: C_13  and  C_20
REMARK                            x       y       z     vdW  Elec       q    Type
REMARK                         _______ _______ _______ _____ _____    ______ ____
ROOT
ATOM      4  O   UNL     1      -1.174   3.478  26.797  0.00  0.00    -0.371 OA
ATOM     10  C   UNL     1       0.388   2.703  25.184  0.00  0.00    +0.111 C 
ATOM     12  C   UNL     1      -0.718   3.464  24.477  0.00  0.00    +0.164 C 
ATOM     13  C   UNL     1      -1.280   4.297  25.621  0.00  0.00    +0.164 C 
ATOM     16  C   UNL     1      -0.266   2.396  26.521  0.00  0.00    +0.181 C 
ENDROOT
BRANCH  12   5
ATOM      5  O   UNL     1      -0.236   4.274  23.422  0.00  0.00    -0.388 OA
ATOM     28  H   UNL     1      -0.820   5.046  23.337  0.00  0.00    +0.210 HD
ENDBRANCH  12   5
BRANCH  10   8
ATOM      8  N   UNL     1       0.817   1.507  24.477  0.00  0.00    -0.306 NA
ATOM     27  H   UNL     1       1.631   1.100  24.936  0.00  0.00    +0.123 HD
BRANCH   8  11
ATOM      2  F   UNL     1      -2.349  -3.049  24.903  0.00  0.00    -0.206 F 
ATOM      3  F   UNL     1      -0.301  -2.801  25.592  0.00  0.00    -0.206 F 
ATOM     11  C   UNL     1      -0.264   0.524  24.418  0.00  0.00    +0.054 C 
ATOM     14  C   UNL     1       0.181  -0.689  23.594  0.00  0.00    +0.024 C 
ATOM     15  C   UNL     1      -0.671   0.112  25.838  0.00  0.00    +0.024 C 
ATOM     17  C   UNL     1      -0.899  -1.770  23.568  0.00  0.00    +0.077 C 
ATOM     18  C   UNL     1      -1.752  -0.968  25.814  0.00  0.00    +0.077 C 
ATOM     19  C   UNL     1      -1.328  -2.160  24.973  0.00  0.00    +0.249 C 
ENDBRANCH   8  11
ENDBRANCH  10   8
BRANCH  13  20
ATOM     20  C   UNL     1      -2.725   4.710  25.410  0.00  0.00    +0.140 C 
BRANCH  20   9
ATOM      9  N   UNL     1      -3.596   3.951  26.330  0.00  0.00    -0.187 NA
ATOM     29  H   UNL     1      -3.117   3.463  27.097  0.00  0.00    +0.148 HD
BRANCH   9   1
ATOM      1  S   UNL     1      -5.083   3.333  25.781  0.00  0.00    +0.058 S 
ATOM      6  O   UNL     1      -5.707   4.299  24.896  0.00  0.00    -0.153 OA
ATOM      7  O   UNL     1      -5.818   2.797  26.910  0.00  0.00    -0.153 OA
BRANCH   1  21
ATOM     21  C   UNL     1      -4.563   1.956  24.802  0.00  0.00    +0.105 A 
ATOM     22  C   UNL     1      -5.001   0.670  25.120  0.00  0.00    +0.028 A 
ATOM     23  C   UNL     1      -3.712   2.154  23.715  0.00  0.00    +0.028 A 
ATOM     24  C   UNL     1      -4.588  -0.417  24.351  0.00  0.00    +0.002 A 
ATOM     25  C   UNL     1      -3.299   1.066  22.945  0.00  0.00    +0.002 A 
ATOM     26  C   UNL     1      -3.737  -0.220  23.264  0.00  0.00    +0.000 A 
ENDBRANCH   1  21
ENDBRANCH   9   1
ENDBRANCH  20   9
ENDBRANCH  13  20
TORSDOF 7
ENDMDL
MODEL 8
REMARK VINA RESULT:      -4.9     15.524     17.426
REMARK  Name = 75536679
REMARK  7 active torsions:
REMARK  status: ('A' for Active; 'I' for Inactive)
REMARK    1  A    between atoms: S_1  and  N_9
REMARK    2  A    between atoms: S_1  and  C_21
REMARK    3  A    between atoms: O_5  and  C_12
REMARK    4  A    between atoms: N_8  and  C_10
REMARK    5  A    between atoms: N_8  and  C_11
REMARK    6  A    between atoms: N_9  and  C_20
REMARK    7  A    between atoms: C_13  and  C_20
REMARK                            x       y       z     vdW  Elec       q    Type
REMARK                         _______ _______ _______ _____ _____    ______ ____
ROOT
ATOM      4  O   UNL     1      -7.042 -10.241  12.643  0.00  0.00    -0.371 OA
ATOM     10  C   UNL     1      -9.292  -9.852  13.297  0.00  0.00    +0.111 C 
ATOM     12  C   UNL     1      -9.235 -10.013  11.789  0.00  0.00    +0.164 C 
ATOM     13  C   UNL     1      -7.915 -10.753  11.622  0.00  0.00    +0.164 C 
ATOM     16  C   UNL     1      -7.838  -9.550  13.622  0.00  0.00    +0.181 C 
ENDROOT
BRANCH  12   5
ATOM      5  O   UNL     1     -10.324 -10.757  11.278  0.00  0.00    -0.388 OA
ATOM     28  H   UNL     1     -11.071 -10.149  11.141  0.00  0.00    +0.210 HD
ENDBRANCH  12   5
BRANCH  10   8
ATOM      8  N   UNL     1     -10.198  -8.805  13.738  0.00  0.00    -0.306 NA
ATOM     27  H   UNL     1     -11.007  -8.755  13.119  0.00  0.00    +0.123 HD
BRANCH   8  11
ATOM      2  F   UNL     1     -10.485  -9.839  19.198  0.00  0.00    -0.206 F 
ATOM      3  F   UNL     1      -8.690  -9.709  17.976  0.00  0.00    -0.206 F 
ATOM     11  C   UNL     1     -10.637  -9.044  15.112  0.00  0.00    +0.054 C 
ATOM     14  C   UNL     1     -10.208 -10.446  15.559  0.00  0.00    +0.024 C 
ATOM     15  C   UNL     1     -10.062  -7.965  16.037  0.00  0.00    +0.024 C 
ATOM     17  C   UNL     1     -10.589 -10.705  17.016  0.00  0.00    +0.077 C 
ATOM     18  C   UNL     1     -10.442  -8.222  17.494  0.00  0.00    +0.077 C 
ATOM     19  C   UNL     1     -10.046  -9.622  17.934  0.00  0.00    +0.249 C 
ENDBRANCH   8  11
ENDBRANCH  10   8
BRANCH  13  20
ATOM     20  C   UNL     1      -7.282 -10.551  10.257  0.00  0.00    +0.140 C 
BRANCH  20   9
ATOM      9  N   UNL     1      -6.306  -9.446  10.322  0.00  0.00    -0.187 NA
ATOM     29  H   UNL     1      -6.703  -8.506  10.444  0.00  0.00    +0.148 HD
BRANCH   9   1
ATOM      1  S   UNL     1      -4.800  -9.592   9.543  0.00  0.00    +0.058 S 
ATOM      6  O   UNL     1      -4.424  -8.308   8.981  0.00  0.00    -0.153 OA
ATOM      7  O   UNL     1      -4.812 -10.778   8.709  0.00  0.00    -0.153 OA
BRANCH   1  21
ATOM     21  C   UNL     1      -3.720  -9.927  10.902  0.00  0.00    +0.105 A 
ATOM     22  C   UNL     1      -4.237 -10.440  12.092  0.00  0.00    +0.028 A 
ATOM     23  C   UNL     1      -2.354  -9.674  10.786  0.00  0.00    +0.028 A 
ATOM     24  C   UNL     1      -3.387 -10.701  13.166  0.00  0.00    +0.002 A 
ATOM     25  C   UNL     1      -1.503  -9.935  11.861  0.00  0.00    +0.002 A 
ATOM     26  C   UNL     1      -2.020 -10.448  13.051  0.00  0.00    +0.000 A 
ENDBRANCH   1  21
ENDBRANCH   9   1
ENDBRANCH  20   9
ENDBRANCH  13  20
TORSDOF 7
ENDMDL
MODEL 9
REMARK VINA RESULT:      -4.9      3.295      4.871
REMARK  Name = 75536679
REMARK  7 active torsions:
REMARK  status: ('A' for Active; 'I' for Inactive)
REMARK    1  A    between atoms: S_1  and  N_9
REMARK    2  A    between atoms: S_1  and  C_21
REMARK    3  A    between atoms: O_5  and  C_12
REMARK    4  A    between atoms: N_8  and  C_10
REMARK    5  A    between atoms: N_8  and  C_11
REMARK    6  A    between atoms: N_9  and  C_20
REMARK    7  A    between atoms: C_13  and  C_20
REMARK                            x       y       z     vdW  Elec       q    Type
REMARK                         _______ _______ _______ _____ _____    ______ ____
ROOT
ATOM      4  O   UNL     1      -1.822   4.896  25.327  0.00  0.00    -0.371 OA
ATOM     10  C   UNL     1      -0.526   3.351  24.071  0.00  0.00    +0.111 C 
ATOM     12  C   UNL     1      -1.979   2.913  24.049  0.00  0.00    +0.164 C 
ATOM     13  C   UNL     1      -2.685   4.215  24.401  0.00  0.00    +0.164 C 
ATOM     16  C   UNL     1      -0.516   4.296  25.262  0.00  0.00    +0.181 C 
ENDROOT
BRANCH  12   5
ATOM      5  O   UNL     1      -2.381   2.420  22.785  0.00  0.00    -0.388 OA
ATOM     28  H   UNL     1      -2.988   3.065  22.385  0.00  0.00    +0.210 HD
ENDBRANCH  12   5
BRANCH  10   8
ATOM      8  N   UNL     1       0.413   2.252  24.213  0.00  0.00    -0.306 NA
ATOM     27  H   UNL     1       1.023   2.410  25.015  0.00  0.00    +0.123 HD
BRANCH   8  11
ATOM      2  F   UNL     1      -1.034  -3.009  25.306  0.00  0.00    -0.206 F 
ATOM      3  F   UNL     1       0.911  -2.087  25.620  0.00  0.00    -0.206 F 
ATOM     11  C   UNL     1      -0.294   0.982  24.369  0.00  0.00    +0.054 C 
ATOM     14  C   UNL     1       0.377  -0.097  23.513  0.00  0.00    +0.024 C 
ATOM     15  C   UNL     1      -0.322   0.580  25.849  0.00  0.00    +0.024 C 
ATOM     17  C   UNL     1      -0.293  -1.457  23.705  0.00  0.00    +0.077 C 
ATOM     18  C   UNL     1      -0.993  -0.779  26.043  0.00  0.00    +0.077 C 
ATOM     19  C   UNL     1      -0.350  -1.846  25.173  0.00  0.00    +0.249 C 
ENDBRANCH   8  11
ENDBRANCH  10   8
BRANCH  13  20
ATOM     20  C   UNL     1      -4.050   4.007  25.029  0.00  0.00    +0.140 C 
BRANCH  20   9
ATOM      9  N   UNL     1      -4.761   2.924  24.322  0.00  0.00    -0.187 NA
ATOM     29  H   UNL     1      -4.951   3.090  23.326  0.00  0.00    +0.148 HD
BRANCH   9   1
ATOM      1  S   UNL     1      -5.799   1.883  25.181  0.00  0.00    +0.058 S 
ATOM      6  O   UNL     1      -7.053   1.756  24.463  0.00  0.00    -0.153 OA
ATOM      7  O   UNL     1      -5.795   2.262  26.580  0.00  0.00    -0.153 OA
BRANCH   1  21
ATOM     21  C   UNL     1      -4.945   0.340  25.061  0.00  0.00    +0.105 A 
ATOM     22  C   UNL     1      -4.808  -0.286  23.821  0.00  0.00    +0.028 A 
ATOM     23  C   UNL     1      -4.413  -0.254  26.205  0.00  0.00    +0.028 A 
ATOM     24  C   UNL     1      -4.139  -1.505  23.726  0.00  0.00    +0.002 A 
ATOM     25  C   UNL     1      -3.743  -1.474  26.110  0.00  0.00    +0.002 A 
ATOM     26  C   UNL     1      -3.606  -2.099  24.870  0.00  0.00    +0.000 A 
ENDBRANCH   1  21
ENDBRANCH   9   1
ENDBRANCH  20   9
ENDBRANCH  13  20
TORSDOF 7
ENDMDL
MODEL 10
REMARK VINA RESULT:      -4.6      4.082      6.875
REMARK  Name = 75536679
REMARK  7 active torsions:
REMARK  status: ('A' for Active; 'I' for Inactive)
REMARK    1  A    between atoms: S_1  and  N_9
REMARK    2  A    between atoms: S_1  and  C_21
REMARK    3  A    between atoms: O_5  and  C_12
REMARK    4  A    between atoms: N_8  and  C_10
REMARK    5  A    between atoms: N_8  and  C_11
REMARK    6  A    between atoms: N_9  and  C_20
REMARK    7  A    between atoms: C_13  and  C_20
REMARK                            x       y       z     vdW  Elec       q    Type
REMARK                         _______ _______ _______ _____ _____    ______ ____
ROOT
ATOM      4  O   UNL     1      -1.248  -0.005  25.382  0.00  0.00    -0.371 OA
ATOM     10  C   UNL     1       0.663   0.033  23.971  0.00  0.00    +0.111 C 
ATOM     12  C   UNL     1       0.224   1.459  24.251  0.00  0.00    +0.164 C 
ATOM     13  C   UNL     1      -0.599   1.271  25.517  0.00  0.00    +0.164 C 
ATOM     16  C   UNL     1      -0.592  -0.744  24.336  0.00  0.00    +0.181 C 
ENDROOT
BRANCH  12   5
ATOM      5  O   UNL     1       1.316   2.335  24.457  0.00  0.00    -0.388 OA
ATOM     28  H   UNL     1       1.186   2.790  25.306  0.00  0.00    +0.210 HD
ENDBRANCH  12   5
BRANCH  10   8
ATOM      8  N   UNL     1       1.086  -0.189  22.599  0.00  0.00    -0.306 NA
ATOM     27  H   UNL     1       0.812   0.600  22.013  0.00  0.00    +0.123 HD
BRANCH   8  11
ATOM      2  F   UNL     1       6.564  -0.270  23.571  0.00  0.00    -0.206 F 
ATOM      3  F   UNL     1       5.014   0.569  24.846  0.00  0.00    -0.206 F 
ATOM     11  C   UNL     1       2.533  -0.383  22.527  0.00  0.00    +0.054 C 
ATOM     14  C   UNL     1       3.241   0.977  22.527  0.00  0.00    +0.024 C 
ATOM     15  C   UNL     1       3.001  -1.253  23.700  0.00  0.00    +0.024 C 
ATOM     17  C   UNL     1       4.760   0.812  22.524  0.00  0.00    +0.077 C 
ATOM     18  C   UNL     1       4.519  -1.419  23.698  0.00  0.00    +0.077 C 
ATOM     19  C   UNL     1       5.226  -0.074  23.667  0.00  0.00    +0.249 C 
ENDBRANCH   8  11
ENDBRANCH  10   8
BRANCH  13  20
ATOM     20  C   UNL     1      -1.640   2.356  25.724  0.00  0.00    +0.140 C 
BRANCH  20   9
ATOM      9  N   UNL     1      -1.703   3.216  24.526  0.00  0.00    -0.187 NA
ATOM     29  H   UNL     1      -1.195   4.107  24.588  0.00  0.00    +0.148 HD
BRANCH   9   1
ATOM      1  S   UNL     1      -3.040   3.120  23.477  0.00  0.00    +0.058 S 
ATOM      6  O   UNL     1      -2.748   2.180  22.411  0.00  0.00    -0.153 OA
ATOM      7  O   UNL     1      -3.491   4.462  23.162  0.00  0.00    -0.153 OA
BRANCH   1  21
ATOM     21  C   UNL     1      -4.268   2.394  24.520  0.00  0.00    +0.105 A 
ATOM     22  C   UNL     1      -5.062   3.206  25.332  0.00  0.00    +0.028 A 
ATOM     23  C   UNL     1      -4.440   1.010  24.537  0.00  0.00    +0.028 A 
ATOM     24  C   UNL     1      -6.028   2.634  26.158  0.00  0.00    +0.002 A 
ATOM     25  C   UNL     1      -5.406   0.437  25.365  0.00  0.00    +0.002 A 
ATOM     26  C   UNL     1      -6.200   1.250  26.175  0.00  0.00    +0.000 A 
ENDBRANCH   1  21
ENDBRANCH   9   1
ENDBRANCH  20   9
ENDBRANCH  13  20
TORSDOF 7
ENDMDL
